2C_CG2012	P10000014
  -OEChem-05122015313D

 37 39  0     1  0  0  0  0  0999 V2000
  116.6651  104.7342  103.4550 C   0  0  0  0  0  0  0  0  0  0  0  0
  115.9699  104.1490  104.5273 C   0  0  0  0  0  0  0  0  0  0  0  0
  118.0298  105.0223  103.5544 C   0  0  0  0  0  0  0  0  0  0  0  0
  121.1392  105.4218  104.4426 C   0  0  0  0  0  0  0  0  0  0  0  0
  122.3792  105.4680  105.0871 C   0  0  0  0  0  0  0  0  0  0  0  0
  116.6252  103.8400  105.7207 C   0  0  0  0  0  0  0  0  0  0  0  0
  121.4425  104.4585  107.0965 C   0  0  0  0  0  0  0  0  0  0  0  0
  118.6800  104.7161  104.7382 C   0  0  0  0  0  0  0  0  0  0  0  0
  120.0610  104.8935  105.1326 C   0  0  0  0  0  0  0  0  0  0  0  0
  122.5293  104.9911  106.4007 C   0  0  0  0  0  0  0  0  0  0  0  0
  117.9757  104.1277  105.8126 C   0  0  0  0  0  0  0  0  0  0  0  0
  120.2181  104.4157  106.4531 C   0  0  0  0  0  0  0  0  0  0  0  0
  123.8334  105.0541  107.0421 C   0  0  0  0  0  0  0  0  0  0  0  0
  124.5867  109.1061  107.7349 C   0  0  0  0  0  0  0  0  0  0  0  0
  118.9017  103.8914  106.9874 C   0  0  0  0  0  0  0  0  0  0  0  0
  125.5067  106.6935  107.4928 C   0  0  0  0  0  0  0  0  0  0  0  0
  125.6869  108.1781  107.1914 C   0  0  2  0  0  0  0  0  0  0  0  0
  127.0597  108.5729  107.6416 N   0  3  0  0  0  0  0  0  0  0  0  0
  124.9468  110.2716  108.0592 O   0  5  0  0  0  0  0  0  0  0  0  0
  124.2315  104.2536  107.8985 O   0  0  0  0  0  0  0  0  0  0  0  0
  123.4403  108.5763  107.8104 O   0  0  0  0  0  0  0  0  0  0  0  0
  124.5704  106.1101  106.5804 O   0  0  0  0  0  0  0  0  0  0  0  0
  116.1330  104.9648  102.5357 H   0  0  0  0  0  0  0  0  0  0  0  0
  114.9094  103.9351  104.4243 H   0  0  0  0  0  0  0  0  0  0  0  0
  118.5526  105.4740  102.7179 H   0  0  0  0  0  0  0  0  0  0  0  0
  121.0383  105.7935  103.4285 H   0  0  0  0  0  0  0  0  0  0  0  0
  123.2337  105.8811  104.5557 H   0  0  0  0  0  0  0  0  0  0  0  0
  116.0874  103.3889  106.5473 H   0  0  0  0  0  0  0  0  0  0  0  0
  121.5478  104.0885  108.1114 H   0  0  0  0  0  0  0  0  0  0  0  0
  118.5787  104.4695  107.8580 H   0  0  0  0  0  0  0  0  0  0  0  0
  118.9738  102.8239  107.2150 H   0  0  0  0  0  0  0  0  0  0  0  0
  125.1320  106.5451  108.5116 H   0  0  0  0  0  0  0  0  0  0  0  0
  126.4573  106.1578  107.3994 H   0  0  0  0  0  0  0  0  0  0  0  0
  125.6967  108.3113  106.1026 H   0  0  0  0  0  0  0  0  0  0  0  0
  127.0045  109.1309  108.4944 H   0  0  0  0  0  0  0  0  0  0  0  0
  127.5224  109.1249  106.9183 H   0  0  0  0  0  0  0  0  0  0  0  0
  127.6219  107.7419  107.8295 H   0  0  0  0  0  0  0  0  0  0  0  0
  1  2  1  0  0  0  0
  1  3  2  0  0  0  0
  2  6  2  0  0  0  0
  3  8  1  0  0  0  0
  4  5  1  0  0  0  0
  4  9  2  0  0  0  0
  5 10  2  0  0  0  0
  6 11  1  0  0  0  0
  7 10  1  0  0  0  0
  7 12  2  0  0  0  0
  8  9  1  0  0  0  0
  8 11  2  0  0  0  0
  9 12  1  0  0  0  0
 10 13  1  0  0  0  0
 11 15  1  0  0  0  0
 12 15  1  0  0  0  0
 13 20  2  0  0  0  0
 13 22  1  0  0  0  0
 14 17  1  0  0  0  0
 14 19  1  0  0  0  0
 14 21  2  0  0  0  0
 16 17  1  0  0  0  0
 16 22  1  0  0  0  0
 17 18  1  0  0  0  0
  1 23  1  0  0  0  0
  2 24  1  0  0  0  0
  3 25  1  0  0  0  0
  4 26  1  0  0  0  0
  5 27  1  0  0  0  0
  6 28  1  0  0  0  0
  7 29  1  0  0  0  0
 15 30  1  0  0  0  0
 15 31  1  0  0  0  0
 16 32  1  0  0  0  0
 16 33  1  0  0  0  0
 17 34  1  0  0  0  0
 18 35  1  0  0  0  0
 18 36  1  0  0  0  0
 18 37  1  0  0  0  0
M  CHG  2  18   1  19  -1
M  END
> <FRED Chemgauss4 score>
-13.941046

$$$$
C70550714	P108825876
  -OEChem-05122015313D

 44 45  0     0  0  0  0  0  0999 V2000
  124.4385  105.9849  107.3859 C   0  0  0  0  0  0  0  0  0  0  0  0
  123.8632  107.9523  106.1797 C   0  0  0  0  0  0  0  0  0  0  0  0
  123.5561  106.6509  106.5425 C   0  0  0  0  0  0  0  0  0  0  0  0
  125.5848  106.6317  107.8343 C   0  0  0  0  0  0  0  0  0  0  0  0
  125.8011  107.9340  107.4135 C   0  0  0  0  0  0  0  0  0  0  0  0
  122.3226  105.9884  106.0458 C   0  0  0  0  0  0  0  0  0  0  0  0
  116.9683  106.0372  104.4731 C   0  0  0  0  0  0  0  0  0  0  0  0
  118.4072  104.2382  103.4265 C   0  0  0  0  0  0  0  0  0  0  0  0
  116.9244  105.2425  105.7789 C   0  0  0  0  0  0  0  0  0  0  0  0
  118.3633  103.4434  104.7322 C   0  0  0  0  0  0  0  0  0  0  0  0
  117.1901  105.1542  103.2371 C   0  0  0  0  0  0  0  0  0  0  0  0
  118.1414  104.3262  105.9683 C   0  0  0  0  0  0  0  0  0  0  0  0
  115.9326  104.3551  102.8821 C   0  0  0  0  0  0  0  0  0  0  0  0
  119.3988  105.1251  106.3237 C   0  0  0  0  0  0  0  0  0  0  0  0
  120.6232  104.2385  106.4993 C   0  0  0  0  0  0  0  0  0  0  0  0
  124.9669  108.6134  106.5949 N   0  0  0  0  0  0  0  0  0  0  0  0
  127.1035  109.9668  107.7198 N   0  0  0  0  0  0  0  0  0  0  0  0
  126.9641  108.6094  107.8600 N   0  0  0  0  0  0  0  0  0  0  0  0
  121.7968  104.9872  106.8547 N   0  0  0  0  0  0  0  0  0  0  0  0
  121.8506  106.3319  104.9652 O   0  0  0  0  0  0  0  0  0  0  0  0
  126.6678  105.7923  108.8789 Cl  0  0  0  0  0  0  0  0  0  0  0  0
  124.2277  104.9622  107.6904 H   0  0  0  0  0  0  0  0  0  0  0  0
  123.2130  108.5236  105.5239 H   0  0  0  0  0  0  0  0  0  0  0  0
  116.0259  106.6013  104.3641 H   0  0  0  0  0  0  0  0  0  0  0  0
  117.7682  106.7930  104.5393 H   0  0  0  0  0  0  0  0  0  0  0  0
  119.3321  104.8381  103.4023 H   0  0  0  0  0  0  0  0  0  0  0  0
  118.4799  103.5340  102.5798 H   0  0  0  0  0  0  0  0  0  0  0  0
  116.8525  105.9467  106.6256 H   0  0  0  0  0  0  0  0  0  0  0  0
  115.9992  104.6432  105.8037 H   0  0  0  0  0  0  0  0  0  0  0  0
  117.5631  102.6875  104.6658 H   0  0  0  0  0  0  0  0  0  0  0  0
  119.3054  102.8789  104.8408 H   0  0  0  0  0  0  0  0  0  0  0  0
  117.4061  105.8264  102.3783 H   0  0  0  0  0  0  0  0  0  0  0  0
  117.9254  103.6537  106.8267 H   0  0  0  0  0  0  0  0  0  0  0  0
  115.6818  103.6799  103.6984 H   0  0  0  0  0  0  0  0  0  0  0  0
  116.1081  103.7731  101.9789 H   0  0  0  0  0  0  0  0  0  0  0  0
  115.0992  105.0349  102.7124 H   0  0  0  0  0  0  0  0  0  0  0  0
  119.2116  105.6657  107.2567 H   0  0  0  0  0  0  0  0  0  0  0  0
  119.5780  105.8706  105.5424 H   0  0  0  0  0  0  0  0  0  0  0  0
  120.4473  103.5182  107.3045 H   0  0  0  0  0  0  0  0  0  0  0  0
  120.8461  103.6796  105.5849 H   0  0  0  0  0  0  0  0  0  0  0  0
  128.0494  110.1549  107.3911 H   0  0  0  0  0  0  0  0  0  0  0  0
  127.0357  110.3962  108.6416 H   0  0  0  0  0  0  0  0  0  0  0  0
  127.5904  108.1099  108.4700 H   0  0  0  0  0  0  0  0  0  0  0  0
  122.2850  104.7190  107.7075 H   0  0  0  0  0  0  0  0  0  0  0  0
  1  3  1  0  0  0  0
  1  4  2  0  0  0  0
  2  3  2  0  0  0  0
  2 16  1  0  0  0  0
  3  6  1  0  0  0  0
  4  5  1  0  0  0  0
  4 21  1  0  0  0  0
  5 16  2  0  0  0  0
  5 18  1  0  0  0  0
  6 19  1  0  0  0  0
  6 20  2  0  0  0  0
  7  9  1  0  0  0  0
  7 11  1  0  0  0  0
  8 10  1  0  0  0  0
  8 11  1  0  0  0  0
  9 12  1  0  0  0  0
 10 12  1  0  0  0  0
 11 13  1  0  0  0  0
 12 14  1  0  0  0  0
 14 15  1  0  0  0  0
 15 19  1  0  0  0  0
 17 18  1  0  0  0  0
  1 22  1  0  0  0  0
  2 23  1  0  0  0  0
  7 24  1  0  0  0  0
  7 25  1  0  0  0  0
  8 26  1  0  0  0  0
  8 27  1  0  0  0  0
  9 28  1  0  0  0  0
  9 29  1  0  0  0  0
 10 30  1  0  0  0  0
 10 31  1  0  0  0  0
 11 32  1  0  0  0  0
 12 33  1  0  0  0  0
 13 34  1  0  0  0  0
 13 35  1  0  0  0  0
 13 36  1  0  0  0  0
 14 37  1  0  0  0  0
 14 38  1  0  0  0  0
 15 39  1  0  0  0  0
 15 40  1  0  0  0  0
 17 41  1  0  0  0  0
 17 42  1  0  0  0  0
 18 43  1  0  0  0  0
 19 44  1  0  0  0  0
M  END
> <FRED Chemgauss4 score>
-13.694017

$$$$
C91468339	P143138873
  -OEChem-05122015313D

 45 47  0     1  0  0  0  0  0999 V2000
  127.3434  104.0802  108.7914 C   0  0  0  0  0  0  0  0  0  0  0  0
  126.0929  104.5949  108.4059 C   0  0  0  0  0  0  0  0  0  0  0  0
  126.0701  105.8641  108.9342 C   0  0  0  0  0  0  0  0  0  0  0  0
  122.0078  105.1113  105.6754 C   0  0  0  0  0  0  0  0  0  0  0  0
  115.6766  103.7738  106.0238 C   0  0  0  0  0  0  0  0  0  0  0  0
  124.9623  104.0180  107.6383 C   0  0  0  0  0  0  0  0  0  0  0  0
  124.9799  106.8583  108.8030 C   0  0  0  0  0  0  0  0  0  0  0  0
  123.7003  106.1515  108.3100 C   0  0  0  0  0  0  0  0  0  0  0  0
  119.8581  104.2323  106.5491 C   0  0  0  0  0  0  0  0  0  0  0  0
  120.0429  105.0293  104.1781 C   0  0  0  0  0  0  0  0  0  0  0  0
  118.5198  103.5878  106.1839 C   0  0  0  0  0  0  0  0  0  0  0  0
  118.6978  104.3593  103.8925 C   0  0  0  0  0  0  0  0  0  0  0  0
  120.7720  104.3397  105.3300 C   0  0  0  0  0  0  0  0  0  0  0  0
  123.9845  105.1292  107.1813 C   0  0  2  0  0  0  0  0  0  0  0  0
  116.5561  103.7267  104.7956 C   0  0  0  0  0  0  0  0  0  0  0  0
  128.0611  104.9567  109.5043 N   0  0  0  0  0  0  0  0  0  0  0  0
  127.2584  106.0368  109.5738 N   0  0  0  0  0  0  0  0  0  0  0  0
  117.8575  104.3227  105.0975 N   0  0  0  0  0  0  0  0  0  0  0  0
  115.2704  102.5194  106.4255 N   0  0  0  0  0  0  0  0  0  0  0  0
  122.7557  104.5499  106.6927 N   0  0  0  0  0  0  0  0  0  0  0  0
  122.2678  106.1410  105.0640 O   0  0  0  0  0  0  0  0  0  0  0  0
  115.3927  104.8067  106.6243 O   0  0  0  0  0  0  0  0  0  0  0  0
  127.7663  103.1077  108.5842 H   0  0  0  0  0  0  0  0  0  0  0  0
  125.3715  103.5229  106.7506 H   0  0  0  0  0  0  0  0  0  0  0  0
  124.4424  103.2592  108.2310 H   0  0  0  0  0  0  0  0  0  0  0  0
  124.7926  107.3189  109.7797 H   0  0  0  0  0  0  0  0  0  0  0  0
  125.2557  107.6568  108.1062 H   0  0  0  0  0  0  0  0  0  0  0  0
  123.2089  105.6655  109.1544 H   0  0  0  0  0  0  0  0  0  0  0  0
  123.0104  106.9050  107.9205 H   0  0  0  0  0  0  0  0  0  0  0  0
  119.6801  105.2144  106.9858 H   0  0  0  0  0  0  0  0  0  0  0  0
  120.3506  103.6176  107.3042 H   0  0  0  0  0  0  0  0  0  0  0  0
  120.6646  104.9735  103.2819 H   0  0  0  0  0  0  0  0  0  0  0  0
  119.8813  106.0842  104.4031 H   0  0  0  0  0  0  0  0  0  0  0  0
  118.7147  102.5564  105.8682 H   0  0  0  0  0  0  0  0  0  0  0  0
  117.8761  103.5384  107.0709 H   0  0  0  0  0  0  0  0  0  0  0  0
  118.1842  104.8747  103.0710 H   0  0  0  0  0  0  0  0  0  0  0  0
  118.8971  103.3356  103.5514 H   0  0  0  0  0  0  0  0  0  0  0  0
  121.0941  103.3572  105.0210 H   0  0  0  0  0  0  0  0  0  0  0  0
  124.4237  105.6493  106.3264 H   0  0  0  0  0  0  0  0  0  0  0  0
  116.1082  104.2903  103.9727 H   0  0  0  0  0  0  0  0  0  0  0  0
  116.7098  102.6866  104.4956 H   0  0  0  0  0  0  0  0  0  0  0  0
  127.5892  106.8510  110.0766 H   0  0  0  0  0  0  0  0  0  0  0  0
  115.5596  101.6902  105.9174 H   0  0  0  0  0  0  0  0  0  0  0  0
  114.6753  102.3738  107.2348 H   0  0  0  0  0  0  0  0  0  0  0  0
  122.4250  103.6886  107.1171 H   0  0  0  0  0  0  0  0  0  0  0  0
  1  2  1  0  0  0  0
  1 16  2  0  0  0  0
  2  3  2  0  0  0  0
  2  6  1  0  0  0  0
  3  7  1  0  0  0  0
  3 17  1  0  0  0  0
  4 13  1  0  0  0  0
  4 20  1  0  0  0  0
  4 21  2  0  0  0  0
  5 15  1  0  0  0  0
  5 19  1  0  0  0  0
  5 22  2  0  0  0  0
  6 14  1  0  0  0  0
  7  8  1  0  0  0  0
  8 14  1  0  0  0  0
  9 11  1  0  0  0  0
  9 13  1  0  0  0  0
 10 12  1  0  0  0  0
 10 13  1  0  0  0  0
 11 18  1  0  0  0  0
 12 18  1  0  0  0  0
 14 20  1  0  0  0  0
 15 18  1  0  0  0  0
 16 17  1  0  0  0  0
  1 23  1  0  0  0  0
  6 24  1  0  0  0  0
  6 25  1  0  0  0  0
  7 26  1  0  0  0  0
  7 27  1  0  0  0  0
  8 28  1  0  0  0  0
  8 29  1  0  0  0  0
  9 30  1  0  0  0  0
  9 31  1  0  0  0  0
 10 32  1  0  0  0  0
 10 33  1  0  0  0  0
 11 34  1  0  0  0  0
 11 35  1  0  0  0  0
 12 36  1  0  0  0  0
 12 37  1  0  0  0  0
 13 38  1  0  0  0  0
 14 39  1  0  0  0  0
 15 40  1  0  0  0  0
 15 41  1  0  0  0  0
 17 42  1  0  0  0  0
 19 43  1  0  0  0  0
 19 44  1  0  0  0  0
 20 45  1  0  0  0  0
M  END
> <FRED Chemgauss4 score>
-13.488708

$$$$
cmpd14b_JGP2019	P10000040
  -OEChem-05122015313D

 38 39  0     1  0  0  0  0  0999 V2000
  118.4980  103.8930  105.9296 C   0  0  0  0  0  0  0  0  0  0  0  0
  118.4523  106.1989  106.6493 C   0  0  0  0  0  0  0  0  0  0  0  0
  121.3999  104.1054  105.9776 C   0  0  0  0  0  0  0  0  0  0  0  0
  121.1155  105.7450  107.7290 C   0  0  0  0  0  0  0  0  0  0  0  0
  117.1321  103.9522  105.6531 C   0  0  0  0  0  0  0  0  0  0  0  0
  117.0864  106.2581  106.3727 C   0  0  0  0  0  0  0  0  0  0  0  0
  122.7656  104.0461  106.2548 C   0  0  0  0  0  0  0  0  0  0  0  0
  122.4812  105.6858  108.0063 C   0  0  0  0  0  0  0  0  0  0  0  0
  119.1581  105.0164  106.4278 C   0  0  0  0  0  0  0  0  0  0  0  0
  120.5748  104.9549  106.7146 C   0  0  0  0  0  0  0  0  0  0  0  0
  116.4263  105.1347  105.8747 C   0  0  0  0  0  0  0  0  0  0  0  0
  123.3063  104.8363  107.2691 C   0  0  0  0  0  0  0  0  0  0  0  0
  124.6457  109.1381  108.4978 C   0  0  0  0  0  0  0  0  0  0  0  0
  125.2093  107.3568  106.7196 C   0  0  0  0  0  0  0  0  0  0  0  0
  125.4959  107.9134  108.1173 C   0  0  1  0  0  0  0  0  0  0  0  0
  125.6526  105.9717  106.5852 N   0  0  0  0  0  0  0  0  0  0  0  0
  126.9632  108.2023  108.2016 N   0  3  0  0  0  0  0  0  0  0  0  0
  124.7343  110.1442  107.7416 O   0  5  0  0  0  0  0  0  0  0  0  0
  123.9502  108.9835  109.5438 O   0  0  0  0  0  0  0  0  0  0  0  0
  125.2317  105.1705  108.9987 O   0  0  0  0  0  0  0  0  0  0  0  0
  125.5021  103.4606  107.1746 O   0  0  0  0  0  0  0  0  0  0  0  0
  115.1146  105.1915  105.6091 F   0  0  0  0  0  0  0  0  0  0  0  0
  125.0369  104.7596  107.6213 S   0  0  0  0  0  0  0  0  0  0  0  0
  119.0343  102.9639  105.7518 H   0  0  0  0  0  0  0  0  0  0  0  0
  118.9525  107.0831  107.0371 H   0  0  0  0  0  0  0  0  0  0  0  0
  120.9935  103.4835  105.1835 H   0  0  0  0  0  0  0  0  0  0  0  0
  120.4858  106.4126  108.3126 H   0  0  0  0  0  0  0  0  0  0  0  0
  116.6179  103.0777  105.2655 H   0  0  0  0  0  0  0  0  0  0  0  0
  116.5362  107.1785  106.5449 H   0  0  0  0  0  0  0  0  0  0  0  0
  123.3998  103.3812  105.6745 H   0  0  0  0  0  0  0  0  0  0  0  0
  122.8926  106.3056  108.7981 H   0  0  0  0  0  0  0  0  0  0  0  0
  125.7245  107.9609  105.9638 H   0  0  0  0  0  0  0  0  0  0  0  0
  124.1368  107.4087  106.4979 H   0  0  0  0  0  0  0  0  0  0  0  0
  125.3050  107.1379  108.8702 H   0  0  0  0  0  0  0  0  0  0  0  0
  125.9959  105.6868  105.6552 H   0  0  0  0  0  0  0  0  0  0  0  0
  127.5007  107.3532  108.0236 H   0  0  0  0  0  0  0  0  0  0  0  0
  127.2004  108.5514  109.1310 H   0  0  0  0  0  0  0  0  0  0  0  0
  127.2242  108.9065  107.5104 H   0  0  0  0  0  0  0  0  0  0  0  0
  1  5  1  0  0  0  0
  1  9  2  0  0  0  0
  2  6  2  0  0  0  0
  2  9  1  0  0  0  0
  3  7  2  0  0  0  0
  3 10  1  0  0  0  0
  4  8  1  0  0  0  0
  4 10  2  0  0  0  0
  5 11  2  0  0  0  0
  6 11  1  0  0  0  0
  7 12  1  0  0  0  0
  8 12  2  0  0  0  0
  9 10  1  0  0  0  0
 11 22  1  0  0  0  0
 12 23  1  0  0  0  0
 13 15  1  0  0  0  0
 13 18  1  0  0  0  0
 13 19  2  0  0  0  0
 14 15  1  0  0  0  0
 14 16  1  0  0  0  0
 15 17  1  0  0  0  0
 16 23  1  0  0  0  0
 20 23  2  0  0  0  0
 21 23  2  0  0  0  0
  1 24  1  0  0  0  0
  2 25  1  0  0  0  0
  3 26  1  0  0  0  0
  4 27  1  0  0  0  0
  5 28  1  0  0  0  0
  6 29  1  0  0  0  0
  7 30  1  0  0  0  0
  8 31  1  0  0  0  0
 14 32  1  0  0  0  0
 14 33  1  0  0  0  0
 15 34  1  0  0  0  0
 16 35  1  0  0  0  0
 17 36  1  0  0  0  0
 17 37  1  0  0  0  0
 17 38  1  0  0  0  0
M  CHG  2  17   1  18  -1
M  END
> <FRED Chemgauss4 score>
-13.293245

$$$$
5C_CG2012	P10000008
  -OEChem-05122015313D

 36 37  0     1  0  0  0  0  0999 V2000
  116.6514  105.2871  102.8593 C   0  0  0  0  0  0  0  0  0  0  0  0
  117.1961  106.5085  103.2557 C   0  0  0  0  0  0  0  0  0  0  0  0
  117.2899  104.0949  103.2010 C   0  0  0  0  0  0  0  0  0  0  0  0
  118.3793  106.5377  103.9937 C   0  0  0  0  0  0  0  0  0  0  0  0
  118.4732  104.1242  103.9390 C   0  0  0  0  0  0  0  0  0  0  0  0
  120.5584  104.3220  105.9591 C   0  0  0  0  0  0  0  0  0  0  0  0
  121.1148  106.4602  104.9814 C   0  0  0  0  0  0  0  0  0  0  0  0
  121.7415  104.3516  106.6972 C   0  0  0  0  0  0  0  0  0  0  0  0
  122.2980  106.4898  105.7196 C   0  0  0  0  0  0  0  0  0  0  0  0
  119.0179  105.3456  104.3354 C   0  0  0  0  0  0  0  0  0  0  0  0
  120.2450  105.3763  105.1011 C   0  0  0  0  0  0  0  0  0  0  0  0
  122.6113  105.4355  106.5776 C   0  0  0  0  0  0  0  0  0  0  0  0
  123.8707  105.4670  107.3633 C   0  0  0  0  0  0  0  0  0  0  0  0
  124.6462  109.1097  107.9263 C   0  0  0  0  0  0  0  0  0  0  0  0
  125.7977  106.8243  107.5060 C   0  0  0  0  0  0  0  0  0  0  0  0
  125.7716  108.3246  107.2305 C   0  0  2  0  0  0  0  0  0  0  0  0
  127.1348  108.8682  107.5293 N   0  3  0  0  0  0  0  0  0  0  0  0
  124.9083  110.3035  108.2414 O   0  5  0  0  0  0  0  0  0  0  0  0
  123.9916  104.9361  108.4564 O   0  0  0  0  0  0  0  0  0  0  0  0
  123.5843  108.4495  108.1189 O   0  0  0  0  0  0  0  0  0  0  0  0
  124.8375  106.1559  106.6970 O   0  0  0  0  0  0  0  0  0  0  0  0
  115.7292  105.2645  102.2861 H   0  0  0  0  0  0  0  0  0  0  0  0
  116.6982  107.4367  102.9912 H   0  0  0  0  0  0  0  0  0  0  0  0
  116.8656  103.1435  102.8938 H   0  0  0  0  0  0  0  0  0  0  0  0
  118.7913  107.4979  104.2955 H   0  0  0  0  0  0  0  0  0  0  0  0
  118.9593  103.1867  104.1985 H   0  0  0  0  0  0  0  0  0  0  0  0
  119.8906  103.4702  106.0632 H   0  0  0  0  0  0  0  0  0  0  0  0
  120.8845  107.2896  104.3169 H   0  0  0  0  0  0  0  0  0  0  0  0
  121.9759  103.5248  107.3628 H   0  0  0  0  0  0  0  0  0  0  0  0
  122.9686  107.3393  105.6188 H   0  0  0  0  0  0  0  0  0  0  0  0
  125.5663  106.6166  108.5565 H   0  0  0  0  0  0  0  0  0  0  0  0
  126.7847  106.4039  107.2863 H   0  0  0  0  0  0  0  0  0  0  0  0
  125.6363  108.4760  106.1525 H   0  0  0  0  0  0  0  0  0  0  0  0
  127.3310  108.7988  108.5284 H   0  0  0  0  0  0  0  0  0  0  0  0
  127.1915  109.8489  107.2517 H   0  0  0  0  0  0  0  0  0  0  0  0
  127.8443  108.3415  107.0185 H   0  0  0  0  0  0  0  0  0  0  0  0
  1  2  1  0  0  0  0
  1  3  2  0  0  0  0
  2  4  2  0  0  0  0
  3  5  1  0  0  0  0
  4 10  1  0  0  0  0
  5 10  2  0  0  0  0
  6  8  2  0  0  0  0
  6 11  1  0  0  0  0
  7  9  1  0  0  0  0
  7 11  2  0  0  0  0
  8 12  1  0  0  0  0
  9 12  2  0  0  0  0
 10 11  1  0  0  0  0
 12 13  1  0  0  0  0
 13 19  2  0  0  0  0
 13 21  1  0  0  0  0
 14 16  1  0  0  0  0
 14 18  1  0  0  0  0
 14 20  2  0  0  0  0
 15 16  1  0  0  0  0
 15 21  1  0  0  0  0
 16 17  1  0  0  0  0
  1 22  1  0  0  0  0
  2 23  1  0  0  0  0
  3 24  1  0  0  0  0
  4 25  1  0  0  0  0
  5 26  1  0  0  0  0
  6 27  1  0  0  0  0
  7 28  1  0  0  0  0
  8 29  1  0  0  0  0
  9 30  1  0  0  0  0
 15 31  1  0  0  0  0
 15 32  1  0  0  0  0
 16 33  1  0  0  0  0
 17 34  1  0  0  0  0
 17 35  1  0  0  0  0
 17 36  1  0  0  0  0
M  CHG  2  17   1  18  -1
M  END
> <FRED Chemgauss4 score>
-13.168388

$$$$
Y-4-FBP	P10000005
  -OEChem-05122015313D

 40 42  0     1  0  0  0  0  0999 V2000
  116.0851  104.9663  105.8406 C   0  0  0  0  0  0  0  0  0  0  0  0
  116.7440  106.1134  106.2827 C   0  0  0  0  0  0  0  0  0  0  0  0
  116.7954  103.7792  105.6617 C   0  0  0  0  0  0  0  0  0  0  0  0
  118.1133  106.0735  106.5458 C   0  0  0  0  0  0  0  0  0  0  0  0
  118.1646  103.7393  105.9248 C   0  0  0  0  0  0  0  0  0  0  0  0
  121.0654  103.9696  105.9305 C   0  0  0  0  0  0  0  0  0  0  0  0
  120.7913  105.6816  107.6130 C   0  0  0  0  0  0  0  0  0  0  0  0
  122.4346  103.9301  106.1937 C   0  0  0  0  0  0  0  0  0  0  0  0
  122.1605  105.6421  107.8762 C   0  0  0  0  0  0  0  0  0  0  0  0
  118.8236  104.8864  106.3669 C   0  0  0  0  0  0  0  0  0  0  0  0
  120.2437  104.8454  106.6401 C   0  0  0  0  0  0  0  0  0  0  0  0
  122.9822  104.7663  107.1666 C   0  0  0  0  0  0  0  0  0  0  0  0
  125.0348  109.2887  108.1545 C   0  0  0  0  0  0  0  0  0  0  0  0
  124.8283  107.1745  106.8800 C   0  0  0  0  0  0  0  0  0  0  0  0
  126.4849  106.0668  108.1679 C   0  0  0  0  0  0  0  0  0  0  0  0
  125.7922  108.2608  107.3415 C   0  0  2  0  0  0  0  0  0  0  0  0
  124.9876  106.0693  107.9196 C   0  0  2  0  0  0  0  0  0  0  0  0
  124.4616  104.7239  107.4509 C   0  0  0  0  0  0  0  0  0  0  0  0
  126.8466  107.5216  108.1249 N   0  3  0  0  0  0  0  0  0  0  0  0
  124.4213  108.8351  109.1600 O   0  5  0  0  0  0  0  0  0  0  0  0
  125.1151  110.4718  107.7197 O   0  0  0  0  0  0  0  0  0  0  0  0
  115.0186  104.9971  105.6374 H   0  0  0  0  0  0  0  0  0  0  0  0
  116.1908  107.0373  106.4237 H   0  0  0  0  0  0  0  0  0  0  0  0
  116.2827  102.8852  105.3188 H   0  0  0  0  0  0  0  0  0  0  0  0
  118.6126  106.9762  106.8901 H   0  0  0  0  0  0  0  0  0  0  0  0
  118.7050  102.8066  105.7813 H   0  0  0  0  0  0  0  0  0  0  0  0
  120.6537  103.3119  105.1686 H   0  0  0  0  0  0  0  0  0  0  0  0
  120.1638  106.3693  108.1750 H   0  0  0  0  0  0  0  0  0  0  0  0
  123.0674  103.2454  105.6353 H   0  0  0  0  0  0  0  0  0  0  0  0
  122.5786  106.2969  108.6364 H   0  0  0  0  0  0  0  0  0  0  0  0
  123.7894  107.5148  106.8086 H   0  0  0  0  0  0  0  0  0  0  0  0
  125.1275  106.8154  105.8869 H   0  0  0  0  0  0  0  0  0  0  0  0
  126.7727  105.6680  109.1441 H   0  0  0  0  0  0  0  0  0  0  0  0
  127.0503  105.5755  107.3693 H   0  0  0  0  0  0  0  0  0  0  0  0
  126.2864  108.7518  106.4975 H   0  0  0  0  0  0  0  0  0  0  0  0
  124.4639  106.3560  108.8410 H   0  0  0  0  0  0  0  0  0  0  0  0
  124.6684  103.9581  108.2094 H   0  0  0  0  0  0  0  0  0  0  0  0
  125.0004  104.4069  106.5487 H   0  0  0  0  0  0  0  0  0  0  0  0
  126.9073  107.8969  109.0815 H   0  0  0  0  0  0  0  0  0  0  0  0
  127.7772  107.6508  107.7047 H   0  0  0  0  0  0  0  0  0  0  0  0
  1  2  1  0  0  0  0
  1  3  2  0  0  0  0
  2  4  2  0  0  0  0
  3  5  1  0  0  0  0
  4 10  1  0  0  0  0
  5 10  2  0  0  0  0
  6  8  2  0  0  0  0
  6 11  1  0  0  0  0
  7  9  1  0  0  0  0
  7 11  2  0  0  0  0
  8 12  1  0  0  0  0
  9 12  2  0  0  0  0
 10 11  1  0  0  0  0
 12 18  1  0  0  0  0
 13 16  1  0  0  0  0
 13 20  1  0  0  0  0
 13 21  2  0  0  0  0
 14 16  1  0  0  0  0
 14 17  1  0  0  0  0
 15 17  1  0  0  0  0
 15 19  1  0  0  0  0
 16 19  1  0  0  0  0
 17 18  1  0  0  0  0
  1 22  1  0  0  0  0
  2 23  1  0  0  0  0
  3 24  1  0  0  0  0
  4 25  1  0  0  0  0
  5 26  1  0  0  0  0
  6 27  1  0  0  0  0
  7 28  1  0  0  0  0
  8 29  1  0  0  0  0
  9 30  1  0  0  0  0
 14 31  1  0  0  0  0
 14 32  1  0  0  0  0
 15 33  1  0  0  0  0
 15 34  1  0  0  0  0
 16 35  1  0  0  0  0
 17 36  1  0  0  0  0
 18 37  1  0  0  0  0
 18 38  1  0  0  0  0
 19 39  1  0  0  0  0
 19 40  1  0  0  0  0
M  CHG  2  19   1  20  -1
M  END
> <FRED Chemgauss4 score>
-13.091598

$$$$
C31369265	P118184606
  -OEChem-05122015313D

 49 51  0     1  0  0  0  0  0999 V2000
  116.9802  104.1697  102.5654 C   0  0  0  0  0  0  0  0  0  0  0  0
  115.7938  104.8196  102.2968 C   0  0  0  0  0  0  0  0  0  0  0  0
  117.4181  104.3838  103.9067 C   0  0  0  0  0  0  0  0  0  0  0  0
  116.5331  105.1856  104.5980 C   0  0  0  0  0  0  0  0  0  0  0  0
  125.2044  105.6397  108.3747 C   0  0  0  0  0  0  0  0  0  0  0  0
  125.5528  105.7841  107.0770 C   0  0  0  0  0  0  0  0  0  0  0  0
  126.0244  106.3608  109.3991 C   0  0  0  0  0  0  0  0  0  0  0  0
  127.2986  107.1848  107.5265 C   0  0  0  0  0  0  0  0  0  0  0  0
  122.7648  105.4224  108.3600 C   0  0  0  0  0  0  0  0  0  0  0  0
  118.6459  103.8172  104.5541 C   0  0  0  0  0  0  0  0  0  0  0  0
  116.7328  105.6086  106.0158 C   0  0  0  0  0  0  0  0  0  0  0  0
  117.8454  104.7613  106.6648 C   0  0  0  0  0  0  0  0  0  0  0  0
  124.8318  105.0812  105.9563 C   0  0  0  0  0  0  0  0  0  0  0  0
  128.4579  108.0464  107.1176 C   0  0  0  0  0  0  0  0  0  0  0  0
  121.3120  103.8629  105.5021 C   0  0  0  0  0  0  0  0  0  0  0  0
  124.0598  104.8506  108.9039 C   0  0  0  0  0  0  0  0  0  0  0  0
  120.4490  104.7728  107.7229 C   0  0  0  0  0  0  0  0  0  0  0  0
  120.1244  103.9851  106.4517 C   0  0  1  0  0  0  0  0  0  0  0  0
  126.6033  106.5603  106.6316 N   0  0  0  0  0  0  0  0  0  0  0  0
  127.0527  107.1154  108.8760 N   0  0  0  0  0  0  0  0  0  0  0  0
  118.9994  104.6084  105.7543 N   0  0  1  0  0  0  0  0  0  0  0  0
  121.7713  104.4671  108.2194 N   0  0  0  0  0  0  0  0  0  0  0  0
  125.7874  106.2728  110.6006 O   0  0  0  0  0  0  0  0  0  0  0  0
  122.6442  106.6154  108.0862 O   0  0  0  0  0  0  0  0  0  0  0  0
  115.2091  105.6821  103.6575 S   0  0  0  0  0  0  0  0  0  0  0  0
  117.5046  103.5681  101.8341 H   0  0  0  0  0  0  0  0  0  0  0  0
  115.2420  104.8276  101.3674 H   0  0  0  0  0  0  0  0  0  0  0  0
  118.4564  102.7677  104.8147 H   0  0  0  0  0  0  0  0  0  0  0  0
  119.4767  103.8473  103.8392 H   0  0  0  0  0  0  0  0  0  0  0  0
  117.0218  106.6671  106.0345 H   0  0  0  0  0  0  0  0  0  0  0  0
  115.8079  105.5024  106.5937 H   0  0  0  0  0  0  0  0  0  0  0  0
  118.1519  105.2618  107.5916 H   0  0  0  0  0  0  0  0  0  0  0  0
  117.4492  103.7758  106.9458 H   0  0  0  0  0  0  0  0  0  0  0  0
  124.0182  105.7091  105.6070 H   0  0  0  0  0  0  0  0  0  0  0  0
  124.4398  104.1368  106.3213 H   0  0  0  0  0  0  0  0  0  0  0  0
  125.5294  104.8945  105.1456 H   0  0  0  0  0  0  0  0  0  0  0  0
  128.1101  109.0615  106.9428 H   0  0  0  0  0  0  0  0  0  0  0  0
  128.9007  107.6496  106.2070 H   0  0  0  0  0  0  0  0  0  0  0  0
  129.2049  108.0467  107.9080 H   0  0  0  0  0  0  0  0  0  0  0  0
  121.6701  104.8423  105.1665 H   0  0  0  0  0  0  0  0  0  0  0  0
  122.1518  103.3648  105.9994 H   0  0  0  0  0  0  0  0  0  0  0  0
  121.0456  103.2736  104.6186 H   0  0  0  0  0  0  0  0  0  0  0  0
  124.0240  104.9166  109.9959 H   0  0  0  0  0  0  0  0  0  0  0  0
  124.1851  103.7982  108.6333 H   0  0  0  0  0  0  0  0  0  0  0  0
  119.7191  104.5393  108.5062 H   0  0  0  0  0  0  0  0  0  0  0  0
  120.3826  105.8483  107.5255 H   0  0  0  0  0  0  0  0  0  0  0  0
  119.8197  102.9738  106.7458 H   0  0  0  0  0  0  0  0  0  0  0  0
  127.6492  107.6382  109.5106 H   0  0  0  0  0  0  0  0  0  0  0  0
  121.9820  103.5078  108.4771 H   0  0  0  0  0  0  0  0  0  0  0  0
  1  2  2  0  0  0  0
  1  3  1  0  0  0  0
  2 25  1  0  0  0  0
  3  4  2  0  0  0  0
  3 10  1  0  0  0  0
  4 11  1  0  0  0  0
  4 25  1  0  0  0  0
  5  6  2  0  0  0  0
  5  7  1  0  0  0  0
  5 16  1  0  0  0  0
  6 13  1  0  0  0  0
  6 19  1  0  0  0  0
  7 20  1  0  0  0  0
  7 23  2  0  0  0  0
  8 14  1  0  0  0  0
  8 19  2  0  0  0  0
  8 20  1  0  0  0  0
  9 16  1  0  0  0  0
  9 22  1  0  0  0  0
  9 24  2  0  0  0  0
 10 21  1  0  0  0  0
 11 12  1  0  0  0  0
 12 21  1  0  0  0  0
 15 18  1  0  0  0  0
 17 18  1  0  0  0  0
 17 22  1  0  0  0  0
 18 21  1  0  0  0  0
  1 26  1  0  0  0  0
  2 27  1  0  0  0  0
 10 28  1  0  0  0  0
 10 29  1  0  0  0  0
 11 30  1  0  0  0  0
 11 31  1  0  0  0  0
 12 32  1  0  0  0  0
 12 33  1  0  0  0  0
 13 34  1  0  0  0  0
 13 35  1  0  0  0  0
 13 36  1  0  0  0  0
 14 37  1  0  0  0  0
 14 38  1  0  0  0  0
 14 39  1  0  0  0  0
 15 40  1  0  0  0  0
 15 41  1  0  0  0  0
 15 42  1  0  0  0  0
 16 43  1  0  0  0  0
 16 44  1  0  0  0  0
 17 45  1  0  0  0  0
 17 46  1  0  0  0  0
 18 47  1  0  0  0  0
 20 48  1  0  0  0  0
 22 49  1  0  0  0  0
M  END
> <FRED Chemgauss4 score>
-12.928673

$$$$
C92781676	P145255482
  -OEChem-05122015313D

 38 40  0     1  0  0  0  0  0999 V2000
  117.2083  103.9606  105.0563 C   0  0  0  0  0  0  0  0  0  0  0  0
  116.1385  104.3955  104.3053 C   0  0  0  0  0  0  0  0  0  0  0  0
  117.4391  106.2668  105.2308 C   0  0  0  0  0  0  0  0  0  0  0  0
  127.7833  107.2151  107.4003 C   0  0  0  0  0  0  0  0  0  0  0  0
  117.9617  105.0445  105.5926 C   0  0  0  0  0  0  0  0  0  0  0  0
  125.9169  106.4923  106.7100 C   0  0  0  0  0  0  0  0  0  0  0  0
  125.7462  106.7355  108.0515 C   0  0  0  0  0  0  0  0  0  0  0  0
  122.4068  105.3259  105.9674 C   0  0  0  0  0  0  0  0  0  0  0  0
  124.8150  105.9878  105.8589 C   0  0  0  0  0  0  0  0  0  0  0  0
  124.5033  106.5027  108.8190 C   0  0  0  0  0  0  0  0  0  0  0  0
  123.6680  105.4587  106.7601 C   0  0  1  0  0  0  0  0  0  0  0  0
  120.0376  102.5253  105.9187 C   0  0  0  0  0  0  0  0  0  0  0  0
  119.1889  104.8716  106.4550 C   0  0  0  0  0  0  0  0  0  0  0  0
  120.2934  104.0273  105.7935 C   0  0  1  0  0  0  0  0  0  0  0  0
  127.1843  106.7955  106.3026 N   0  0  0  0  0  0  0  0  0  0  0  0
  126.9492  107.1961  108.4915 N   0  0  0  0  0  0  0  0  0  0  0  0
  123.3526  106.3584  107.8944 N   0  0  0  0  0  0  0  0  0  0  0  0
  121.5645  104.3254  106.4136 N   0  0  0  0  0  0  0  0  0  0  0  0
  122.2073  106.0761  105.0191 O   0  0  0  0  0  0  0  0  0  0  0  0
  116.0456  106.1045  104.2488 S   0  0  0  0  0  0  0  0  0  0  0  0
  117.4361  102.9134  105.2106 H   0  0  0  0  0  0  0  0  0  0  0  0
  115.4075  103.7916  103.7865 H   0  0  0  0  0  0  0  0  0  0  0  0
  117.8064  107.2493  105.4929 H   0  0  0  0  0  0  0  0  0  0  0  0
  128.8101  107.5439  107.4761 H   0  0  0  0  0  0  0  0  0  0  0  0
  124.4623  106.8008  105.2122 H   0  0  0  0  0  0  0  0  0  0  0  0
  125.1746  105.1844  105.2057 H   0  0  0  0  0  0  0  0  0  0  0  0
  124.6044  105.5928  109.4221 H   0  0  0  0  0  0  0  0  0  0  0  0
  124.3062  107.3390  109.4975 H   0  0  0  0  0  0  0  0  0  0  0  0
  123.9217  104.4604  107.1521 H   0  0  0  0  0  0  0  0  0  0  0  0
  119.9506  102.2301  106.9707 H   0  0  0  0  0  0  0  0  0  0  0  0
  120.8479  101.9394  105.4704 H   0  0  0  0  0  0  0  0  0  0  0  0
  119.1021  102.2413  105.4260 H   0  0  0  0  0  0  0  0  0  0  0  0
  119.5847  105.8559  106.7392 H   0  0  0  0  0  0  0  0  0  0  0  0
  118.8685  104.4011  107.3950 H   0  0  0  0  0  0  0  0  0  0  0  0
  120.3735  104.2782  104.7294 H   0  0  0  0  0  0  0  0  0  0  0  0
  127.1888  107.4701  109.4354 H   0  0  0  0  0  0  0  0  0  0  0  0
  122.5596  105.9887  108.4190 H   0  0  0  0  0  0  0  0  0  0  0  0
  121.8523  103.7731  107.2158 H   0  0  0  0  0  0  0  0  0  0  0  0
  1  2  2  0  0  0  0
  1  5  1  0  0  0  0
  2 20  1  0  0  0  0
  3  5  2  0  0  0  0
  3 20  1  0  0  0  0
  4 15  2  0  0  0  0
  4 16  1  0  0  0  0
  5 13  1  0  0  0  0
  6  7  2  0  0  0  0
  6  9  1  0  0  0  0
  6 15  1  0  0  0  0
  7 10  1  0  0  0  0
  7 16  1  0  0  0  0
  8 11  1  0  0  0  0
  8 18  1  0  0  0  0
  8 19  2  0  0  0  0
  9 11  1  0  0  0  0
 10 17  1  0  0  0  0
 11 17  1  0  0  0  0
 12 14  1  0  0  0  0
 13 14  1  0  0  0  0
 14 18  1  0  0  0  0
  1 21  1  0  0  0  0
  2 22  1  0  0  0  0
  3 23  1  0  0  0  0
  4 24  1  0  0  0  0
  9 25  1  0  0  0  0
  9 26  1  0  0  0  0
 10 27  1  0  0  0  0
 10 28  1  0  0  0  0
 11 29  1  0  0  0  0
 12 30  1  0  0  0  0
 12 31  1  0  0  0  0
 12 32  1  0  0  0  0
 13 33  1  0  0  0  0
 13 34  1  0  0  0  0
 14 35  1  0  0  0  0
 16 36  1  0  0  0  0
 17 37  1  0  0  0  0
 18 38  1  0  0  0  0
M  END
> <FRED Chemgauss4 score>
-12.879845

$$$$
C90654700	P141782913
  -OEChem-05122015313D

 44 47  0     1  0  0  0  0  0999 V2000
  118.6103  107.2225  103.9354 C   0  0  0  0  0  0  0  0  0  0  0  0
  117.6428  106.2259  103.8171 C   0  0  0  0  0  0  0  0  0  0  0  0
  117.6373  105.9510  106.2158 C   0  0  0  0  0  0  0  0  0  0  0  0
  118.6164  106.9458  106.3457 C   0  0  0  0  0  0  0  0  0  0  0  0
  119.0851  107.5924  105.1967 C   0  0  0  0  0  0  0  0  0  0  0  0
  117.1533  105.5929  104.9572 C   0  0  0  0  0  0  0  0  0  0  0  0
  124.3482  108.7281  108.9997 C   0  0  0  0  0  0  0  0  0  0  0  0
  125.3573  107.6665  107.4084 C   0  0  0  0  0  0  0  0  0  0  0  0
  121.6144  107.3981  107.4466 C   0  0  0  0  0  0  0  0  0  0  0  0
  119.1301  107.3084  107.7114 C   0  0  0  0  0  0  0  0  0  0  0  0
  123.7886  110.2771  110.9671 C   0  0  0  0  0  0  0  0  0  0  0  0
  124.2807  108.9867  111.5509 C   0  0  0  0  0  0  0  0  0  0  0  0
  120.2399  109.1991  106.4892 C   0  0  0  0  0  0  0  0  0  0  0  0
  123.5739  108.9888  110.2257 C   0  0  0  0  0  0  0  0  0  0  0  0
  120.3471  108.2170  107.6442 C   0  0  2  0  0  0  0  0  0  0  0  0
  124.1932  106.2274  109.1717 C   0  0  0  0  0  0  0  0  0  0  0  0
  123.0024  105.6033  108.4639 C   0  0  0  0  0  0  0  0  0  0  0  0
  124.8310  109.6914  108.2694 N   0  0  0  0  0  0  0  0  0  0  0  0
  125.4742  109.0478  107.2566 N   0  0  0  0  0  0  0  0  0  0  0  0
  124.6035  107.4618  108.5580 N   0  0  0  0  0  0  0  0  0  0  0  0
  121.8561  106.4836  108.4540 N   0  0  0  0  0  0  0  0  0  0  0  0
  122.3084  107.5886  106.4548 O   0  0  0  0  0  0  0  0  0  0  0  0
  120.0434  108.5704  105.2184 O   0  0  0  0  0  0  0  0  0  0  0  0
  116.2213  104.6374  104.8452 F   0  0  0  0  0  0  0  0  0  0  0  0
  126.0261  106.5553  106.3708 S   0  0  0  0  0  0  0  0  0  0  0  0
  118.9862  107.7120  103.0408 H   0  0  0  0  0  0  0  0  0  0  0  0
  117.2700  105.9439  102.8369 H   0  0  0  0  0  0  0  0  0  0  0  0
  117.2503  105.4447  107.0967 H   0  0  0  0  0  0  0  0  0  0  0  0
  118.3233  107.8328  108.2393 H   0  0  0  0  0  0  0  0  0  0  0  0
  119.3593  106.3961  108.2759 H   0  0  0  0  0  0  0  0  0  0  0  0
  122.9406  110.7540  111.4435 H   0  0  0  0  0  0  0  0  0  0  0  0
  124.5255  110.9657  110.5718 H   0  0  0  0  0  0  0  0  0  0  0  0
  125.3488  108.8068  111.5488 H   0  0  0  0  0  0  0  0  0  0  0  0
  123.7631  108.5977  112.4193 H   0  0  0  0  0  0  0  0  0  0  0  0
  119.4157  109.9044  106.6555 H   0  0  0  0  0  0  0  0  0  0  0  0
  121.1577  109.7929  106.4100 H   0  0  0  0  0  0  0  0  0  0  0  0
  122.5657  108.5957  110.2066 H   0  0  0  0  0  0  0  0  0  0  0  0
  120.4796  108.7467  108.5784 H   0  0  0  0  0  0  0  0  0  0  0  0
  125.0579  105.5562  109.1662 H   0  0  0  0  0  0  0  0  0  0  0  0
  123.9358  106.4554  110.2107 H   0  0  0  0  0  0  0  0  0  0  0  0
  123.2518  105.3888  107.4201 H   0  0  0  0  0  0  0  0  0  0  0  0
  122.6961  104.6696  108.9464 H   0  0  0  0  0  0  0  0  0  0  0  0
  125.9543  109.5681  106.5334 H   0  0  0  0  0  0  0  0  0  0  0  0
  121.1966  106.4273  109.2242 H   0  0  0  0  0  0  0  0  0  0  0  0
  1  2  1  0  0  0  0
  1  5  2  0  0  0  0
  2  6  2  0  0  0  0
  3  4  2  0  0  0  0
  3  6  1  0  0  0  0
  4  5  1  0  0  0  0
  4 10  1  0  0  0  0
  5 23  1  0  0  0  0
  6 24  1  0  0  0  0
  7 14  1  0  0  0  0
  7 18  2  0  0  0  0
  7 20  1  0  0  0  0
  8 19  1  0  0  0  0
  8 20  1  0  0  0  0
  8 25  2  0  0  0  0
  9 15  1  0  0  0  0
  9 21  1  0  0  0  0
  9 22  2  0  0  0  0
 10 15  1  0  0  0  0
 11 12  1  0  0  0  0
 11 14  1  0  0  0  0
 12 14  1  0  0  0  0
 13 15  1  0  0  0  0
 13 23  1  0  0  0  0
 16 17  1  0  0  0  0
 16 20  1  0  0  0  0
 17 21  1  0  0  0  0
 18 19  1  0  0  0  0
  1 26  1  0  0  0  0
  2 27  1  0  0  0  0
  3 28  1  0  0  0  0
 10 29  1  0  0  0  0
 10 30  1  0  0  0  0
 11 31  1  0  0  0  0
 11 32  1  0  0  0  0
 12 33  1  0  0  0  0
 12 34  1  0  0  0  0
 13 35  1  0  0  0  0
 13 36  1  0  0  0  0
 14 37  1  0  0  0  0
 15 38  1  0  0  0  0
 16 39  1  0  0  0  0
 16 40  1  0  0  0  0
 17 41  1  0  0  0  0
 17 42  1  0  0  0  0
 19 43  1  0  0  0  0
 21 44  1  0  0  0  0
M  END
> <FRED Chemgauss4 score>
-12.804417

$$$$
C94263729	P147740637
  -OEChem-05122015313D

 31 33  0     1  0  0  0  0  0999 V2000
  125.0957  105.0137  107.1204 C   0  0  0  0  0  0  0  0  0  0  0  0
  125.8751  106.1364  106.8542 C   0  0  0  0  0  0  0  0  0  0  0  0
  117.0957  103.2838  106.3375 C   0  0  0  0  0  0  0  0  0  0  0  0
  116.2230  104.1529  104.5101 C   0  0  0  0  0  0  0  0  0  0  0  0
  123.8080  105.0399  106.5963 C   0  0  0  0  0  0  0  0  0  0  0  0
  117.8904  104.2828  105.8267 C   0  0  0  0  0  0  0  0  0  0  0  0
  123.3361  106.1182  105.8563 C   0  0  0  0  0  0  0  0  0  0  0  0
  125.3339  107.1768  106.1064 C   0  0  0  0  0  0  0  0  0  0  0  0
  121.7253  104.7291  105.9303 C   0  0  0  0  0  0  0  0  0  0  0  0
  119.2057  104.7991  106.3640 C   0  0  0  0  0  0  0  0  0  0  0  0
  120.4345  104.0325  105.7763 C   0  0  2  0  0  0  0  0  0  0  0  0
  117.3414  104.8200  104.6893 N   0  0  0  0  0  0  0  0  0  0  0  0
  124.0833  107.2181  105.5890 N   0  0  0  0  0  0  0  0  0  0  0  0
  122.0420  105.9116  105.4493 N   0  0  0  0  0  0  0  0  0  0  0  0
  116.0312  103.2124  105.4838 N   0  0  0  0  0  0  0  0  0  0  0  0
  122.7578  104.1635  106.6292 N   0  0  0  0  0  0  0  0  0  0  0  0
  126.1844  108.2910  105.8728 N   0  0  0  0  0  0  0  0  0  0  0  0
  120.4526  102.6696  106.3670 N   0  0  0  0  0  0  0  0  0  0  0  0
  125.4703  104.1774  107.6976 H   0  0  0  0  0  0  0  0  0  0  0  0
  126.8921  106.1839  107.2333 H   0  0  0  0  0  0  0  0  0  0  0  0
  117.1839  102.6385  107.1998 H   0  0  0  0  0  0  0  0  0  0  0  0
  115.5159  104.2994  103.7058 H   0  0  0  0  0  0  0  0  0  0  0  0
  119.1714  104.7180  107.4595 H   0  0  0  0  0  0  0  0  0  0  0  0
  119.2929  105.8736  106.1552 H   0  0  0  0  0  0  0  0  0  0  0  0
  120.2109  103.8610  104.7003 H   0  0  0  0  0  0  0  0  0  0  0  0
  115.2459  102.5795  105.5577 H   0  0  0  0  0  0  0  0  0  0  0  0
  122.7471  103.2617  107.0873 H   0  0  0  0  0  0  0  0  0  0  0  0
  127.0892  108.2956  106.2862 H   0  0  0  0  0  0  0  0  0  0  0  0
  125.8188  109.0757  105.3825 H   0  0  0  0  0  0  0  0  0  0  0  0
  121.2923  102.1607  106.2833 H   0  0  0  0  0  0  0  0  0  0  0  0
  119.5818  102.2836  106.6192 H   0  0  0  0  0  0  0  0  0  0  0  0
  1  2  1  0  0  0  0
  1  5  2  0  0  0  0
  2  8  2  0  0  0  0
  3  6  2  0  0  0  0
  3 15  1  0  0  0  0
  4 12  2  0  0  0  0
  4 15  1  0  0  0  0
  5  7  1  0  0  0  0
  5 16  1  0  0  0  0
  6 10  1  0  0  0  0
  6 12  1  0  0  0  0
  7 13  2  0  0  0  0
  7 14  1  0  0  0  0
  8 13  1  0  0  0  0
  8 17  1  0  0  0  0
  9 11  1  0  0  0  0
  9 14  2  0  0  0  0
  9 16  1  0  0  0  0
 10 11  1  0  0  0  0
 11 18  1  0  0  0  0
  1 19  1  0  0  0  0
  2 20  1  0  0  0  0
  3 21  1  0  0  0  0
  4 22  1  0  0  0  0
 10 23  1  0  0  0  0
 10 24  1  0  0  0  0
 11 25  1  0  0  0  0
 15 26  1  0  0  0  0
 16 27  1  0  0  0  0
 17 28  1  0  0  0  0
 17 29  1  0  0  0  0
 18 30  1  0  0  0  0
 18 31  1  0  0  0  0
M  END
> <FRED Chemgauss4 score>
-12.779313

$$$$
C75108405	P116956145
  -OEChem-05122015313D

 37 38  0     1  0  0  0  0  0999 V2000
  125.2892  104.5740  107.7335 C   0  0  0  0  0  0  0  0  0  0  0  0
  124.1018  103.9417  107.3649 C   0  0  0  0  0  0  0  0  0  0  0  0
  123.0913  106.0928  106.9302 C   0  0  0  0  0  0  0  0  0  0  0  0
  125.3777  105.9657  107.7004 C   0  0  0  0  0  0  0  0  0  0  0  0
  123.0029  104.7011  106.9633 C   0  0  0  0  0  0  0  0  0  0  0  0
  124.2788  106.7251  107.2987 C   0  0  0  0  0  0  0  0  0  0  0  0
  126.6386  106.5823  108.0942 C   0  0  0  0  0  0  0  0  0  0  0  0
  120.4943  104.5448  106.7121 C   0  0  0  0  0  0  0  0  0  0  0  0
  116.1549  106.5743  103.1117 C   0  0  0  0  0  0  0  0  0  0  0  0
  117.6383  106.7967  103.3609 C   0  0  0  0  0  0  0  0  0  0  0  0
  116.2428  104.2765  104.6559 C   0  0  0  0  0  0  0  0  0  0  0  0
  117.7362  104.4895  104.9080 C   0  0  2  0  0  0  0  0  0  0  0  0
  118.1517  103.8243  106.2201 C   0  0  0  0  0  0  0  0  0  0  0  0
  126.8055  106.9073  109.4356 N   0  0  0  0  0  0  0  0  0  0  0  0
  121.7992  104.0595  106.5889 N   0  0  0  0  0  0  0  0  0  0  0  0
  119.5588  103.6085  106.2251 N   0  0  0  0  0  0  0  0  0  0  0  0
  127.5260  106.8248  107.2601 O   0  0  0  0  0  0  0  0  0  0  0  0
  120.1577  105.6322  107.1746 O   0  0  0  0  0  0  0  0  0  0  0  0
  115.7181  104.8143  102.9986 S   0  0  0  0  0  0  0  0  0  0  0  0
  118.1592  106.2657  105.0190 S   0  0  0  0  0  0  0  0  0  0  0  0
  124.3487  108.4495  107.2422 Cl  0  0  0  0  0  0  0  0  0  0  0  0
  126.1384  103.9712  108.0454 H   0  0  0  0  0  0  0  0  0  0  0  0
  124.0439  102.8566  107.3942 H   0  0  0  0  0  0  0  0  0  0  0  0
  122.2310  106.6801  106.6158 H   0  0  0  0  0  0  0  0  0  0  0  0
  115.5391  107.0545  103.8802 H   0  0  0  0  0  0  0  0  0  0  0  0
  115.8827  107.0330  102.1551 H   0  0  0  0  0  0  0  0  0  0  0  0
  118.2555  106.2965  102.6062 H   0  0  0  0  0  0  0  0  0  0  0  0
  117.8543  107.8679  103.2865 H   0  0  0  0  0  0  0  0  0  0  0  0
  116.0094  103.2078  104.7209 H   0  0  0  0  0  0  0  0  0  0  0  0
  115.6254  104.7790  105.4096 H   0  0  0  0  0  0  0  0  0  0  0  0
  118.3306  104.0440  104.1014 H   0  0  0  0  0  0  0  0  0  0  0  0
  117.6416  102.8742  106.3027 H   0  0  0  0  0  0  0  0  0  0  0  0
  117.8848  104.4740  107.0421 H   0  0  0  0  0  0  0  0  0  0  0  0
  126.0576  106.7095  110.0916 H   0  0  0  0  0  0  0  0  0  0  0  0
  127.6606  107.3384  109.7717 H   0  0  0  0  0  0  0  0  0  0  0  0
  121.9008  103.1336  106.1807 H   0  0  0  0  0  0  0  0  0  0  0  0
  119.9127  102.7210  105.8531 H   0  0  0  0  0  0  0  0  0  0  0  0
  1  2  1  0  0  0  0
  1  4  2  0  0  0  0
  2  5  2  0  0  0  0
  3  5  1  0  0  0  0
  3  6  2  0  0  0  0
  4  6  1  0  0  0  0
  4  7  1  0  0  0  0
  5 15  1  0  0  0  0
  6 21  1  0  0  0  0
  7 14  1  0  0  0  0
  7 17  2  0  0  0  0
  8 15  1  0  0  0  0
  8 16  1  0  0  0  0
  8 18  2  0  0  0  0
  9 10  1  0  0  0  0
  9 19  1  0  0  0  0
 10 20  1  0  0  0  0
 11 12  1  0  0  0  0
 11 19  1  0  0  0  0
 12 13  1  0  0  0  0
 12 20  1  0  0  0  0
 13 16  1  0  0  0  0
  1 22  1  0  0  0  0
  2 23  1  0  0  0  0
  3 24  1  0  0  0  0
  9 25  1  0  0  0  0
  9 26  1  0  0  0  0
 10 27  1  0  0  0  0
 10 28  1  0  0  0  0
 11 29  1  0  0  0  0
 11 30  1  0  0  0  0
 12 31  1  0  0  0  0
 13 32  1  0  0  0  0
 13 33  1  0  0  0  0
 14 34  1  0  0  0  0
 14 35  1  0  0  0  0
 15 36  1  0  0  0  0
 16 37  1  0  0  0  0
M  END
> <FRED Chemgauss4 score>
-12.754944

$$$$
C91016112	P142397436
  -OEChem-05122015313D

 37 40  0     0  0  0  0  0  0999 V2000
  123.3381  108.0416  110.5532 C   0  0  0  0  0  0  0  0  0  0  0  0
  123.4372  106.9273  109.7220 C   0  0  0  0  0  0  0  0  0  0  0  0
  121.2089  105.1693  104.0029 C   0  0  0  0  0  0  0  0  0  0  0  0
  122.1134  105.0438  105.0596 C   0  0  0  0  0  0  0  0  0  0  0  0
  120.3371  104.3139  106.5542 C   0  0  0  0  0  0  0  0  0  0  0  0
  123.7947  109.2665  110.0854 C   0  0  0  0  0  0  0  0  0  0  0  0
  124.8455  107.0650  106.3548 C   0  0  0  0  0  0  0  0  0  0  0  0
  123.9981  107.1079  108.4474 C   0  0  0  0  0  0  0  0  0  0  0  0
  119.8811  104.8522  104.2350 C   0  0  0  0  0  0  0  0  0  0  0  0
  119.4496  104.4292  105.4978 C   0  0  0  0  0  0  0  0  0  0  0  0
  124.2754  106.2760  107.3305 C   0  0  0  0  0  0  0  0  0  0  0  0
  121.6807  104.6191  106.3259 C   0  0  0  0  0  0  0  0  0  0  0  0
  124.4152  108.3915  108.1073 C   0  0  0  0  0  0  0  0  0  0  0  0
  118.7317  104.9424  103.2818 C   0  0  0  0  0  0  0  0  0  0  0  0
  117.9715  104.1987  105.5062 C   0  0  0  0  0  0  0  0  0  0  0  0
  117.6799  104.0854  104.0023 C   0  0  0  0  0  0  0  0  0  0  0  0
  124.0022  104.8037  107.2217 C   0  0  0  0  0  0  0  0  0  0  0  0
  124.3427  109.4987  108.8700 N   0  0  0  0  0  0  0  0  0  0  0  0
  124.9258  108.3458  106.8367 N   0  0  0  0  0  0  0  0  0  0  0  0
  122.6135  104.5043  107.3797 N   0  0  0  0  0  0  0  0  0  0  0  0
  122.9122  107.9522  111.5468 H   0  0  0  0  0  0  0  0  0  0  0  0
  123.0891  105.9556  110.0568 H   0  0  0  0  0  0  0  0  0  0  0  0
  121.5433  105.5086  103.0284 H   0  0  0  0  0  0  0  0  0  0  0  0
  123.1605  105.2851  104.8916 H   0  0  0  0  0  0  0  0  0  0  0  0
  119.9920  103.9958  107.5331 H   0  0  0  0  0  0  0  0  0  0  0  0
  123.7245  110.1464  110.7195 H   0  0  0  0  0  0  0  0  0  0  0  0
  125.2010  106.8314  105.3608 H   0  0  0  0  0  0  0  0  0  0  0  0
  118.3995  105.9813  103.1889 H   0  0  0  0  0  0  0  0  0  0  0  0
  118.9711  104.5348  102.2957 H   0  0  0  0  0  0  0  0  0  0  0  0
  117.6929  103.2841  106.0370 H   0  0  0  0  0  0  0  0  0  0  0  0
  117.4581  105.0603  105.9448 H   0  0  0  0  0  0  0  0  0  0  0  0
  116.6564  104.3816  103.7515 H   0  0  0  0  0  0  0  0  0  0  0  0
  117.7976  103.0376  103.6921 H   0  0  0  0  0  0  0  0  0  0  0  0
  124.3202  104.4231  106.2449 H   0  0  0  0  0  0  0  0  0  0  0  0
  124.5541  104.2441  107.9842 H   0  0  0  0  0  0  0  0  0  0  0  0
  125.3048  109.1357  106.3331 H   0  0  0  0  0  0  0  0  0  0  0  0
  122.2605  104.1966  108.2653 H   0  0  0  0  0  0  0  0  0  0  0  0
  1  2  1  0  0  0  0
  1  6  2  0  0  0  0
  2  8  2  0  0  0  0
  3  4  2  0  0  0  0
  3  9  1  0  0  0  0
  4 12  1  0  0  0  0
  5 10  1  0  0  0  0
  5 12  2  0  0  0  0
  6 18  1  0  0  0  0
  7 11  2  0  0  0  0
  7 19  1  0  0  0  0
  8 11  1  0  0  0  0
  8 13  1  0  0  0  0
  9 10  2  0  0  0  0
  9 14  1  0  0  0  0
 10 15  1  0  0  0  0
 11 17  1  0  0  0  0
 12 20  1  0  0  0  0
 13 18  2  0  0  0  0
 13 19  1  0  0  0  0
 14 16  1  0  0  0  0
 15 16  1  0  0  0  0
 17 20  1  0  0  0  0
  1 21  1  0  0  0  0
  2 22  1  0  0  0  0
  3 23  1  0  0  0  0
  4 24  1  0  0  0  0
  5 25  1  0  0  0  0
  6 26  1  0  0  0  0
  7 27  1  0  0  0  0
 14 28  1  0  0  0  0
 14 29  1  0  0  0  0
 15 30  1  0  0  0  0
 15 31  1  0  0  0  0
 16 32  1  0  0  0  0
 16 33  1  0  0  0  0
 17 34  1  0  0  0  0
 17 35  1  0  0  0  0
 19 36  1  0  0  0  0
 20 37  1  0  0  0  0
M  END
> <FRED Chemgauss4 score>
-12.600559

$$$$
C97177845	P153861867
  -OEChem-05122015313D

 44 44  0     1  0  0  0  0  0999 V2000
  118.0597  108.1233  103.7995 C   0  0  0  0  0  0  0  0  0  0  0  0
  116.6953  108.0976  103.6320 C   0  0  0  0  0  0  0  0  0  0  0  0
  117.4318  106.2271  104.5349 C   0  0  0  0  0  0  0  0  0  0  0  0
  121.6649  104.9959  107.0974 C   0  0  0  0  0  0  0  0  0  0  0  0
  125.5201  104.0609  107.9100 C   0  0  0  0  0  0  0  0  0  0  0  0
  114.9518  106.3803  104.1440 C   0  0  0  0  0  0  0  0  0  0  0  0
  118.5038  104.5667  106.1736 C   0  0  0  0  0  0  0  0  0  0  0  0
  119.8617  104.2363  105.5488 C   0  0  0  0  0  0  0  0  0  0  0  0
  123.4863  105.3112  108.7669 C   0  0  0  0  0  0  0  0  0  0  0  0
  125.7687  106.4227  108.7847 C   0  0  0  0  0  0  0  0  0  0  0  0
  124.8471  105.4286  108.0681 C   0  0  1  0  0  0  0  0  0  0  0  0
  117.3822  104.8215  105.1347 C   0  0  2  0  0  0  0  0  0  0  0  0
  117.4481  103.7749  104.0165 C   0  0  0  0  0  0  0  0  0  0  0  0
  118.5121  106.9558  104.3617 N   0  0  0  0  0  0  0  0  0  0  0  0
  116.3073  106.8766  104.1072 N   0  0  0  0  0  0  0  0  0  0  0  0
  120.8576  103.9933  106.5582 N   0  0  0  0  0  0  0  0  0  0  0  0
  122.5400  104.4863  108.0533 N   0  0  0  0  0  0  0  0  0  0  0  0
  121.6096  106.1805  106.7699 O   0  0  0  0  0  0  0  0  0  0  0  0
  126.9660  106.5953  108.0367 O   0  0  0  0  0  0  0  0  0  0  0  0
  116.1306  104.6161  105.8060 O   0  0  0  0  0  0  0  0  0  0  0  0
  118.5930  103.8986  103.3051 F   0  0  0  0  0  0  0  0  0  0  0  0
  117.4197  102.5173  104.5127 F   0  0  0  0  0  0  0  0  0  0  0  0
  116.4229  103.8954  103.1452 F   0  0  0  0  0  0  0  0  0  0  0  0
  118.7394  108.9229  103.5437 H   0  0  0  0  0  0  0  0  0  0  0  0
  115.9942  108.8161  103.2306 H   0  0  0  0  0  0  0  0  0  0  0  0
  125.7332  103.6137  108.8865 H   0  0  0  0  0  0  0  0  0  0  0  0
  126.4720  104.1566  107.3769 H   0  0  0  0  0  0  0  0  0  0  0  0
  124.8870  103.3622  107.3532 H   0  0  0  0  0  0  0  0  0  0  0  0
  114.7590  105.8560  103.2043 H   0  0  0  0  0  0  0  0  0  0  0  0
  114.8361  105.6999  104.9922 H   0  0  0  0  0  0  0  0  0  0  0  0
  114.2623  107.2209  104.2626 H   0  0  0  0  0  0  0  0  0  0  0  0
  118.6335  105.4699  106.7862 H   0  0  0  0  0  0  0  0  0  0  0  0
  118.2205  103.7697  106.8722 H   0  0  0  0  0  0  0  0  0  0  0  0
  119.8089  103.3352  104.9309 H   0  0  0  0  0  0  0  0  0  0  0  0
  120.2273  105.0612  104.9300 H   0  0  0  0  0  0  0  0  0  0  0  0
  123.6046  104.8776  109.7657 H   0  0  0  0  0  0  0  0  0  0  0  0
  123.0291  106.2992  108.8860 H   0  0  0  0  0  0  0  0  0  0  0  0
  126.0370  106.0697  109.7860 H   0  0  0  0  0  0  0  0  0  0  0  0
  125.2830  107.3999  108.8759 H   0  0  0  0  0  0  0  0  0  0  0  0
  124.6673  105.8086  107.0532 H   0  0  0  0  0  0  0  0  0  0  0  0
  120.9798  103.0409  106.8966 H   0  0  0  0  0  0  0  0  0  0  0  0
  122.4827  103.5014  108.2929 H   0  0  0  0  0  0  0  0  0  0  0  0
  127.5130  107.2291  108.5276 H   0  0  0  0  0  0  0  0  0  0  0  0
  116.0867  105.2888  106.4993 H   0  0  0  0  0  0  0  0  0  0  0  0
  1  2  2  0  0  0  0
  1 14  1  0  0  0  0
  2 15  1  0  0  0  0
  3 12  1  0  0  0  0
  3 14  2  0  0  0  0
  3 15  1  0  0  0  0
  4 16  1  0  0  0  0
  4 17  1  0  0  0  0
  4 18  2  0  0  0  0
  5 11  1  0  0  0  0
  6 15  1  0  0  0  0
  7  8  1  0  0  0  0
  7 12  1  0  0  0  0
  8 16  1  0  0  0  0
  9 11  1  0  0  0  0
  9 17  1  0  0  0  0
 10 11  1  0  0  0  0
 10 19  1  0  0  0  0
 12 13  1  0  0  0  0
 12 20  1  0  0  0  0
 13 21  1  0  0  0  0
 13 22  1  0  0  0  0
 13 23  1  0  0  0  0
  1 24  1  0  0  0  0
  2 25  1  0  0  0  0
  5 26  1  0  0  0  0
  5 27  1  0  0  0  0
  5 28  1  0  0  0  0
  6 29  1  0  0  0  0
  6 30  1  0  0  0  0
  6 31  1  0  0  0  0
  7 32  1  0  0  0  0
  7 33  1  0  0  0  0
  8 34  1  0  0  0  0
  8 35  1  0  0  0  0
  9 36  1  0  0  0  0
  9 37  1  0  0  0  0
 10 38  1  0  0  0  0
 10 39  1  0  0  0  0
 11 40  1  0  0  0  0
 16 41  1  0  0  0  0
 17 42  1  0  0  0  0
 19 43  1  0  0  0  0
 20 44  1  0  0  0  0
M  END
> <FRED Chemgauss4 score>
-12.529377

$$$$
C73602805	P114608525
  -OEChem-05122015313D

 55 58  0     0  0  0  0  0  0999 V2000
  115.1067  107.1207  106.5288 C   0  0  0  0  0  0  0  0  0  0  0  0
  113.9419  106.3796  106.3392 C   0  0  0  0  0  0  0  0  0  0  0  0
  116.3636  106.5528  106.2908 C   0  0  0  0  0  0  0  0  0  0  0  0
  113.9950  105.0514  105.9069 C   0  0  0  0  0  0  0  0  0  0  0  0
  116.9731  103.1316  105.1576 C   0  0  0  0  0  0  0  0  0  0  0  0
  116.4421  105.2153  105.8545 C   0  0  0  0  0  0  0  0  0  0  0  0
  117.5157  104.3412  105.5254 C   0  0  0  0  0  0  0  0  0  0  0  0
  115.2583  104.4969  105.6730 C   0  0  0  0  0  0  0  0  0  0  0  0
  119.8130  103.9309  106.3382 C   0  0  0  0  0  0  0  0  0  0  0  0
  118.9688  104.6311  105.5569 C   0  0  0  0  0  0  0  0  0  0  0  0
  122.8357  106.1399  105.9811 C   0  0  0  0  0  0  0  0  0  0  0  0
  121.2882  104.1924  106.4457 C   0  0  0  0  0  0  0  0  0  0  0  0
  119.4880  105.7561  104.6961 C   0  0  0  0  0  0  0  0  0  0  0  0
  120.9849  105.6184  104.4306 C   0  0  0  0  0  0  0  0  0  0  0  0
  122.3808  106.8548  108.9010 C   0  0  0  0  0  0  0  0  0  0  0  0
  124.7840  106.7207  109.0511 C   0  0  0  0  0  0  0  0  0  0  0  0
  122.3831  108.0134  109.9042 C   0  0  0  0  0  0  0  0  0  0  0  0
  124.7859  107.8801  110.0533 C   0  0  0  0  0  0  0  0  0  0  0  0
  123.6340  105.7106  107.1876 C   0  0  0  0  0  0  0  0  0  0  0  0
  123.5330  109.0211  111.7691 C   0  0  0  0  0  0  0  0  0  0  0  0
  122.5811  108.7108  112.9098 C   0  0  0  0  0  0  0  0  0  0  0  0
  115.6110  103.2353  105.2496 N   0  0  0  0  0  0  0  0  0  0  0  0
  121.7115  105.3688  105.6749 N   0  0  0  0  0  0  0  0  0  0  0  0
  123.6363  106.8184  108.1410 N   0  0  0  0  0  0  0  0  0  0  0  0
  123.5310  107.9147  110.8141 N   0  0  0  0  0  0  0  0  0  0  0  0
  123.1961  107.1286  105.3378 O   0  0  0  0  0  0  0  0  0  0  0  0
  122.6132  109.7735  113.8539 O   0  0  0  0  0  0  0  0  0  0  0  0
  115.0397  108.1524  106.8636 H   0  0  0  0  0  0  0  0  0  0  0  0
  112.9764  106.8410  106.5296 H   0  0  0  0  0  0  0  0  0  0  0  0
  117.2614  107.1453  106.4432 H   0  0  0  0  0  0  0  0  0  0  0  0
  113.0876  104.4755  105.7584 H   0  0  0  0  0  0  0  0  0  0  0  0
  117.4284  102.2036  104.8385 H   0  0  0  0  0  0  0  0  0  0  0  0
  119.4263  103.1176  106.9487 H   0  0  0  0  0  0  0  0  0  0  0  0
  121.5462  104.3192  107.5003 H   0  0  0  0  0  0  0  0  0  0  0  0
  121.8450  103.3309  106.0608 H   0  0  0  0  0  0  0  0  0  0  0  0
  118.9664  105.7820  103.7312 H   0  0  0  0  0  0  0  0  0  0  0  0
  119.2874  106.7086  105.2032 H   0  0  0  0  0  0  0  0  0  0  0  0
  121.1842  104.7719  103.7613 H   0  0  0  0  0  0  0  0  0  0  0  0
  121.3561  106.5193  103.9317 H   0  0  0  0  0  0  0  0  0  0  0  0
  122.2167  105.9073  109.4321 H   0  0  0  0  0  0  0  0  0  0  0  0
  121.5364  106.9944  108.2151 H   0  0  0  0  0  0  0  0  0  0  0  0
  125.7171  106.7608  108.4760 H   0  0  0  0  0  0  0  0  0  0  0  0
  124.7749  105.7648  109.5923 H   0  0  0  0  0  0  0  0  0  0  0  0
  122.3924  108.9697  109.3637 H   0  0  0  0  0  0  0  0  0  0  0  0
  121.4500  107.9731  110.4793 H   0  0  0  0  0  0  0  0  0  0  0  0
  125.6309  107.7415  110.7387 H   0  0  0  0  0  0  0  0  0  0  0  0
  124.9485  108.8276  109.5218 H   0  0  0  0  0  0  0  0  0  0  0  0
  124.6546  105.4727  106.8780 H   0  0  0  0  0  0  0  0  0  0  0  0
  123.1688  104.8270  107.6316 H   0  0  0  0  0  0  0  0  0  0  0  0
  123.2346  109.9316  111.2397 H   0  0  0  0  0  0  0  0  0  0  0  0
  124.5526  109.1440  112.1466 H   0  0  0  0  0  0  0  0  0  0  0  0
  122.8946  107.7952  113.4209 H   0  0  0  0  0  0  0  0  0  0  0  0
  121.5532  108.5868  112.5538 H   0  0  0  0  0  0  0  0  0  0  0  0
  114.9587  102.4931  105.0374 H   0  0  0  0  0  0  0  0  0  0  0  0
  121.9940  109.5363  114.5628 H   0  0  0  0  0  0  0  0  0  0  0  0
  1  2  1  0  0  0  0
  1  3  2  0  0  0  0
  2  4  2  0  0  0  0
  3  6  1  0  0  0  0
  4  8  1  0  0  0  0
  5  7  2  0  0  0  0
  5 22  1  0  0  0  0
  6  7  1  0  0  0  0
  6  8  2  0  0  0  0
  7 10  1  0  0  0  0
  8 22  1  0  0  0  0
  9 10  2  0  0  0  0
  9 12  1  0  0  0  0
 10 13  1  0  0  0  0
 11 19  1  0  0  0  0
 11 23  1  0  0  0  0
 11 26  2  0  0  0  0
 12 23  1  0  0  0  0
 13 14  1  0  0  0  0
 14 23  1  0  0  0  0
 15 17  1  0  0  0  0
 15 24  1  0  0  0  0
 16 18  1  0  0  0  0
 16 24  1  0  0  0  0
 17 25  1  0  0  0  0
 18 25  1  0  0  0  0
 19 24  1  0  0  0  0
 20 21  1  0  0  0  0
 20 25  1  0  0  0  0
 21 27  1  0  0  0  0
  1 28  1  0  0  0  0
  2 29  1  0  0  0  0
  3 30  1  0  0  0  0
  4 31  1  0  0  0  0
  5 32  1  0  0  0  0
  9 33  1  0  0  0  0
 12 34  1  0  0  0  0
 12 35  1  0  0  0  0
 13 36  1  0  0  0  0
 13 37  1  0  0  0  0
 14 38  1  0  0  0  0
 14 39  1  0  0  0  0
 15 40  1  0  0  0  0
 15 41  1  0  0  0  0
 16 42  1  0  0  0  0
 16 43  1  0  0  0  0
 17 44  1  0  0  0  0
 17 45  1  0  0  0  0
 18 46  1  0  0  0  0
 18 47  1  0  0  0  0
 19 48  1  0  0  0  0
 19 49  1  0  0  0  0
 20 50  1  0  0  0  0
 20 51  1  0  0  0  0
 21 52  1  0  0  0  0
 21 53  1  0  0  0  0
 22 54  1  0  0  0  0
 27 55  1  0  0  0  0
M  END
> <FRED Chemgauss4 score>
-12.456744

$$$$
C80540843	P125773190
  -OEChem-05122015313D

 34 35  0     0  0  0  0  0  0999 V2000
  126.0040  104.5432  108.4485 C   0  0  0  0  0  0  0  0  0  0  0  0
  124.7930  104.6350  107.7624 C   0  0  0  0  0  0  0  0  0  0  0  0
  126.1703  106.9533  108.4776 C   0  0  0  0  0  0  0  0  0  0  0  0
  123.5973  113.2220  113.5426 C   0  0  0  0  0  0  0  0  0  0  0  0
  126.6926  105.7024  108.8061 C   0  0  0  0  0  0  0  0  0  0  0  0
  124.9593  107.0451  107.7915 C   0  0  0  0  0  0  0  0  0  0  0  0
  124.2706  105.8860  107.4339 C   0  0  0  0  0  0  0  0  0  0  0  0
  123.7492  111.3151  112.7073 C   0  0  0  0  0  0  0  0  0  0  0  0
  123.5394  109.9663  112.0665 C   0  0  0  0  0  0  0  0  0  0  0  0
  123.3931  110.0200  110.5399 C   0  0  0  0  0  0  0  0  0  0  0  0
  123.1431  108.6652  109.8803 C   0  0  0  0  0  0  0  0  0  0  0  0
  122.8476  112.2303  112.9778 N   0  0  0  0  0  0  0  0  0  0  0  0
  124.9060  112.9780  113.6386 N   0  0  0  0  0  0  0  0  0  0  0  0
  124.9765  111.7523  113.0975 N   0  0  0  0  0  0  0  0  0  0  0  0
  127.9167  105.6093  109.5001 N   0  0  0  0  0  0  0  0  0  0  0  0
  122.9885  108.7639  108.4551 N   0  0  0  0  0  0  0  0  0  0  0  0
  125.3381  109.6269  107.8251 O   0  0  0  0  0  0  0  0  0  0  0  0
  123.9046  108.6191  106.0213 O   0  0  0  0  0  0  0  0  0  0  0  0
  124.3461  108.6568  107.4023 S   0  0  0  0  0  0  0  0  0  0  0  0
  122.7681  105.9447  106.5846 Cl  0  0  0  0  0  0  0  0  0  0  0  0
  126.4020  103.5635  108.6999 H   0  0  0  0  0  0  0  0  0  0  0  0
  124.2693  103.7215  107.4916 H   0  0  0  0  0  0  0  0  0  0  0  0
  126.7094  107.8556  108.7579 H   0  0  0  0  0  0  0  0  0  0  0  0
  123.1767  114.1518  113.8953 H   0  0  0  0  0  0  0  0  0  0  0  0
  122.6697  109.4676  112.5116 H   0  0  0  0  0  0  0  0  0  0  0  0
  124.3994  109.3321  112.3184 H   0  0  0  0  0  0  0  0  0  0  0  0
  124.3119  110.4535  110.1246 H   0  0  0  0  0  0  0  0  0  0  0  0
  122.5754  110.6985  110.2681 H   0  0  0  0  0  0  0  0  0  0  0  0
  122.2184  108.2279  110.2702 H   0  0  0  0  0  0  0  0  0  0  0  0
  123.9562  107.9618  110.0821 H   0  0  0  0  0  0  0  0  0  0  0  0
  125.8765  111.2914  113.0315 H   0  0  0  0  0  0  0  0  0  0  0  0
  128.2567  104.7088  109.7714 H   0  0  0  0  0  0  0  0  0  0  0  0
  128.3769  106.4478  109.7921 H   0  0  0  0  0  0  0  0  0  0  0  0
  122.0654  108.5001  108.0494 H   0  0  0  0  0  0  0  0  0  0  0  0
  1  2  1  0  0  0  0
  1  5  2  0  0  0  0
  2  7  2  0  0  0  0
  3  5  1  0  0  0  0
  3  6  2  0  0  0  0
  4 12  1  0  0  0  0
  4 13  2  0  0  0  0
  5 15  1  0  0  0  0
  6  7  1  0  0  0  0
  6 19  1  0  0  0  0
  7 20  1  0  0  0  0
  8  9  1  0  0  0  0
  8 12  2  0  0  0  0
  8 14  1  0  0  0  0
  9 10  1  0  0  0  0
 10 11  1  0  0  0  0
 11 16  1  0  0  0  0
 13 14  1  0  0  0  0
 16 19  1  0  0  0  0
 17 19  2  0  0  0  0
 18 19  2  0  0  0  0
  1 21  1  0  0  0  0
  2 22  1  0  0  0  0
  3 23  1  0  0  0  0
  4 24  1  0  0  0  0
  9 25  1  0  0  0  0
  9 26  1  0  0  0  0
 10 27  1  0  0  0  0
 10 28  1  0  0  0  0
 11 29  1  0  0  0  0
 11 30  1  0  0  0  0
 14 31  1  0  0  0  0
 15 32  1  0  0  0  0
 15 33  1  0  0  0  0
 16 34  1  0  0  0  0
M  END
> <FRED Chemgauss4 score>
-12.442696

$$$$
C79783087	P124652744
  -OEChem-05122015313D

 37 37  0     0  0  0  0  0  0999 V2000
  124.8831  104.6022  107.3172 C   0  0  0  0  0  0  0  0  0  0  0  0
  124.0206  106.7636  107.9663 C   0  0  0  0  0  0  0  0  0  0  0  0
  123.5863  104.0884  107.3050 C   0  0  0  0  0  0  0  0  0  0  0  0
  122.7239  106.2499  107.9540 C   0  0  0  0  0  0  0  0  0  0  0  0
  125.1002  105.9398  107.6479 C   0  0  0  0  0  0  0  0  0  0  0  0
  122.5067  104.9123  107.6234 C   0  0  0  0  0  0  0  0  0  0  0  0
  126.5519  107.9377  107.3262 C   0  0  0  0  0  0  0  0  0  0  0  0
  115.7058  107.2620  105.6249 C   0  0  0  0  0  0  0  0  0  0  0  0
  126.4867  106.4890  107.6610 C   0  0  0  0  0  0  0  0  0  0  0  0
  118.2264  106.0971  105.7581 C   0  0  0  0  0  0  0  0  0  0  0  0
  119.5156  105.9855  106.5441 C   0  0  0  0  0  0  0  0  0  0  0  0
  121.2469  104.4130  107.6115 N   0  5  0  0  0  0  0  0  0  0  0  0
  126.1608  108.3096  106.1158 N   0  0  0  0  0  0  0  0  0  0  0  0
  127.0070  108.7656  108.2555 N   0  3  0  0  0  0  0  0  0  0  0  0
  117.4580  107.9437  107.4410 O   0  0  0  0  0  0  0  0  0  0  0  0
  117.8817  108.5857  105.0368 O   0  0  0  0  0  0  0  0  0  0  0  0
  119.2140  103.4618  106.3316 O   0  0  0  0  0  0  0  0  0  0  0  0
  121.0114  104.5661  105.0431 O   0  0  0  0  0  0  0  0  0  0  0  0
  117.3990  107.6331  106.0225 S   0  0  0  0  0  0  0  0  0  0  0  0
  120.3142  104.4275  106.3230 S   0  0  0  0  0  0  0  0  0  0  0  0
  125.7185  103.9533  107.0680 H   0  0  0  0  0  0  0  0  0  0  0  0
  124.1805  107.8070  108.2250 H   0  0  0  0  0  0  0  0  0  0  0  0
  123.4372  103.0427  107.0447 H   0  0  0  0  0  0  0  0  0  0  0  0
  121.8945  106.9076  108.2051 H   0  0  0  0  0  0  0  0  0  0  0  0
  115.1133  108.1679  105.7624 H   0  0  0  0  0  0  0  0  0  0  0  0
  115.6608  106.9295  104.5868 H   0  0  0  0  0  0  0  0  0  0  0  0
  115.3598  106.4734  106.2947 H   0  0  0  0  0  0  0  0  0  0  0  0
  127.1271  105.9241  106.9616 H   0  0  0  0  0  0  0  0  0  0  0  0
  126.9536  106.3204  108.6468 H   0  0  0  0  0  0  0  0  0  0  0  0
  118.3927  106.0023  104.6811 H   0  0  0  0  0  0  0  0  0  0  0  0
  117.5241  105.3194  106.0740 H   0  0  0  0  0  0  0  0  0  0  0  0
  119.3111  106.0689  107.6159 H   0  0  0  0  0  0  0  0  0  0  0  0
  120.2360  106.7594  106.2640 H   0  0  0  0  0  0  0  0  0  0  0  0
  125.8295  107.6210  105.4495 H   0  0  0  0  0  0  0  0  0  0  0  0
  126.1832  109.2834  105.8342 H   0  0  0  0  0  0  0  0  0  0  0  0
  127.3012  108.4231  109.1634 H   0  0  0  0  0  0  0  0  0  0  0  0
  127.0693  109.7606  108.0708 H   0  0  0  0  0  0  0  0  0  0  0  0
  1  3  2  0  0  0  0
  1  5  1  0  0  0  0
  2  4  1  0  0  0  0
  2  5  2  0  0  0  0
  3  6  1  0  0  0  0
  4  6  2  0  0  0  0
  5  9  1  0  0  0  0
  6 12  1  0  0  0  0
  7  9  1  0  0  0  0
  7 13  1  0  0  0  0
  7 14  2  0  0  0  0
  8 19  1  0  0  0  0
 10 11  1  0  0  0  0
 10 19  1  0  0  0  0
 11 20  1  0  0  0  0
 12 20  1  0  0  0  0
 15 19  2  0  0  0  0
 16 19  2  0  0  0  0
 17 20  2  0  0  0  0
 18 20  2  0  0  0  0
  1 21  1  0  0  0  0
  2 22  1  0  0  0  0
  3 23  1  0  0  0  0
  4 24  1  0  0  0  0
  8 25  1  0  0  0  0
  8 26  1  0  0  0  0
  8 27  1  0  0  0  0
  9 28  1  0  0  0  0
  9 29  1  0  0  0  0
 10 30  1  0  0  0  0
 10 31  1  0  0  0  0
 11 32  1  0  0  0  0
 11 33  1  0  0  0  0
 13 34  1  0  0  0  0
 13 35  1  0  0  0  0
 14 36  1  0  0  0  0
 14 37  1  0  0  0  0
M  CHG  2  12  -1  14   1
M  END
> <FRED Chemgauss4 score>
-12.398876

$$$$
C92996988	P145595040
  -OEChem-05122015313D

 39 41  0     1  0  0  0  0  0999 V2000
  127.2464  107.3635  107.3534 C   0  0  0  0  0  0  0  0  0  0  0  0
  125.9678  105.7037  107.0186 C   0  0  0  0  0  0  0  0  0  0  0  0
  125.7151  106.1177  108.3032 C   0  0  0  0  0  0  0  0  0  0  0  0
  122.6927  105.0701  107.8427 C   0  0  0  0  0  0  0  0  0  0  0  0
  119.0088  104.7244  105.0517 C   0  0  0  0  0  0  0  0  0  0  0  0
  125.2586  104.5768  106.3758 C   0  0  0  0  0  0  0  0  0  0  0  0
  124.7559  105.4908  109.2381 C   0  0  0  0  0  0  0  0  0  0  0  0
  117.8026  108.1635  103.9020 C   0  0  0  0  0  0  0  0  0  0  0  0
  116.8405  107.3226  104.6907 C   0  0  0  0  0  0  0  0  0  0  0  0
  123.9070  104.4485  108.4673 C   0  0  2  0  0  0  0  0  0  0  0  0
  117.9491  106.6685  103.9159 C   0  0  0  0  0  0  0  0  0  0  0  0
  120.3140  104.3168  105.7113 C   0  0  0  0  0  0  0  0  0  0  0  0
  120.3324  104.6194  107.2033 C   0  0  0  0  0  0  0  0  0  0  0  0
  126.9200  106.4858  106.4250 N   0  0  0  0  0  0  0  0  0  0  0  0
  126.5395  107.1796  108.5155 N   0  0  0  0  0  0  0  0  0  0  0  0
  124.6397  103.7151  107.4095 N   0  0  0  0  0  0  0  0  0  0  0  0
  121.6031  104.2236  107.7670 N   0  0  0  0  0  0  0  0  0  0  0  0
  119.0582  106.0305  104.5869 N   0  0  0  0  0  0  0  0  0  0  0  0
  122.7389  106.2329  107.4586 O   0  0  0  0  0  0  0  0  0  0  0  0
  118.0427  103.9729  104.9519 O   0  0  0  0  0  0  0  0  0  0  0  0
  127.9794  108.1510  107.2521 H   0  0  0  0  0  0  0  0  0  0  0  0
  124.4764  104.9457  105.7020 H   0  0  0  0  0  0  0  0  0  0  0  0
  125.9588  103.9832  105.7751 H   0  0  0  0  0  0  0  0  0  0  0  0
  125.2835  105.0008  110.0706 H   0  0  0  0  0  0  0  0  0  0  0  0
  124.1161  106.2712  109.6800 H   0  0  0  0  0  0  0  0  0  0  0  0
  117.4336  108.6387  103.0014 H   0  0  0  0  0  0  0  0  0  0  0  0
  118.5308  108.7472  104.4518 H   0  0  0  0  0  0  0  0  0  0  0  0
  116.9220  107.3413  105.7705 H   0  0  0  0  0  0  0  0  0  0  0  0
  115.8274  107.2347  104.3179 H   0  0  0  0  0  0  0  0  0  0  0  0
  123.5155  103.6851  109.2004 H   0  0  0  0  0  0  0  0  0  0  0  0
  117.6651  106.1441  103.0098 H   0  0  0  0  0  0  0  0  0  0  0  0
  120.4651  103.2431  105.5436 H   0  0  0  0  0  0  0  0  0  0  0  0
  121.1344  104.8458  105.2103 H   0  0  0  0  0  0  0  0  0  0  0  0
  119.5265  104.0823  107.7149 H   0  0  0  0  0  0  0  0  0  0  0  0
  120.1750  105.6887  107.3811 H   0  0  0  0  0  0  0  0  0  0  0  0
  126.6181  107.7302  109.3609 H   0  0  0  0  0  0  0  0  0  0  0  0
  123.9847  103.0693  106.9432 H   0  0  0  0  0  0  0  0  0  0  0  0
  121.6998  103.2780  108.1245 H   0  0  0  0  0  0  0  0  0  0  0  0
  119.9127  106.5622  104.7245 H   0  0  0  0  0  0  0  0  0  0  0  0
  1 14  2  0  0  0  0
  1 15  1  0  0  0  0
  2  3  2  0  0  0  0
  2  6  1  0  0  0  0
  2 14  1  0  0  0  0
  3  7  1  0  0  0  0
  3 15  1  0  0  0  0
  4 10  1  0  0  0  0
  4 17  1  0  0  0  0
  4 19  2  0  0  0  0
  5 12  1  0  0  0  0
  5 18  1  0  0  0  0
  5 20  2  0  0  0  0
  6 16  1  0  0  0  0
  7 10  1  0  0  0  0
  8  9  1  0  0  0  0
  8 11  1  0  0  0  0
  9 11  1  0  0  0  0
 10 16  1  0  0  0  0
 11 18  1  0  0  0  0
 12 13  1  0  0  0  0
 13 17  1  0  0  0  0
  1 21  1  0  0  0  0
  6 22  1  0  0  0  0
  6 23  1  0  0  0  0
  7 24  1  0  0  0  0
  7 25  1  0  0  0  0
  8 26  1  0  0  0  0
  8 27  1  0  0  0  0
  9 28  1  0  0  0  0
  9 29  1  0  0  0  0
 10 30  1  0  0  0  0
 11 31  1  0  0  0  0
 12 32  1  0  0  0  0
 12 33  1  0  0  0  0
 13 34  1  0  0  0  0
 13 35  1  0  0  0  0
 15 36  1  0  0  0  0
 16 37  1  0  0  0  0
 17 38  1  0  0  0  0
 18 39  1  0  0  0  0
M  END
> <FRED Chemgauss4 score>
-12.356902

$$$$
C98309401	P156374145
  -OEChem-05122015313D

 36 37  0     1  0  0  0  0  0999 V2000
  116.5700  103.7582  104.6216 C   0  0  0  0  0  0  0  0  0  0  0  0
  117.6507  103.0883  105.0383 C   0  0  0  0  0  0  0  0  0  0  0  0
  116.5013  105.1905  104.7269 C   0  0  0  0  0  0  0  0  0  0  0  0
  125.4293  105.2768  108.0786 C   0  0  0  0  0  0  0  0  0  0  0  0
  124.5016  106.0209  107.2611 C   0  0  0  0  0  0  0  0  0  0  0  0
  126.2516  105.9301  108.9063 C   0  0  0  0  0  0  0  0  0  0  0  0
  117.5304  105.8665  105.2493 C   0  0  0  0  0  0  0  0  0  0  0  0
  124.4487  107.3610  107.3164 C   0  0  0  0  0  0  0  0  0  0  0  0
  118.8093  103.8276  105.6261 C   0  0  0  0  0  0  0  0  0  0  0  0
  125.3689  108.0968  108.2421 C   0  0  0  0  0  0  0  0  0  0  0  0
  123.4720  108.0442  106.4485 C   0  0  0  0  0  0  0  0  0  0  0  0
  119.7587  106.0127  106.2564 C   0  0  0  0  0  0  0  0  0  0  0  0
  121.0386  108.1999  105.9899 C   0  0  0  0  0  0  0  0  0  0  0  0
  120.2854  107.0709  105.2860 C   0  0  1  0  0  0  0  0  0  0  0  0
  126.2249  107.2996  108.9878 N   0  0  0  0  0  0  0  0  0  0  0  0
  118.6849  105.2310  105.7037 N   0  0  0  0  0  0  0  0  0  0  0  0
  122.1718  107.6636  106.7113 N   0  0  0  0  0  0  0  0  0  0  0  0
  119.7898  103.1879  106.0036 O   0  0  0  0  0  0  0  0  0  0  0  0
  125.3474  109.3231  108.3152 O   0  0  0  0  0  0  0  0  0  0  0  0
  123.8438  108.8537  105.6060 O   0  0  0  0  0  0  0  0  0  0  0  0
  121.1598  106.4531  104.3416 O   0  0  0  0  0  0  0  0  0  0  0  0
  115.7220  103.2355  104.1936 H   0  0  0  0  0  0  0  0  0  0  0  0
  117.7163  102.0094  104.9639 H   0  0  0  0  0  0  0  0  0  0  0  0
  115.6104  105.6985  104.3771 H   0  0  0  0  0  0  0  0  0  0  0  0
  125.4408  104.1959  108.0047 H   0  0  0  0  0  0  0  0  0  0  0  0
  123.8546  105.4444  106.6074 H   0  0  0  0  0  0  0  0  0  0  0  0
  126.9679  105.4264  109.5426 H   0  0  0  0  0  0  0  0  0  0  0  0
  117.5099  106.9466  105.3425 H   0  0  0  0  0  0  0  0  0  0  0  0
  120.5542  105.3186  106.5452 H   0  0  0  0  0  0  0  0  0  0  0  0
  119.3643  106.4853  107.1617 H   0  0  0  0  0  0  0  0  0  0  0  0
  120.3926  108.7190  106.7055 H   0  0  0  0  0  0  0  0  0  0  0  0
  121.4050  108.9292  105.2601 H   0  0  0  0  0  0  0  0  0  0  0  0
  119.4395  107.4837  104.7226 H   0  0  0  0  0  0  0  0  0  0  0  0
  126.8708  107.7444  109.6333 H   0  0  0  0  0  0  0  0  0  0  0  0
  122.0036  106.9785  107.4417 H   0  0  0  0  0  0  0  0  0  0  0  0
  120.6329  105.7859  103.8764 H   0  0  0  0  0  0  0  0  0  0  0  0
  1  2  2  0  0  0  0
  1  3  1  0  0  0  0
  2  9  1  0  0  0  0
  3  7  2  0  0  0  0
  4  5  1  0  0  0  0
  4  6  2  0  0  0  0
  5  8  2  0  0  0  0
  6 15  1  0  0  0  0
  7 16  1  0  0  0  0
  8 10  1  0  0  0  0
  8 11  1  0  0  0  0
  9 16  1  0  0  0  0
  9 18  2  0  0  0  0
 10 15  1  0  0  0  0
 10 19  2  0  0  0  0
 11 17  1  0  0  0  0
 11 20  2  0  0  0  0
 12 14  1  0  0  0  0
 12 16  1  0  0  0  0
 13 14  1  0  0  0  0
 13 17  1  0  0  0  0
 14 21  1  0  0  0  0
  1 22  1  0  0  0  0
  2 23  1  0  0  0  0
  3 24  1  0  0  0  0
  4 25  1  0  0  0  0
  5 26  1  0  0  0  0
  6 27  1  0  0  0  0
  7 28  1  0  0  0  0
 12 29  1  0  0  0  0
 12 30  1  0  0  0  0
 13 31  1  0  0  0  0
 13 32  1  0  0  0  0
 14 33  1  0  0  0  0
 15 34  1  0  0  0  0
 17 35  1  0  0  0  0
 21 36  1  0  0  0  0
M  END
> <FRED Chemgauss4 score>
-12.318846

$$$$
C93853010	P147069188
  -OEChem-05122015313D

 43 44  0     1  0  0  0  0  0999 V2000
  117.1187  105.3506  105.9590 C   0  0  0  0  0  0  0  0  0  0  0  0
  114.9591  105.1256  105.8377 C   0  0  0  0  0  0  0  0  0  0  0  0
  122.5050  106.4748  106.0473 C   0  0  0  0  0  0  0  0  0  0  0  0
  120.0983  103.7571  106.0651 C   0  0  0  0  0  0  0  0  0  0  0  0
  121.3886  104.3244  105.4805 C   0  0  0  0  0  0  0  0  0  0  0  0
  120.8591  105.4279  107.6163 C   0  0  0  0  0  0  0  0  0  0  0  0
  119.5829  104.8577  106.9860 C   0  0  1  0  0  0  0  0  0  0  0  0
  121.9949  105.1611  106.6117 C   0  0  2  0  0  0  0  0  0  0  0  0
  125.5380  103.9927  108.7485 C   0  0  0  0  0  0  0  0  0  0  0  0
  115.9511  108.0602  107.3011 C   0  0  0  0  0  0  0  0  0  0  0  0
  125.3395  103.4726  107.3340 C   0  0  0  0  0  0  0  0  0  0  0  0
  115.7695  107.5091  105.9278 C   0  0  0  0  0  0  0  0  0  0  0  0
  124.3554  104.3378  106.5629 C   0  0  0  0  0  0  0  0  0  0  0  0
  116.9687  104.0607  105.9257 N   0  0  0  0  0  0  0  0  0  0  0  0
  115.6184  103.8883  105.8493 N   0  0  0  0  0  0  0  0  0  0  0  0
  115.9659  106.0688  105.9105 N   0  0  0  0  0  0  0  0  0  0  0  0
  123.0583  104.3649  107.2888 N   0  3  0  0  0  0  0  0  0  0  0  0
  123.0301  107.2553  106.8888 O   0  5  0  0  0  0  0  0  0  0  0  0
  113.7512  105.3030  105.7757 O   0  0  0  0  0  0  0  0  0  0  0  0
  122.3373  106.6176  104.8036 O   0  0  0  0  0  0  0  0  0  0  0  0
  118.6666  106.1369  106.0582 S   0  0  0  0  0  0  0  0  0  0  0  0
  119.3869  103.5458  105.2483 H   0  0  0  0  0  0  0  0  0  0  0  0
  120.2771  102.8107  106.5989 H   0  0  0  0  0  0  0  0  0  0  0  0
  122.0456  103.4936  105.1953 H   0  0  0  0  0  0  0  0  0  0  0  0
  121.1816  104.8994  104.5720 H   0  0  0  0  0  0  0  0  0  0  0  0
  120.7529  106.5120  107.8025 H   0  0  0  0  0  0  0  0  0  0  0  0
  121.0458  104.9689  108.6026 H   0  0  0  0  0  0  0  0  0  0  0  0
  118.9276  104.4515  107.7485 H   0  0  0  0  0  0  0  0  0  0  0  0
  125.8998  105.0254  108.7255 H   0  0  0  0  0  0  0  0  0  0  0  0
  124.5976  103.9745  109.3085 H   0  0  0  0  0  0  0  0  0  0  0  0
  126.2722  103.3873  109.2895 H   0  0  0  0  0  0  0  0  0  0  0  0
  115.2293  107.6198  107.9976 H   0  0  0  0  0  0  0  0  0  0  0  0
  116.9665  107.8715  107.6662 H   0  0  0  0  0  0  0  0  0  0  0  0
  115.7912  109.1450  107.2901 H   0  0  0  0  0  0  0  0  0  0  0  0
  124.9774  102.4386  107.3789 H   0  0  0  0  0  0  0  0  0  0  0  0
  126.3075  103.4526  106.8193 H   0  0  0  0  0  0  0  0  0  0  0  0
  116.4932  107.9530  105.2377 H   0  0  0  0  0  0  0  0  0  0  0  0
  114.7600  107.7122  105.5586 H   0  0  0  0  0  0  0  0  0  0  0  0
  124.6959  105.3742  106.4826 H   0  0  0  0  0  0  0  0  0  0  0  0
  124.1524  103.9384  105.5650 H   0  0  0  0  0  0  0  0  0  0  0  0
  115.2175  102.9598  105.8113 H   0  0  0  0  0  0  0  0  0  0  0  0
  123.2087  104.7405  108.2348 H   0  0  0  0  0  0  0  0  0  0  0  0
  122.7242  103.4005  107.4196 H   0  0  0  0  0  0  0  0  0  0  0  0
  1 14  2  0  0  0  0
  1 16  1  0  0  0  0
  1 21  1  0  0  0  0
  2 15  1  0  0  0  0
  2 16  1  0  0  0  0
  2 19  2  0  0  0  0
  3  8  1  0  0  0  0
  3 18  1  0  0  0  0
  3 20  2  0  0  0  0
  4  5  1  0  0  0  0
  4  7  1  0  0  0  0
  5  8  1  0  0  0  0
  6  7  1  0  0  0  0
  6  8  1  0  0  0  0
  7 21  1  0  0  0  0
  8 17  1  0  0  0  0
  9 11  1  0  0  0  0
 10 12  1  0  0  0  0
 11 13  1  0  0  0  0
 12 16  1  0  0  0  0
 13 17  1  0  0  0  0
 14 15  1  0  0  0  0
  4 22  1  0  0  0  0
  4 23  1  0  0  0  0
  5 24  1  0  0  0  0
  5 25  1  0  0  0  0
  6 26  1  0  0  0  0
  6 27  1  0  0  0  0
  7 28  1  0  0  0  0
  9 29  1  0  0  0  0
  9 30  1  0  0  0  0
  9 31  1  0  0  0  0
 10 32  1  0  0  0  0
 10 33  1  0  0  0  0
 10 34  1  0  0  0  0
 11 35  1  0  0  0  0
 11 36  1  0  0  0  0
 12 37  1  0  0  0  0
 12 38  1  0  0  0  0
 13 39  1  0  0  0  0
 13 40  1  0  0  0  0
 15 41  1  0  0  0  0
 17 42  1  0  0  0  0
 17 43  1  0  0  0  0
M  CHG  2  17   1  18  -1
M  END
> <FRED Chemgauss4 score>
-12.260221

$$$$
C63130397	P96934657
  -OEChem-05122015313D

 33 34  0     0  0  0  0  0  0999 V2000
  117.3782  106.1952  103.4995 C   0  0  0  0  0  0  0  0  0  0  0  0
  115.8613  104.3442  103.1684 C   0  0  0  0  0  0  0  0  0  0  0  0
  117.7159  105.6937  104.7564 C   0  0  0  0  0  0  0  0  0  0  0  0
  116.1990  103.8426  104.4254 C   0  0  0  0  0  0  0  0  0  0  0  0
  124.0668  106.3459  106.3535 C   0  0  0  0  0  0  0  0  0  0  0  0
  116.4508  105.5205  102.7055 C   0  0  0  0  0  0  0  0  0  0  0  0
  117.1264  104.5173  105.2194 C   0  0  0  0  0  0  0  0  0  0  0  0
  125.2467  106.0385  107.0749 C   0  0  0  0  0  0  0  0  0  0  0  0
  123.1754  105.3175  106.5655 C   0  0  0  0  0  0  0  0  0  0  0  0
  125.0404  104.8313  107.7056 C   0  0  0  0  0  0  0  0  0  0  0  0
  121.7979  105.1651  106.0302 C   0  0  0  0  0  0  0  0  0  0  0  0
  119.7878  103.7125  105.9554 C   0  0  0  0  0  0  0  0  0  0  0  0
  118.7739  104.2991  106.9205 C   0  0  0  0  0  0  0  0  0  0  0  0
  123.7781  104.4023  107.3885 N   0  0  0  0  0  0  0  0  0  0  0  0
  116.1093  106.0278  101.4346 N   0  0  0  0  0  0  0  0  0  0  0  0
  121.1576  104.0233  106.4244 N   0  0  0  0  0  0  0  0  0  0  0  0
  121.3463  106.0276  105.2814 O   0  0  0  0  0  0  0  0  0  0  0  0
  117.4560  104.0279  106.4459 O   0  0  0  0  0  0  0  0  0  0  0  0
  126.6365  107.0135  107.1223 Cl  0  0  0  0  0  0  0  0  0  0  0  0
  125.9950  103.8660  108.7194 Cl  0  0  0  0  0  0  0  0  0  0  0  0
  117.8437  107.1127  103.1485 H   0  0  0  0  0  0  0  0  0  0  0  0
  115.1374  103.8104  102.5579 H   0  0  0  0  0  0  0  0  0  0  0  0
  118.4390  106.2237  105.3704 H   0  0  0  0  0  0  0  0  0  0  0  0
  115.7364  102.9258  104.7805 H   0  0  0  0  0  0  0  0  0  0  0  0
  123.8844  107.2219  105.7451 H   0  0  0  0  0  0  0  0  0  0  0  0
  119.6874  102.6246  105.8870 H   0  0  0  0  0  0  0  0  0  0  0  0
  119.6614  104.1473  104.9593 H   0  0  0  0  0  0  0  0  0  0  0  0
  118.8956  105.3852  106.9775 H   0  0  0  0  0  0  0  0  0  0  0  0
  118.8810  103.8747  107.9241 H   0  0  0  0  0  0  0  0  0  0  0  0
  123.3592  103.5419  107.7140 H   0  0  0  0  0  0  0  0  0  0  0  0
  116.5031  106.8963  101.1339 H   0  0  0  0  0  0  0  0  0  0  0  0
  115.4086  105.5607  100.8952 H   0  0  0  0  0  0  0  0  0  0  0  0
  121.5866  103.3164  106.9851 H   0  0  0  0  0  0  0  0  0  0  0  0
  1  3  1  0  0  0  0
  1  6  2  0  0  0  0
  2  4  2  0  0  0  0
  2  6  1  0  0  0  0
  3  7  2  0  0  0  0
  4  7  1  0  0  0  0
  5  8  1  0  0  0  0
  5  9  2  0  0  0  0
  6 15  1  0  0  0  0
  7 18  1  0  0  0  0
  8 10  2  0  0  0  0
  8 19  1  0  0  0  0
  9 11  1  0  0  0  0
  9 14  1  0  0  0  0
 10 14  1  0  0  0  0
 10 20  1  0  0  0  0
 11 16  1  0  0  0  0
 11 17  2  0  0  0  0
 12 13  1  0  0  0  0
 12 16  1  0  0  0  0
 13 18  1  0  0  0  0
  1 21  1  0  0  0  0
  2 22  1  0  0  0  0
  3 23  1  0  0  0  0
  4 24  1  0  0  0  0
  5 25  1  0  0  0  0
 12 26  1  0  0  0  0
 12 27  1  0  0  0  0
 13 28  1  0  0  0  0
 13 29  1  0  0  0  0
 14 30  1  0  0  0  0
 15 31  1  0  0  0  0
 15 32  1  0  0  0  0
 16 33  1  0  0  0  0
M  END
> <FRED Chemgauss4 score>
-12.238177

$$$$
C55060960	P82932939
  -OEChem-05122015313D

 47 49  0     1  0  0  0  0  0999 V2000
  116.5774  105.0868  106.3415 C   0  0  0  0  0  0  0  0  0  0  0  0
  115.9119  104.1801  105.5138 C   0  0  0  0  0  0  0  0  0  0  0  0
  117.4478  104.6775  103.7149 C   0  0  0  0  0  0  0  0  0  0  0  0
  117.6827  105.7936  105.8585 C   0  0  0  0  0  0  0  0  0  0  0  0
  118.1112  105.5832  104.5450 C   0  0  0  0  0  0  0  0  0  0  0  0
  116.3462  103.9762  104.2036 C   0  0  0  0  0  0  0  0  0  0  0  0
  118.4051  106.7505  106.6930 C   0  0  0  0  0  0  0  0  0  0  0  0
  119.4656  107.4261  106.2236 C   0  0  0  0  0  0  0  0  0  0  0  0
  119.9328  107.2071  104.8149 C   0  0  0  0  0  0  0  0  0  0  0  0
  122.3301  107.2645  107.7099 C   0  0  0  0  0  0  0  0  0  0  0  0
  126.8966  107.7999  107.3250 C   0  0  0  0  0  0  0  0  0  0  0  0
  123.4914  104.3369  107.6323 C   0  0  0  0  0  0  0  0  0  0  0  0
  122.6623  105.0177  108.7183 C   0  0  0  0  0  0  0  0  0  0  0  0
  124.9785  104.6549  107.7799 C   0  0  0  0  0  0  0  0  0  0  0  0
  124.4960  106.7701  108.8644 C   0  0  0  0  0  0  0  0  0  0  0  0
  122.9855  106.5073  108.8295 C   0  0  1  0  0  0  0  0  0  0  0  0
  120.2234  108.4060  107.0456 C   0  0  0  0  0  0  0  0  0  0  0  0
  126.6402  106.3978  107.8273 C   0  0  0  0  0  0  0  0  0  0  0  0
  119.2215  106.2939  104.0607 N   0  0  0  0  0  0  0  0  0  0  0  0
  125.2086  106.1046  107.7627 N   0  0  1  0  0  0  0  0  0  0  0  0
  127.9842  108.3849  107.9374 N   0  0  0  0  0  0  0  0  0  0  0  0
  121.0358  107.6640  107.9829 N   0  0  0  0  0  0  0  0  0  0  0  0
  120.9034  107.8207  104.3732 O   0  0  0  0  0  0  0  0  0  0  0  0
  122.9531  107.4725  106.6753 O   0  0  0  0  0  0  0  0  0  0  0  0
  126.2406  108.3414  106.4394 O   0  0  0  0  0  0  0  0  0  0  0  0
  115.7037  103.1052  103.4142 F   0  0  0  0  0  0  0  0  0  0  0  0
  116.2241  105.2322  107.3594 H   0  0  0  0  0  0  0  0  0  0  0  0
  115.0534  103.6319  105.8909 H   0  0  0  0  0  0  0  0  0  0  0  0
  117.7777  104.5112  102.6931 H   0  0  0  0  0  0  0  0  0  0  0  0
  118.0557  106.8985  107.7101 H   0  0  0  0  0  0  0  0  0  0  0  0
  123.3390  103.2506  107.6845 H   0  0  0  0  0  0  0  0  0  0  0  0
  123.1396  104.6592  106.6448 H   0  0  0  0  0  0  0  0  0  0  0  0
  121.5895  104.8790  108.4974 H   0  0  0  0  0  0  0  0  0  0  0  0
  122.8326  104.5174  109.6860 H   0  0  0  0  0  0  0  0  0  0  0  0
  125.3244  104.2351  108.7316 H   0  0  0  0  0  0  0  0  0  0  0  0
  125.5423  104.1595  106.9793 H   0  0  0  0  0  0  0  0  0  0  0  0
  124.6926  107.8580  108.8514 H   0  0  0  0  0  0  0  0  0  0  0  0
  124.8887  106.4064  109.8298 H   0  0  0  0  0  0  0  0  0  0  0  0
  122.5340  106.8944  109.7752 H   0  0  0  0  0  0  0  0  0  0  0  0
  119.5194  109.0498  107.5785 H   0  0  0  0  0  0  0  0  0  0  0  0
  120.8545  109.0129  106.3917 H   0  0  0  0  0  0  0  0  0  0  0  0
  126.9614  106.2906  108.8669 H   0  0  0  0  0  0  0  0  0  0  0  0
  127.1721  105.6804  107.1964 H   0  0  0  0  0  0  0  0  0  0  0  0
  119.5179  106.1274  103.1031 H   0  0  0  0  0  0  0  0  0  0  0  0
  128.5184  107.8846  108.6400 H   0  0  0  0  0  0  0  0  0  0  0  0
  128.2931  109.3257  107.7141 H   0  0  0  0  0  0  0  0  0  0  0  0
  120.6362  107.4248  108.8854 H   0  0  0  0  0  0  0  0  0  0  0  0
  1  2  1  0  0  0  0
  1  4  2  0  0  0  0
  2  6  2  0  0  0  0
  3  5  2  0  0  0  0
  3  6  1  0  0  0  0
  4  5  1  0  0  0  0
  4  7  1  0  0  0  0
  5 19  1  0  0  0  0
  6 26  1  0  0  0  0
  7  8  2  0  0  0  0
  8  9  1  0  0  0  0
  8 17  1  0  0  0  0
  9 19  1  0  0  0  0
  9 23  2  0  0  0  0
 10 16  1  0  0  0  0
 10 22  1  0  0  0  0
 10 24  2  0  0  0  0
 11 18  1  0  0  0  0
 11 21  1  0  0  0  0
 11 25  2  0  0  0  0
 12 13  1  0  0  0  0
 12 14  1  0  0  0  0
 13 16  1  0  0  0  0
 14 20  1  0  0  0  0
 15 16  1  0  0  0  0
 15 20  1  0  0  0  0
 17 22  1  0  0  0  0
 18 20  1  0  0  0  0
  1 27  1  0  0  0  0
  2 28  1  0  0  0  0
  3 29  1  0  0  0  0
  7 30  1  0  0  0  0
 12 31  1  0  0  0  0
 12 32  1  0  0  0  0
 13 33  1  0  0  0  0
 13 34  1  0  0  0  0
 14 35  1  0  0  0  0
 14 36  1  0  0  0  0
 15 37  1  0  0  0  0
 15 38  1  0  0  0  0
 16 39  1  0  0  0  0
 17 40  1  0  0  0  0
 17 41  1  0  0  0  0
 18 42  1  0  0  0  0
 18 43  1  0  0  0  0
 19 44  1  0  0  0  0
 21 45  1  0  0  0  0
 21 46  1  0  0  0  0
 22 47  1  0  0  0  0
M  END
> <FRED Chemgauss4 score>
-12.166073

$$$$
C93688486	P146754841
  -OEChem-05122015313D

 41 43  0     1  0  0  0  0  0999 V2000
  123.7546  106.3377  106.6065 C   0  0  0  0  0  0  0  0  0  0  0  0
  125.7503  105.9585  107.7360 C   0  0  0  0  0  0  0  0  0  0  0  0
  124.9466  106.9062  107.1413 C   0  0  0  0  0  0  0  0  0  0  0  0
  123.6927  104.9769  106.8126 C   0  0  0  0  0  0  0  0  0  0  0  0
  125.3040  108.2994  107.0865 C   0  0  0  0  0  0  0  0  0  0  0  0
  115.7602  104.9262  102.5820 C   0  0  0  0  0  0  0  0  0  0  0  0
  115.2643  104.5666  103.9875 C   0  0  0  0  0  0  0  0  0  0  0  0
  117.2856  104.8008  102.6364 C   0  0  0  0  0  0  0  0  0  0  0  0
  118.8604  104.2815  104.4659 C   0  0  0  0  0  0  0  0  0  0  0  0
  116.5684  104.0664  106.1616 C   0  0  0  0  0  0  0  0  0  0  0  0
  116.4895  103.9690  104.6499 C   0  0  2  0  0  0  0  0  0  0  0  0
  118.9292  104.3182  106.0046 C   0  0  2  0  0  0  0  0  0  0  0  0
  122.6105  104.0186  106.4070 C   0  0  0  0  0  0  0  0  0  0  0  0
  120.2322  103.7108  106.5062 C   0  0  0  0  0  0  0  0  0  0  0  0
  117.5540  104.7894  104.0675 N   0  0  2  0  0  0  0  0  0  0  0  0
  126.5158  108.6957  107.6621 N   0  0  0  0  0  0  0  0  0  0  0  0
  121.2898  104.6590  106.3845 N   0  0  0  0  0  0  0  0  0  0  0  0
  124.5590  109.1549  106.5581 O   0  0  0  0  0  0  0  0  0  0  0  0
  117.8465  103.5701  106.5862 O   0  0  0  0  0  0  0  0  0  0  0  0
  125.0676  104.3905  107.6481 S   0  0  0  0  0  0  0  0  0  0  0  0
  122.9808  106.8979  106.0958 H   0  0  0  0  0  0  0  0  0  0  0  0
  126.7069  106.1047  108.2189 H   0  0  0  0  0  0  0  0  0  0  0  0
  115.3432  104.2463  101.8313 H   0  0  0  0  0  0  0  0  0  0  0  0
  115.4527  105.9457  102.3243 H   0  0  0  0  0  0  0  0  0  0  0  0
  114.9264  105.4728  104.5052 H   0  0  0  0  0  0  0  0  0  0  0  0
  114.4256  103.8641  103.9550 H   0  0  0  0  0  0  0  0  0  0  0  0
  117.5995  103.8676  102.1527 H   0  0  0  0  0  0  0  0  0  0  0  0
  117.7776  105.6380  102.1322 H   0  0  0  0  0  0  0  0  0  0  0  0
  119.6566  104.9055  104.0443 H   0  0  0  0  0  0  0  0  0  0  0  0
  119.0033  103.2552  104.1034 H   0  0  0  0  0  0  0  0  0  0  0  0
  116.4375  105.0920  106.5276 H   0  0  0  0  0  0  0  0  0  0  0  0
  115.7967  103.4448  106.6267 H   0  0  0  0  0  0  0  0  0  0  0  0
  116.6064  102.9194  104.3414 H   0  0  0  0  0  0  0  0  0  0  0  0
  118.8644  105.3538  106.3642 H   0  0  0  0  0  0  0  0  0  0  0  0
  122.8067  103.6150  105.4077 H   0  0  0  0  0  0  0  0  0  0  0  0
  122.5590  103.1693  107.0965 H   0  0  0  0  0  0  0  0  0  0  0  0
  120.4663  102.8380  105.9084 H   0  0  0  0  0  0  0  0  0  0  0  0
  120.1194  103.4359  107.5477 H   0  0  0  0  0  0  0  0  0  0  0  0
  127.1049  107.9952  108.0992 H   0  0  0  0  0  0  0  0  0  0  0  0
  126.8233  109.6629  107.6557 H   0  0  0  0  0  0  0  0  0  0  0  0
  121.2107  105.1851  105.5022 H   0  0  0  0  0  0  0  0  0  0  0  0
  1  3  1  0  0  0  0
  1  4  2  0  0  0  0
  2  3  2  0  0  0  0
  2 20  1  0  0  0  0
  3  5  1  0  0  0  0
  4 13  1  0  0  0  0
  4 20  1  0  0  0  0
  5 16  1  0  0  0  0
  5 18  2  0  0  0  0
  6  7  1  0  0  0  0
  6  8  1  0  0  0  0
  7 11  1  0  0  0  0
  8 15  1  0  0  0  0
  9 12  1  0  0  0  0
  9 15  1  0  0  0  0
 10 11  1  0  0  0  0
 10 19  1  0  0  0  0
 11 15  1  0  0  0  0
 12 14  1  0  0  0  0
 12 19  1  0  0  0  0
 13 17  1  0  0  0  0
 14 17  1  0  0  0  0
  1 21  1  0  0  0  0
  2 22  1  0  0  0  0
  6 23  1  0  0  0  0
  6 24  1  0  0  0  0
  7 25  1  0  0  0  0
  7 26  1  0  0  0  0
  8 27  1  0  0  0  0
  8 28  1  0  0  0  0
  9 29  1  0  0  0  0
  9 30  1  0  0  0  0
 10 31  1  0  0  0  0
 10 32  1  0  0  0  0
 11 33  1  0  0  0  0
 12 34  1  0  0  0  0
 13 35  1  0  0  0  0
 13 36  1  0  0  0  0
 14 37  1  0  0  0  0
 14 38  1  0  0  0  0
 16 39  1  0  0  0  0
 16 40  1  0  0  0  0
 17 41  1  0  0  0  0
M  END
> <FRED Chemgauss4 score>
-12.098417

$$$$
C82161598	P128260631
  -OEChem-05122015313D

 51 53  0     1  0  0  0  0  0999 V2000
  125.8654  104.6685  108.4085 C   0  0  0  0  0  0  0  0  0  0  0  0
  124.6831  103.9905  108.1054 C   0  0  0  0  0  0  0  0  0  0  0  0
  125.2051  106.4966  106.9685 C   0  0  0  0  0  0  0  0  0  0  0  0
  124.0221  105.8177  106.6653 C   0  0  0  0  0  0  0  0  0  0  0  0
  126.1249  105.9169  107.8418 C   0  0  0  0  0  0  0  0  0  0  0  0
  123.7502  104.5573  107.2315 C   0  0  0  0  0  0  0  0  0  0  0  0
  121.6482  104.4486  106.0587 C   0  0  0  0  0  0  0  0  0  0  0  0
  123.0280  106.4210  105.7341 C   0  0  0  0  0  0  0  0  0  0  0  0
  121.7911  105.6356  105.4594 C   0  0  0  0  0  0  0  0  0  0  0  0
  120.7148  106.0999  104.5619 C   0  0  0  0  0  0  0  0  0  0  0  0
  117.1798  109.1694  107.3014 C   0  0  0  0  0  0  0  0  0  0  0  0
  118.2493  106.0603  104.3391 C   0  0  0  0  0  0  0  0  0  0  0  0
  119.1425  106.6063  106.5081 C   0  0  0  0  0  0  0  0  0  0  0  0
  117.1165  105.9773  105.3645 C   0  0  2  0  0  0  0  0  0  0  0  0
  117.6338  106.8535  106.5159 C   0  0  2  0  0  0  0  0  0  0  0  0
  127.3914  106.6326  108.1719 C   0  0  0  0  0  0  0  0  0  0  0  0
  116.8764  110.5529  106.8300 C   0  0  0  0  0  0  0  0  0  0  0  0
  115.1587  104.1487  104.0207 C   0  0  0  0  0  0  0  0  0  0  0  0
  116.8737  104.5360  105.8147 C   0  0  0  0  0  0  0  0  0  0  0  0
  116.4556  103.6560  104.6425 C   0  0  0  0  0  0  0  0  0  0  0  0
  122.5593  103.8933  106.9135 N   0  0  0  0  0  0  0  0  0  0  0  0
  119.4617  106.2526  105.1242 N   0  0  0  0  0  0  0  0  0  0  0  0
  117.3346  108.2487  106.2824 N   0  0  0  0  0  0  0  0  0  0  0  0
  123.2209  107.5143  105.2176 O   0  0  0  0  0  0  0  0  0  0  0  0
  120.9820  106.3187  103.3807 O   0  0  0  0  0  0  0  0  0  0  0  0
  117.2700  108.9467  108.5031 O   0  0  0  0  0  0  0  0  0  0  0  0
  126.5817  104.2140  109.0882 H   0  0  0  0  0  0  0  0  0  0  0  0
  124.4976  103.0186  108.5557 H   0  0  0  0  0  0  0  0  0  0  0  0
  125.4177  107.4694  106.5329 H   0  0  0  0  0  0  0  0  0  0  0  0
  120.7798  103.8159  105.9126 H   0  0  0  0  0  0  0  0  0  0  0  0
  118.3371  105.1758  103.7000 H   0  0  0  0  0  0  0  0  0  0  0  0
  118.1372  106.9400  103.6949 H   0  0  0  0  0  0  0  0  0  0  0  0
  119.7268  107.4749  106.8275 H   0  0  0  0  0  0  0  0  0  0  0  0
  119.4072  105.7466  107.1333 H   0  0  0  0  0  0  0  0  0  0  0  0
  116.1837  106.3627  104.9375 H   0  0  0  0  0  0  0  0  0  0  0  0
  117.1854  106.6003  107.4803 H   0  0  0  0  0  0  0  0  0  0  0  0
  128.1810  106.3583  107.4618 H   0  0  0  0  0  0  0  0  0  0  0  0
  127.2544  107.7211  108.1367 H   0  0  0  0  0  0  0  0  0  0  0  0
  127.7343  106.3881  109.1856 H   0  0  0  0  0  0  0  0  0  0  0  0
  115.7943  110.7361  106.7325 H   0  0  0  0  0  0  0  0  0  0  0  0
  117.2406  111.3241  107.5277 H   0  0  0  0  0  0  0  0  0  0  0  0
  117.3052  110.8220  105.8515 H   0  0  0  0  0  0  0  0  0  0  0  0
  114.3513  104.1663  104.7597 H   0  0  0  0  0  0  0  0  0  0  0  0
  114.8560  103.4883  103.2020 H   0  0  0  0  0  0  0  0  0  0  0  0
  115.2765  105.1590  103.6162 H   0  0  0  0  0  0  0  0  0  0  0  0
  117.7906  104.1510  106.2691 H   0  0  0  0  0  0  0  0  0  0  0  0
  116.0973  104.5349  106.5847 H   0  0  0  0  0  0  0  0  0  0  0  0
  117.2416  103.6505  103.8781 H   0  0  0  0  0  0  0  0  0  0  0  0
  116.3231  102.6210  104.9787 H   0  0  0  0  0  0  0  0  0  0  0  0
  122.3596  102.9891  107.3194 H   0  0  0  0  0  0  0  0  0  0  0  0
  117.2332  108.5675  105.3233 H   0  0  0  0  0  0  0  0  0  0  0  0
  1  2  2  0  0  0  0
  1  5  1  0  0  0  0
  2  6  1  0  0  0  0
  3  4  1  0  0  0  0
  3  5  2  0  0  0  0
  4  6  2  0  0  0  0
  4  8  1  0  0  0  0
  5 16  1  0  0  0  0
  6 21  1  0  0  0  0
  7  9  2  0  0  0  0
  7 21  1  0  0  0  0
  8  9  1  0  0  0  0
  8 24  2  0  0  0  0
  9 10  1  0  0  0  0
 10 22  1  0  0  0  0
 10 25  2  0  0  0  0
 11 17  1  0  0  0  0
 11 23  1  0  0  0  0
 11 26  2  0  0  0  0
 12 14  1  0  0  0  0
 12 22  1  0  0  0  0
 13 15  1  0  0  0  0
 13 22  1  0  0  0  0
 14 15  1  0  0  0  0
 14 19  1  0  0  0  0
 15 23  1  0  0  0  0
 18 20  1  0  0  0  0
 19 20  1  0  0  0  0
  1 27  1  0  0  0  0
  2 28  1  0  0  0  0
  3 29  1  0  0  0  0
  7 30  1  0  0  0  0
 12 31  1  0  0  0  0
 12 32  1  0  0  0  0
 13 33  1  0  0  0  0
 13 34  1  0  0  0  0
 14 35  1  0  0  0  0
 15 36  1  0  0  0  0
 16 37  1  0  0  0  0
 16 38  1  0  0  0  0
 16 39  1  0  0  0  0
 17 40  1  0  0  0  0
 17 41  1  0  0  0  0
 17 42  1  0  0  0  0
 18 43  1  0  0  0  0
 18 44  1  0  0  0  0
 18 45  1  0  0  0  0
 19 46  1  0  0  0  0
 19 47  1  0  0  0  0
 20 48  1  0  0  0  0
 20 49  1  0  0  0  0
 21 50  1  0  0  0  0
 23 51  1  0  0  0  0
M  END
> <FRED Chemgauss4 score>
-12.098066

$$$$
C80530259	P125734626
  -OEChem-05122015313D

 37 38  0     0  0  0  0  0  0999 V2000
  124.8922  106.8899  107.2870 C   0  0  0  0  0  0  0  0  0  0  0  0
  124.8165  104.5156  107.7272 C   0  0  0  0  0  0  0  0  0  0  0  0
  125.9414  107.0250  108.1962 C   0  0  0  0  0  0  0  0  0  0  0  0
  125.8657  104.6507  108.6363 C   0  0  0  0  0  0  0  0  0  0  0  0
  115.6009  106.6736  103.7021 C   0  0  0  0  0  0  0  0  0  0  0  0
  124.3297  105.6352  107.0525 C   0  0  0  0  0  0  0  0  0  0  0  0
  126.4281  105.9054  108.8708 C   0  0  0  0  0  0  0  0  0  0  0  0
  116.8904  105.6686  104.9999 C   0  0  0  0  0  0  0  0  0  0  0  0
  123.2123  105.4913  106.0842 C   0  0  0  0  0  0  0  0  0  0  0  0
  119.9964  104.8852  105.9251 C   0  0  0  0  0  0  0  0  0  0  0  0
  118.6786  102.9594  105.0107 C   0  0  0  0  0  0  0  0  0  0  0  0
  117.4988  104.8349  106.0902 C   0  0  0  0  0  0  0  0  0  0  0  0
  121.2304  104.1437  105.4421 C   0  0  0  0  0  0  0  0  0  0  0  0
  115.6071  105.8539  104.7942 N   0  0  0  0  0  0  0  0  0  0  0  0
  117.6067  106.3514  104.0670 N   0  0  0  0  0  0  0  0  0  0  0  0
  116.7996  107.0071  103.2191 N   0  0  0  0  0  0  0  0  0  0  0  0
  127.4889  106.0421  109.7901 N   0  0  0  0  0  0  0  0  0  0  0  0
  122.3422  104.4279  106.3036 N   0  0  0  0  0  0  0  0  0  0  0  0
  118.7719  104.2519  105.6851 N   0  0  0  0  0  0  0  0  0  0  0  0
  123.1227  106.2829  105.1494 O   0  0  0  0  0  0  0  0  0  0  0  0
  120.0972  105.9762  106.4927 O   0  0  0  0  0  0  0  0  0  0  0  0
  124.5207  107.7690  106.7667 H   0  0  0  0  0  0  0  0  0  0  0  0
  124.3856  103.5331  107.5521 H   0  0  0  0  0  0  0  0  0  0  0  0
  126.3723  108.0075  108.3713 H   0  0  0  0  0  0  0  0  0  0  0  0
  126.2374  103.7716  109.1567 H   0  0  0  0  0  0  0  0  0  0  0  0
  114.6825  107.0311  103.2551 H   0  0  0  0  0  0  0  0  0  0  0  0
  118.7240  102.1492  105.7431 H   0  0  0  0  0  0  0  0  0  0  0  0
  119.5042  102.8414  104.3037 H   0  0  0  0  0  0  0  0  0  0  0  0
  117.7351  102.8861  104.4630 H   0  0  0  0  0  0  0  0  0  0  0  0
  117.6749  105.4399  106.9863 H   0  0  0  0  0  0  0  0  0  0  0  0
  116.8315  104.0154  106.3771 H   0  0  0  0  0  0  0  0  0  0  0  0
  121.0594  103.0645  105.4682 H   0  0  0  0  0  0  0  0  0  0  0  0
  121.5019  104.4710  104.4352 H   0  0  0  0  0  0  0  0  0  0  0  0
  117.1459  107.5752  102.4509 H   0  0  0  0  0  0  0  0  0  0  0  0
  127.9146  106.9384  109.9143 H   0  0  0  0  0  0  0  0  0  0  0  0
  127.8598  105.2251  110.2317 H   0  0  0  0  0  0  0  0  0  0  0  0
  122.5244  103.7790  107.0685 H   0  0  0  0  0  0  0  0  0  0  0  0
  1  3  2  0  0  0  0
  1  6  1  0  0  0  0
  2  4  1  0  0  0  0
  2  6  2  0  0  0  0
  3  7  1  0  0  0  0
  4  7  2  0  0  0  0
  5 14  2  0  0  0  0
  5 16  1  0  0  0  0
  6  9  1  0  0  0  0
  7 17  1  0  0  0  0
  8 12  1  0  0  0  0
  8 14  1  0  0  0  0
  8 15  2  0  0  0  0
  9 18  1  0  0  0  0
  9 20  2  0  0  0  0
 10 13  1  0  0  0  0
 10 19  1  0  0  0  0
 10 21  2  0  0  0  0
 11 19  1  0  0  0  0
 12 19  1  0  0  0  0
 13 18  1  0  0  0  0
 15 16  1  0  0  0  0
  1 22  1  0  0  0  0
  2 23  1  0  0  0  0
  3 24  1  0  0  0  0
  4 25  1  0  0  0  0
  5 26  1  0  0  0  0
 11 27  1  0  0  0  0
 11 28  1  0  0  0  0
 11 29  1  0  0  0  0
 12 30  1  0  0  0  0
 12 31  1  0  0  0  0
 13 32  1  0  0  0  0
 13 33  1  0  0  0  0
 16 34  1  0  0  0  0
 17 35  1  0  0  0  0
 17 36  1  0  0  0  0
 18 37  1  0  0  0  0
M  END
> <FRED Chemgauss4 score>
-12.074480

$$$$
C31369269	P118184604
  -OEChem-05122015313D

 49 51  0     1  0  0  0  0  0999 V2000
  115.6219  105.7323  105.2637 C   0  0  0  0  0  0  0  0  0  0  0  0
  114.9098  106.7615  104.6843 C   0  0  0  0  0  0  0  0  0  0  0  0
  117.0299  105.8911  105.0939 C   0  0  0  0  0  0  0  0  0  0  0  0
  117.3206  107.0450  104.3950 C   0  0  0  0  0  0  0  0  0  0  0  0
  125.0073  105.4984  108.1126 C   0  0  0  0  0  0  0  0  0  0  0  0
  125.4667  105.7293  106.8628 C   0  0  0  0  0  0  0  0  0  0  0  0
  125.6950  106.1947  109.2457 C   0  0  0  0  0  0  0  0  0  0  0  0
  127.0966  107.1740  107.5470 C   0  0  0  0  0  0  0  0  0  0  0  0
  122.5923  105.1811  107.8561 C   0  0  0  0  0  0  0  0  0  0  0  0
  118.1068  104.9838  105.6083 C   0  0  0  0  0  0  0  0  0  0  0  0
  118.7067  107.4697  104.0379 C   0  0  0  0  0  0  0  0  0  0  0  0
  119.7320  106.6438  104.8400 C   0  0  0  0  0  0  0  0  0  0  0  0
  124.8856  105.0606  105.6441 C   0  0  0  0  0  0  0  0  0  0  0  0
  128.2473  108.1045  107.2947 C   0  0  0  0  0  0  0  0  0  0  0  0
  120.3801  102.9913  104.8958 C   0  0  0  0  0  0  0  0  0  0  0  0
  123.8568  104.6342  108.4897 C   0  0  0  0  0  0  0  0  0  0  0  0
  120.3777  104.4724  106.9702 C   0  0  0  0  0  0  0  0  0  0  0  0
  120.4441  104.4140  105.4425 C   0  0  2  0  0  0  0  0  0  0  0  0
  126.5165  106.5720  106.5593 N   0  0  0  0  0  0  0  0  0  0  0  0
  126.7308  107.0193  108.8618 N   0  0  0  0  0  0  0  0  0  0  0  0
  119.3644  105.2124  104.8617 N   0  0  1  0  0  0  0  0  0  0  0  0
  121.6615  104.1947  107.5731 N   0  0  0  0  0  0  0  0  0  0  0  0
  125.3526  106.0301  110.4133 O   0  0  0  0  0  0  0  0  0  0  0  0
  122.4419  106.3815  107.6341 O   0  0  0  0  0  0  0  0  0  0  0  0
  115.9353  107.9160  103.9409 S   0  0  0  0  0  0  0  0  0  0  0  0
  115.1529  104.9083  105.7861 H   0  0  0  0  0  0  0  0  0  0  0  0
  113.8370  106.8912  104.6636 H   0  0  0  0  0  0  0  0  0  0  0  0
  118.2448  105.1710  106.6812 H   0  0  0  0  0  0  0  0  0  0  0  0
  117.7910  103.9416  105.4810 H   0  0  0  0  0  0  0  0  0  0  0  0
  118.8644  107.3048  102.9644 H   0  0  0  0  0  0  0  0  0  0  0  0
  118.8574  108.5360  104.2399 H   0  0  0  0  0  0  0  0  0  0  0  0
  120.7144  106.7803  104.3712 H   0  0  0  0  0  0  0  0  0  0  0  0
  119.8063  107.0331  105.8648 H   0  0  0  0  0  0  0  0  0  0  0  0
  124.0794  105.6726  105.2524 H   0  0  0  0  0  0  0  0  0  0  0  0
  124.5060  104.0818  105.9212 H   0  0  0  0  0  0  0  0  0  0  0  0
  125.6629  104.9485  104.8945 H   0  0  0  0  0  0  0  0  0  0  0  0
  127.8702  109.1124  107.1404 H   0  0  0  0  0  0  0  0  0  0  0  0
  128.7900  107.7778  106.4107 H   0  0  0  0  0  0  0  0  0  0  0  0
  128.9174  108.0917  108.1510 H   0  0  0  0  0  0  0  0  0  0  0  0
  119.4485  102.4871  105.1749 H   0  0  0  0  0  0  0  0  0  0  0  0
  120.4286  102.9979  103.8011 H   0  0  0  0  0  0  0  0  0  0  0  0
  121.2187  102.3931  105.2669 H   0  0  0  0  0  0  0  0  0  0  0  0
  123.7175  104.6376  109.5754 H   0  0  0  0  0  0  0  0  0  0  0  0
  124.0554  103.6046  108.1782 H   0  0  0  0  0  0  0  0  0  0  0  0
  119.6513  103.7416  107.3430 H   0  0  0  0  0  0  0  0  0  0  0  0
  120.0392  105.4627  107.2938 H   0  0  0  0  0  0  0  0  0  0  0  0
  121.3966  104.8561  105.1273 H   0  0  0  0  0  0  0  0  0  0  0  0
  127.2413  107.5303  109.5762 H   0  0  0  0  0  0  0  0  0  0  0  0
  121.8920  103.2321  107.7996 H   0  0  0  0  0  0  0  0  0  0  0  0
  1  2  2  0  0  0  0
  1  3  1  0  0  0  0
  2 25  1  0  0  0  0
  3  4  2  0  0  0  0
  3 10  1  0  0  0  0
  4 11  1  0  0  0  0
  4 25  1  0  0  0  0
  5  6  2  0  0  0  0
  5  7  1  0  0  0  0
  5 16  1  0  0  0  0
  6 13  1  0  0  0  0
  6 19  1  0  0  0  0
  7 20  1  0  0  0  0
  7 23  2  0  0  0  0
  8 14  1  0  0  0  0
  8 19  2  0  0  0  0
  8 20  1  0  0  0  0
  9 16  1  0  0  0  0
  9 22  1  0  0  0  0
  9 24  2  0  0  0  0
 10 21  1  0  0  0  0
 11 12  1  0  0  0  0
 12 21  1  0  0  0  0
 15 18  1  0  0  0  0
 17 18  1  0  0  0  0
 17 22  1  0  0  0  0
 18 21  1  0  0  0  0
  1 26  1  0  0  0  0
  2 27  1  0  0  0  0
 10 28  1  0  0  0  0
 10 29  1  0  0  0  0
 11 30  1  0  0  0  0
 11 31  1  0  0  0  0
 12 32  1  0  0  0  0
 12 33  1  0  0  0  0
 13 34  1  0  0  0  0
 13 35  1  0  0  0  0
 13 36  1  0  0  0  0
 14 37  1  0  0  0  0
 14 38  1  0  0  0  0
 14 39  1  0  0  0  0
 15 40  1  0  0  0  0
 15 41  1  0  0  0  0
 15 42  1  0  0  0  0
 16 43  1  0  0  0  0
 16 44  1  0  0  0  0
 17 45  1  0  0  0  0
 17 46  1  0  0  0  0
 18 47  1  0  0  0  0
 20 48  1  0  0  0  0
 22 49  1  0  0  0  0
M  END
> <FRED Chemgauss4 score>
-12.017130

$$$$
C89483857	P139880504
  -OEChem-05122015313D

 41 43  0     1  0  0  0  0  0999 V2000
  127.2351  106.8512  108.1488 C   0  0  0  0  0  0  0  0  0  0  0  0
  126.3430  107.2767  107.1628 C   0  0  0  0  0  0  0  0  0  0  0  0
  125.8203  104.9592  108.6533 C   0  0  0  0  0  0  0  0  0  0  0  0
  123.6560  104.7736  107.2426 C   0  0  0  0  0  0  0  0  0  0  0  0
  124.8957  105.3642  107.6604 C   0  0  0  0  0  0  0  0  0  0  0  0
  126.9786  105.7049  108.8875 C   0  0  0  0  0  0  0  0  0  0  0  0
  125.1762  106.5226  106.9292 C   0  0  0  0  0  0  0  0  0  0  0  0
  123.0418  105.4765  106.2335 C   0  0  0  0  0  0  0  0  0  0  0  0
  121.7585  105.1844  105.5444 C   0  0  0  0  0  0  0  0  0  0  0  0
  116.9331  105.9624  106.0149 C   0  0  0  0  0  0  0  0  0  0  0  0
  118.4076  105.7018  105.7030 C   0  0  0  0  0  0  0  0  0  0  0  0
  116.3462  104.6273  106.4694 C   0  0  0  0  0  0  0  0  0  0  0  0
  118.6690  104.2533  106.1243 C   0  0  1  0  0  0  0  0  0  0  0  0
  117.3094  103.5598  105.9437 C   0  0  2  0  0  0  0  0  0  0  0  0
  119.8382  103.6212  105.3859 C   0  0  0  0  0  0  0  0  0  0  0  0
  116.9742  103.1642  104.5054 C   0  0  0  0  0  0  0  0  0  0  0  0
  127.8900  105.2885  109.8812 N   0  0  0  0  0  0  0  0  0  0  0  0
  121.0701  104.0456  105.9665 N   0  0  0  0  0  0  0  0  0  0  0  0
  121.3791  105.9269  104.6426 O   0  0  0  0  0  0  0  0  0  0  0  0
  115.9003  102.2434  104.5335 O   0  0  0  0  0  0  0  0  0  0  0  0
  123.9394  106.8505  105.7732 S   0  0  0  0  0  0  0  0  0  0  0  0
  128.1359  107.4334  108.3299 H   0  0  0  0  0  0  0  0  0  0  0  0
  126.5517  108.1755  106.5895 H   0  0  0  0  0  0  0  0  0  0  0  0
  125.6226  104.0611  109.2348 H   0  0  0  0  0  0  0  0  0  0  0  0
  123.2420  103.8693  107.6725 H   0  0  0  0  0  0  0  0  0  0  0  0
  116.8132  106.7264  106.7902 H   0  0  0  0  0  0  0  0  0  0  0  0
  116.4193  106.3247  105.1173 H   0  0  0  0  0  0  0  0  0  0  0  0
  118.5890  105.8461  104.6313 H   0  0  0  0  0  0  0  0  0  0  0  0
  119.0609  106.3980  106.2396 H   0  0  0  0  0  0  0  0  0  0  0  0
  116.3301  104.5969  107.5662 H   0  0  0  0  0  0  0  0  0  0  0  0
  115.3169  104.4910  106.1235 H   0  0  0  0  0  0  0  0  0  0  0  0
  118.9087  104.2502  107.1973 H   0  0  0  0  0  0  0  0  0  0  0  0
  117.2532  102.6600  106.5675 H   0  0  0  0  0  0  0  0  0  0  0  0
  119.8104  103.9317  104.3475 H   0  0  0  0  0  0  0  0  0  0  0  0
  119.7664  102.5422  105.4577 H   0  0  0  0  0  0  0  0  0  0  0  0
  117.8406  102.6965  104.0403 H   0  0  0  0  0  0  0  0  0  0  0  0
  116.6806  104.0465  103.9390 H   0  0  0  0  0  0  0  0  0  0  0  0
  128.7382  105.8015  110.0100 H   0  0  0  0  0  0  0  0  0  0  0  0
  127.7174  104.4358  110.3735 H   0  0  0  0  0  0  0  0  0  0  0  0
  121.4935  103.4504  106.6834 H   0  0  0  0  0  0  0  0  0  0  0  0
  115.7031  102.0050  103.6113 H   0  0  0  0  0  0  0  0  0  0  0  0
  1  2  1  0  0  0  0
  1  6  2  0  0  0  0
  2  7  2  0  0  0  0
  3  5  2  0  0  0  0
  3  6  1  0  0  0  0
  4  5  1  0  0  0  0
  4  8  2  0  0  0  0
  5  7  1  0  0  0  0
  6 17  1  0  0  0  0
  7 21  1  0  0  0  0
  8  9  1  0  0  0  0
  8 21  1  0  0  0  0
  9 18  1  0  0  0  0
  9 19  2  0  0  0  0
 10 11  1  0  0  0  0
 10 12  1  0  0  0  0
 11 13  1  0  0  0  0
 12 14  1  0  0  0  0
 13 14  1  0  0  0  0
 13 15  1  0  0  0  0
 14 16  1  0  0  0  0
 15 18  1  0  0  0  0
 16 20  1  0  0  0  0
  1 22  1  0  0  0  0
  2 23  1  0  0  0  0
  3 24  1  0  0  0  0
  4 25  1  0  0  0  0
 10 26  1  0  0  0  0
 10 27  1  0  0  0  0
 11 28  1  0  0  0  0
 11 29  1  0  0  0  0
 12 30  1  0  0  0  0
 12 31  1  0  0  0  0
 13 32  1  0  0  0  0
 14 33  1  0  0  0  0
 15 34  1  0  0  0  0
 15 35  1  0  0  0  0
 16 36  1  0  0  0  0
 16 37  1  0  0  0  0
 17 38  1  0  0  0  0
 17 39  1  0  0  0  0
 18 40  1  0  0  0  0
 20 41  1  0  0  0  0
M  END
> <FRED Chemgauss4 score>
-11.996209

$$$$
C44924196	P67720670
  -OEChem-05122015313D

 40 41  0     1  0  0  0  0  0999 V2000
  123.6284  105.0049  106.1154 C   0  0  0  0  0  0  0  0  0  0  0  0
  124.5472  106.0542  106.1350 C   0  0  0  0  0  0  0  0  0  0  0  0
  123.3907  107.0315  108.0178 C   0  0  0  0  0  0  0  0  0  0  0  0
  122.5908  104.9689  107.0469 C   0  0  0  0  0  0  0  0  0  0  0  0
  122.4720  105.9822  107.9981 C   0  0  0  0  0  0  0  0  0  0  0  0
  124.4284  107.0675  107.0862 C   0  0  0  0  0  0  0  0  0  0  0  0
  119.3733  103.7103  106.2595 C   0  0  0  0  0  0  0  0  0  0  0  0
  118.5582  103.7870  104.9731 C   0  0  0  0  0  0  0  0  0  0  0  0
  121.0619  104.7086  104.7909 C   0  0  0  0  0  0  0  0  0  0  0  0
  120.8586  103.6250  105.8603 C   0  0  2  0  0  0  0  0  0  0  0  0
  121.2314  102.2332  105.3370 C   0  0  0  0  0  0  0  0  0  0  0  0
  127.5065  106.5493  107.8302 C   0  0  0  0  0  0  0  0  0  0  0  0
  121.4286  105.9652  108.9506 N   0  0  0  0  0  0  0  0  0  0  0  0
  121.6920  103.9215  107.0097 N   0  0  0  0  0  0  0  0  0  0  0  0
  126.7899  107.7889  108.1626 N   0  0  0  0  0  0  0  0  0  0  0  0
  119.0398  106.1383  103.8864 O   0  0  0  0  0  0  0  0  0  0  0  0
  119.7111  104.0465  102.6197 O   0  0  0  0  0  0  0  0  0  0  0  0
  126.1510  108.5284  105.7790 O   0  0  0  0  0  0  0  0  0  0  0  0
  124.9344  109.5247  107.7416 O   0  0  0  0  0  0  0  0  0  0  0  0
  119.5369  104.7782  103.8571 S   0  0  0  0  0  0  0  0  0  0  0  0
  125.5792  108.3804  107.1113 S   0  0  0  0  0  0  0  0  0  0  0  0
  123.7309  104.2210  105.3693 H   0  0  0  0  0  0  0  0  0  0  0  0
  125.3512  106.0728  105.4042 H   0  0  0  0  0  0  0  0  0  0  0  0
  123.2988  107.8222  108.7592 H   0  0  0  0  0  0  0  0  0  0  0  0
  119.1627  104.5722  106.9042 H   0  0  0  0  0  0  0  0  0  0  0  0
  119.0840  102.8068  106.8139 H   0  0  0  0  0  0  0  0  0  0  0  0
  118.3850  102.8027  104.5331 H   0  0  0  0  0  0  0  0  0  0  0  0
  117.6025  104.2938  105.1292 H   0  0  0  0  0  0  0  0  0  0  0  0
  121.2700  105.6986  105.2084 H   0  0  0  0  0  0  0  0  0  0  0  0
  121.8542  104.4342  104.0851 H   0  0  0  0  0  0  0  0  0  0  0  0
  122.2853  102.2119  105.0659 H   0  0  0  0  0  0  0  0  0  0  0  0
  120.6319  101.9971  104.4598 H   0  0  0  0  0  0  0  0  0  0  0  0
  121.0455  101.4880  106.1083 H   0  0  0  0  0  0  0  0  0  0  0  0
  127.5059  106.3936  106.7483 H   0  0  0  0  0  0  0  0  0  0  0  0
  127.0234  105.6934  108.3092 H   0  0  0  0  0  0  0  0  0  0  0  0
  128.5418  106.6066  108.1770 H   0  0  0  0  0  0  0  0  0  0  0  0
  121.3968  106.6789  109.6486 H   0  0  0  0  0  0  0  0  0  0  0  0
  120.7990  105.1900  108.9667 H   0  0  0  0  0  0  0  0  0  0  0  0
  121.6016  103.3257  107.8198 H   0  0  0  0  0  0  0  0  0  0  0  0
  126.7355  108.0240  109.1612 H   0  0  0  0  0  0  0  0  0  0  0  0
  1  2  2  0  0  0  0
  1  4  1  0  0  0  0
  2  6  1  0  0  0  0
  3  5  1  0  0  0  0
  3  6  2  0  0  0  0
  4  5  2  0  0  0  0
  4 14  1  0  0  0  0
  5 13  1  0  0  0  0
  6 21  1  0  0  0  0
  7  8  1  0  0  0  0
  7 10  1  0  0  0  0
  8 20  1  0  0  0  0
  9 10  1  0  0  0  0
  9 20  1  0  0  0  0
 10 11  1  0  0  0  0
 10 14  1  0  0  0  0
 12 15  1  0  0  0  0
 15 21  1  0  0  0  0
 16 20  2  0  0  0  0
 17 20  2  0  0  0  0
 18 21  2  0  0  0  0
 19 21  2  0  0  0  0
  1 22  1  0  0  0  0
  2 23  1  0  0  0  0
  3 24  1  0  0  0  0
  7 25  1  0  0  0  0
  7 26  1  0  0  0  0
  8 27  1  0  0  0  0
  8 28  1  0  0  0  0
  9 29  1  0  0  0  0
  9 30  1  0  0  0  0
 11 31  1  0  0  0  0
 11 32  1  0  0  0  0
 11 33  1  0  0  0  0
 12 34  1  0  0  0  0
 12 35  1  0  0  0  0
 12 36  1  0  0  0  0
 13 37  1  0  0  0  0
 13 38  1  0  0  0  0
 14 39  1  0  0  0  0
 15 40  1  0  0  0  0
M  END
> <FRED Chemgauss4 score>
-11.950683

$$$$
C85909496	P134507222
  -OEChem-05122015313D

 45 46  0     1  0  0  0  0  0999 V2000
  119.9615  104.5365  106.2522 C   0  0  0  0  0  0  0  0  0  0  0  0
  119.5493  106.9007  106.5314 C   0  0  0  0  0  0  0  0  0  0  0  0
  121.2398  104.6962  106.7870 C   0  0  0  0  0  0  0  0  0  0  0  0
  120.8277  107.0603  107.0663 C   0  0  0  0  0  0  0  0  0  0  0  0
  119.1163  105.6388  106.1244 C   0  0  0  0  0  0  0  0  0  0  0  0
  121.6729  105.9580  107.1940 C   0  0  0  0  0  0  0  0  0  0  0  0
  118.2176  107.0104  103.5946 C   0  0  0  0  0  0  0  0  0  0  0  0
  124.6914  108.5727  107.8626 C   0  0  2  0  0  0  0  0  0  0  0  0
  125.9929  107.8906  108.2903 C   0  0  1  0  0  0  0  0  0  0  0  0
  124.0888  107.9194  106.6147 C   0  0  2  0  0  0  0  0  0  0  0  0
  125.7523  106.3803  108.4272 C   0  0  2  0  0  0  0  0  0  0  0  0
  123.9752  106.4048  106.8006 C   0  0  1  0  0  0  0  0  0  0  0  0
  117.1567  108.0486  103.4451 C   0  0  0  0  0  0  0  0  0  0  0  0
  117.7493  105.4682  105.5532 C   0  0  0  0  0  0  0  0  0  0  0  0
  117.7301  105.6452  104.0300 C   0  0  0  0  0  0  0  0  0  0  0  0
  127.0235  105.6048  108.7537 C   0  0  0  0  0  0  0  0  0  0  0  0
  119.3867  107.2927  103.3655 O   0  0  0  0  0  0  0  0  0  0  0  0
  125.2258  105.8375  107.2086 O   0  0  0  0  0  0  0  0  0  0  0  0
  124.9195  109.9602  107.6457 O   0  0  0  0  0  0  0  0  0  0  0  0
  127.0052  108.1490  107.3184 O   0  0  0  0  0  0  0  0  0  0  0  0
  124.9093  108.1646  105.4737 O   0  0  0  0  0  0  0  0  0  0  0  0
  127.5480  106.0911  109.9761 O   0  0  0  0  0  0  0  0  0  0  0  0
  122.9273  106.1143  107.7202 O   0  0  0  0  0  0  0  0  0  0  0  0
  119.6324  103.5498  105.9376 H   0  0  0  0  0  0  0  0  0  0  0  0
  118.8976  107.7653  106.4355 H   0  0  0  0  0  0  0  0  0  0  0  0
  121.8936  103.8335  106.8843 H   0  0  0  0  0  0  0  0  0  0  0  0
  121.1590  108.0457  107.3818 H   0  0  0  0  0  0  0  0  0  0  0  0
  123.9734  108.4910  108.6871 H   0  0  0  0  0  0  0  0  0  0  0  0
  126.3408  108.3215  109.2358 H   0  0  0  0  0  0  0  0  0  0  0  0
  123.1075  108.3608  106.4091 H   0  0  0  0  0  0  0  0  0  0  0  0
  125.0281  106.1960  109.2311 H   0  0  0  0  0  0  0  0  0  0  0  0
  123.7187  105.9399  105.8415 H   0  0  0  0  0  0  0  0  0  0  0  0
  116.9800  108.6090  104.3766 H   0  0  0  0  0  0  0  0  0  0  0  0
  117.4122  108.8067  102.6883 H   0  0  0  0  0  0  0  0  0  0  0  0
  116.1727  107.6546  103.1470 H   0  0  0  0  0  0  0  0  0  0  0  0
  117.3481  104.4744  105.8142 H   0  0  0  0  0  0  0  0  0  0  0  0
  117.0497  106.1839  106.0170 H   0  0  0  0  0  0  0  0  0  0  0  0
  116.7097  105.5122  103.6515 H   0  0  0  0  0  0  0  0  0  0  0  0
  118.3700  104.8904  103.5576 H   0  0  0  0  0  0  0  0  0  0  0  0
  127.7612  105.7480  107.9636 H   0  0  0  0  0  0  0  0  0  0  0  0
  126.7972  104.5431  108.8564 H   0  0  0  0  0  0  0  0  0  0  0  0
  125.2364  110.3253  108.4872 H   0  0  0  0  0  0  0  0  0  0  0  0
  127.1130  109.1116  107.2835 H   0  0  0  0  0  0  0  0  0  0  0  0
  124.4756  107.7281  104.7247 H   0  0  0  0  0  0  0  0  0  0  0  0
  128.3556  105.5826  110.1622 H   0  0  0  0  0  0  0  0  0  0  0  0
  1  3  2  0  0  0  0
  1  5  1  0  0  0  0
  2  4  1  0  0  0  0
  2  5  2  0  0  0  0
  3  6  1  0  0  0  0
  4  6  2  0  0  0  0
  5 14  1  0  0  0  0
  6 23  1  0  0  0  0
  7 13  1  0  0  0  0
  7 15  1  0  0  0  0
  7 17  2  0  0  0  0
  8  9  1  0  0  0  0
  8 10  1  0  0  0  0
  8 19  1  0  0  0  0
  9 11  1  0  0  0  0
  9 20  1  0  0  0  0
 10 12  1  0  0  0  0
 10 21  1  0  0  0  0
 11 16  1  0  0  0  0
 11 18  1  0  0  0  0
 12 18  1  0  0  0  0
 12 23  1  0  0  0  0
 14 15  1  0  0  0  0
 16 22  1  0  0  0  0
  1 24  1  0  0  0  0
  2 25  1  0  0  0  0
  3 26  1  0  0  0  0
  4 27  1  0  0  0  0
  8 28  1  0  0  0  0
  9 29  1  0  0  0  0
 10 30  1  0  0  0  0
 11 31  1  0  0  0  0
 12 32  1  0  0  0  0
 13 33  1  0  0  0  0
 13 34  1  0  0  0  0
 13 35  1  0  0  0  0
 14 36  1  0  0  0  0
 14 37  1  0  0  0  0
 15 38  1  0  0  0  0
 15 39  1  0  0  0  0
 16 40  1  0  0  0  0
 16 41  1  0  0  0  0
 19 42  1  0  0  0  0
 20 43  1  0  0  0  0
 21 44  1  0  0  0  0
 22 45  1  0  0  0  0
M  END
> <FRED Chemgauss4 score>
-11.941437

$$$$
C93429035	P146298012
  -OEChem-05122015313D

 35 36  0     0  0  0  0  0  0999 V2000
  117.2369  104.2631  103.4751 C   0  0  0  0  0  0  0  0  0  0  0  0
  116.0843  104.6768  104.1428 C   0  0  0  0  0  0  0  0  0  0  0  0
  117.2549  104.5347  106.2515 C   0  0  0  0  0  0  0  0  0  0  0  0
  118.3986  103.9850  104.1956 C   0  0  0  0  0  0  0  0  0  0  0  0
  124.0005  105.9478  108.1671 C   0  0  0  0  0  0  0  0  0  0  0  0
  118.4075  104.1209  105.5838 C   0  0  0  0  0  0  0  0  0  0  0  0
  116.0933  104.8127  105.5310 C   0  0  0  0  0  0  0  0  0  0  0  0
  125.0346  105.0216  107.9333 C   0  0  0  0  0  0  0  0  0  0  0  0
  124.5969  106.9536  108.8876 C   0  0  0  0  0  0  0  0  0  0  0  0
  122.1236  105.2702  106.6346 C   0  0  0  0  0  0  0  0  0  0  0  0
  124.9564  103.7439  107.2026 C   0  0  0  0  0  0  0  0  0  0  0  0
  124.0781  108.2139  109.4472 C   0  0  0  0  0  0  0  0  0  0  0  0
  120.6198  105.4205  106.5482 C   0  0  0  0  0  0  0  0  0  0  0  0
  126.1996  105.4051  108.4623 N   0  0  0  0  0  0  0  0  0  0  0  0
  125.9012  106.5834  109.0356 N   0  0  0  0  0  0  0  0  0  0  0  0
  119.5464  103.5659  103.4846 N   0  0  0  0  0  0  0  0  0  0  0  0
  122.6444  105.8870  107.7659 N   0  0  0  0  0  0  0  0  0  0  0  0
  122.7417  104.6728  105.7570 O   0  0  0  0  0  0  0  0  0  0  0  0
  119.8694  103.7790  106.5587 S   0  0  0  0  0  0  0  0  0  0  0  0
  114.6709  105.3235  106.3545 Cl  0  0  0  0  0  0  0  0  0  0  0  0
  117.2167  104.1603  102.3929 H   0  0  0  0  0  0  0  0  0  0  0  0
  115.1861  104.8900  103.5691 H   0  0  0  0  0  0  0  0  0  0  0  0
  117.2539  104.6435  107.3344 H   0  0  0  0  0  0  0  0  0  0  0  0
  125.1725  103.8834  106.1299 H   0  0  0  0  0  0  0  0  0  0  0  0
  125.6708  102.9976  107.5922 H   0  0  0  0  0  0  0  0  0  0  0  0
  123.9581  103.2788  107.2839 H   0  0  0  0  0  0  0  0  0  0  0  0
  123.7001  108.0702  110.4738 H   0  0  0  0  0  0  0  0  0  0  0  0
  124.8506  109.0024  109.4844 H   0  0  0  0  0  0  0  0  0  0  0  0
  123.2516  108.6288  108.8432 H   0  0  0  0  0  0  0  0  0  0  0  0
  120.2715  105.9928  107.4134 H   0  0  0  0  0  0  0  0  0  0  0  0
  120.3164  105.9566  105.6445 H   0  0  0  0  0  0  0  0  0  0  0  0
  126.6407  107.0835  109.5133 H   0  0  0  0  0  0  0  0  0  0  0  0
  119.4835  103.4347  102.4969 H   0  0  0  0  0  0  0  0  0  0  0  0
  120.3685  103.3192  103.9944 H   0  0  0  0  0  0  0  0  0  0  0  0
  121.9733  106.3481  108.3763 H   0  0  0  0  0  0  0  0  0  0  0  0
  1  2  2  0  0  0  0
  1  4  1  0  0  0  0
  2  7  1  0  0  0  0
  3  6  1  0  0  0  0
  3  7  2  0  0  0  0
  4  6  2  0  0  0  0
  4 16  1  0  0  0  0
  5  8  1  0  0  0  0
  5  9  2  0  0  0  0
  5 17  1  0  0  0  0
  6 19  1  0  0  0  0
  7 20  1  0  0  0  0
  8 11  1  0  0  0  0
  8 14  2  0  0  0  0
  9 12  1  0  0  0  0
  9 15  1  0  0  0  0
 10 13  1  0  0  0  0
 10 17  1  0  0  0  0
 10 18  2  0  0  0  0
 13 19  1  0  0  0  0
 14 15  1  0  0  0  0
  1 21  1  0  0  0  0
  2 22  1  0  0  0  0
  3 23  1  0  0  0  0
 11 24  1  0  0  0  0
 11 25  1  0  0  0  0
 11 26  1  0  0  0  0
 12 27  1  0  0  0  0
 12 28  1  0  0  0  0
 12 29  1  0  0  0  0
 13 30  1  0  0  0  0
 13 31  1  0  0  0  0
 15 32  1  0  0  0  0
 16 33  1  0  0  0  0
 16 34  1  0  0  0  0
 17 35  1  0  0  0  0
M  END
> <FRED Chemgauss4 score>
-11.927350

$$$$
TFB-TBOA
  -OEChem-05122015313D

 47 48  0     1  0  0  0  0  0999 V2000
  125.0498  104.9057  107.6254 C   0  0  0  0  0  0  0  0  0  0  0  0
  119.1952  104.0438  104.3730 C   0  0  0  0  0  0  0  0  0  0  0  0
  118.7252  105.3839  106.3276 C   0  0  0  0  0  0  0  0  0  0  0  0
  125.3450  106.0241  108.4047 C   0  0  0  0  0  0  0  0  0  0  0  0
  117.8714  104.1857  103.9573 C   0  0  0  0  0  0  0  0  0  0  0  0
  117.4013  105.5258  105.9119 C   0  0  0  0  0  0  0  0  0  0  0  0
  123.7711  104.7454  107.0915 C   0  0  0  0  0  0  0  0  0  0  0  0
  123.0828  106.8221  108.1165 C   0  0  0  0  0  0  0  0  0  0  0  0
  119.6221  104.6429  105.5582 C   0  0  0  0  0  0  0  0  0  0  0  0
  116.9744  104.9267  104.7267 C   0  0  0  0  0  0  0  0  0  0  0  0
  124.3615  106.9823  108.6504 C   0  0  0  0  0  0  0  0  0  0  0  0
  122.7876  105.7036  107.3371 C   0  0  0  0  0  0  0  0  0  0  0  0
  121.0200  104.4941  105.9979 C   0  0  0  0  0  0  0  0  0  0  0  0
  121.9901  110.7248  111.1120 C   0  0  0  0  0  0  0  0  0  0  0  0
  123.5207  109.0329  112.8334 C   0  0  0  0  0  0  0  0  0  0  0  0
  124.6796  108.1853  109.4888 C   0  0  0  0  0  0  0  0  0  0  0  0
  123.4806  110.5921  110.8336 C   0  0  2  0  0  0  0  0  0  0  0  0
  124.0784  109.3232  111.4552 C   0  0  2  0  0  0  0  0  0  0  0  0
  115.5591  105.0791  104.2812 C   0  0  0  0  0  0  0  0  0  0  0  0
  124.1414  111.7725  111.4000 N   0  0  0  0  0  0  0  0  0  0  0  0
  121.5089  105.5433  106.8024 N   0  0  0  0  0  0  0  0  0  0  0  0
  121.6955  103.5302  105.6435 O   0  0  0  0  0  0  0  0  0  0  0  0
  121.4705  111.6172  111.7699 O   0  0  0  0  0  0  0  0  0  0  0  0
  122.8848  108.0363  113.1453 O   0  0  0  0  0  0  0  0  0  0  0  0
  121.2738  109.7136  110.5546 O   0  0  0  0  0  0  0  0  0  0  0  0
  123.7921  110.0494  113.6904 O   0  0  0  0  0  0  0  0  0  0  0  0
  123.8214  108.2013  110.6216 O   0  0  0  0  0  0  0  0  0  0  0  0
  115.2838  104.4413  103.1051 F   0  0  0  0  0  0  0  0  0  0  0  0
  114.6492  104.5884  105.1738 F   0  0  0  0  0  0  0  0  0  0  0  0
  115.2093  106.3831  104.0810 F   0  0  0  0  0  0  0  0  0  0  0  0
  125.8156  104.1597  107.4337 H   0  0  0  0  0  0  0  0  0  0  0  0
  119.8863  103.4645  103.7663 H   0  0  0  0  0  0  0  0  0  0  0  0
  119.0466  105.8550  107.2529 H   0  0  0  0  0  0  0  0  0  0  0  0
  126.3436  106.1398  108.8168 H   0  0  0  0  0  0  0  0  0  0  0  0
  117.5475  103.7159  103.0325 H   0  0  0  0  0  0  0  0  0  0  0  0
  116.7092  106.1054  106.5173 H   0  0  0  0  0  0  0  0  0  0  0  0
  123.5522  103.8697  106.4857 H   0  0  0  0  0  0  0  0  0  0  0  0
  122.3173  107.5703  108.3101 H   0  0  0  0  0  0  0  0  0  0  0  0
  125.7204  108.1613  109.8295 H   0  0  0  0  0  0  0  0  0  0  0  0
  124.5346  109.1071  108.9152 H   0  0  0  0  0  0  0  0  0  0  0  0
  123.6443  110.6236  109.7508 H   0  0  0  0  0  0  0  0  0  0  0  0
  125.1671  109.4163  111.5558 H   0  0  0  0  0  0  0  0  0  0  0  0
  123.6434  112.6327  111.3867 H   0  0  0  0  0  0  0  0  0  0  0  0
  125.1168  111.7137  111.5827 H   0  0  0  0  0  0  0  0  0  0  0  0
  120.8363  106.2864  107.0238 H   0  0  0  0  0  0  0  0  0  0  0  0
  120.3066  109.7453  110.7148 H   0  0  0  0  0  0  0  0  0  0  0  0
  123.4180  109.8858  114.5822 H   0  0  0  0  0  0  0  0  0  0  0  0
  1  4  2  0  0  0  0
  1  7  1  0  0  0  0
  2  5  1  0  0  0  0
  2  9  2  0  0  0  0
  3  6  2  0  0  0  0
  3  9  1  0  0  0  0
  4 11  1  0  0  0  0
  5 10  2  0  0  0  0
  6 10  1  0  0  0  0
  7 12  2  0  0  0  0
  8 11  2  0  0  0  0
  8 12  1  0  0  0  0
  9 13  1  0  0  0  0
 10 19  1  0  0  0  0
 11 16  1  0  0  0  0
 12 21  1  0  0  0  0
 13 21  1  0  0  0  0
 13 22  2  0  0  0  0
 14 17  1  0  0  0  0
 14 23  2  0  0  0  0
 14 25  1  0  0  0  0
 15 18  1  0  0  0  0
 15 24  2  0  0  0  0
 15 26  1  0  0  0  0
 16 27  1  0  0  0  0
 17 18  1  0  0  0  0
 17 20  1  0  0  0  0
 18 27  1  0  0  0  0
 19 28  1  0  0  0  0
 19 29  1  0  0  0  0
 19 30  1  0  0  0  0
  1 31  1  0  0  0  0
  2 32  1  0  0  0  0
  3 33  1  0  0  0  0
  4 34  1  0  0  0  0
  5 35  1  0  0  0  0
  6 36  1  0  0  0  0
  7 37  1  0  0  0  0
  8 38  1  0  0  0  0
 16 39  1  0  0  0  0
 16 40  1  0  0  0  0
 17 41  1  0  0  0  0
 18 42  1  0  0  0  0
 20 43  1  0  0  0  0
 20 44  1  0  0  0  0
 21 45  1  0  0  0  0
 25 46  1  0  0  0  0
 26 47  1  0  0  0  0
M  END
> <FRED Chemgauss4 score>
-11.926816

$$$$
C79000372	P123335450
  -OEChem-05122015313D

 39 40  0     1  0  0  0  0  0999 V2000
  119.6736  107.7724  104.6442 C   0  0  0  0  0  0  0  0  0  0  0  0
  118.4070  108.2155  104.2634 C   0  0  0  0  0  0  0  0  0  0  0  0
  117.7423  105.9353  103.8209 C   0  0  0  0  0  0  0  0  0  0  0  0
  119.0089  105.4922  104.2017 C   0  0  0  0  0  0  0  0  0  0  0  0
  119.9746  106.4107  104.6133 C   0  0  0  0  0  0  0  0  0  0  0  0
  117.4414  107.2970  103.8517 C   0  0  0  0  0  0  0  0  0  0  0  0
  119.2972  104.0648  104.1586 C   0  0  0  0  0  0  0  0  0  0  0  0
  124.6610  105.1205  107.8300 C   0  0  0  0  0  0  0  0  0  0  0  0
  123.3079  105.6918  107.4002 C   0  0  0  0  0  0  0  0  0  0  0  0
  125.6780  106.2038  108.1500 C   0  0  0  0  0  0  0  0  0  0  0  0
  124.3153  107.7503  106.3018 C   0  0  0  0  0  0  0  0  0  0  0  0
  123.4033  106.5389  106.1218 C   0  0  2  0  0  0  0  0  0  0  0  0
  121.3456  105.9609  105.0284 C   0  0  0  0  0  0  0  0  0  0  0  0
  119.0392  103.3814  105.2582 N   0  0  0  0  0  0  0  0  0  0  0  0
  119.8198  103.4379  103.0248 N   0  0  0  0  0  0  0  0  0  0  0  0
  122.0719  107.0066  105.7310 N   0  0  0  0  0  0  0  0  0  0  0  0
  126.5210  106.4656  105.6772 O   0  0  0  0  0  0  0  0  0  0  0  0
  126.6630  108.4469  107.2306 O   0  0  0  0  0  0  0  0  0  0  0  0
  118.5250  104.1974  106.2710 O   0  0  0  0  0  0  0  0  0  0  0  0
  116.2253  107.7226  103.4856 F   0  0  0  0  0  0  0  0  0  0  0  0
  125.9695  107.2663  106.7530 S   0  0  0  0  0  0  0  0  0  0  0  0
  120.4195  108.4958  104.9628 H   0  0  0  0  0  0  0  0  0  0  0  0
  118.1726  109.2756  104.2872 H   0  0  0  0  0  0  0  0  0  0  0  0
  116.9801  105.2304  103.4990 H   0  0  0  0  0  0  0  0  0  0  0  0
  124.5173  104.4933  108.7173 H   0  0  0  0  0  0  0  0  0  0  0  0
  125.0463  104.4670  107.0379 H   0  0  0  0  0  0  0  0  0  0  0  0
  122.6180  104.8540  107.2359 H   0  0  0  0  0  0  0  0  0  0  0  0
  122.8886  106.2884  108.2211 H   0  0  0  0  0  0  0  0  0  0  0  0
  125.3329  106.8352  108.9753 H   0  0  0  0  0  0  0  0  0  0  0  0
  126.6404  105.7644  108.4290 H   0  0  0  0  0  0  0  0  0  0  0  0
  124.3988  108.3297  105.3757 H   0  0  0  0  0  0  0  0  0  0  0  0
  123.9495  108.4162  107.0920 H   0  0  0  0  0  0  0  0  0  0  0  0
  123.7964  105.9090  105.3099 H   0  0  0  0  0  0  0  0  0  0  0  0
  121.2823  105.0907  105.6907 H   0  0  0  0  0  0  0  0  0  0  0  0
  121.9421  105.6652  104.1589 H   0  0  0  0  0  0  0  0  0  0  0  0
  120.0044  103.9453  102.1670 H   0  0  0  0  0  0  0  0  0  0  0  0
  119.9941  102.4386  103.0086 H   0  0  0  0  0  0  0  0  0  0  0  0
  121.5585  107.2736  106.5679 H   0  0  0  0  0  0  0  0  0  0  0  0
  118.3935  103.5561  106.9897 H   0  0  0  0  0  0  0  0  0  0  0  0
  1  2  1  0  0  0  0
  1  5  2  0  0  0  0
  2  6  2  0  0  0  0
  3  4  2  0  0  0  0
  3  6  1  0  0  0  0
  4  5  1  0  0  0  0
  4  7  1  0  0  0  0
  5 13  1  0  0  0  0
  6 20  1  0  0  0  0
  7 14  2  0  0  0  0
  7 15  1  0  0  0  0
  8  9  1  0  0  0  0
  8 10  1  0  0  0  0
  9 12  1  0  0  0  0
 10 21  1  0  0  0  0
 11 12  1  0  0  0  0
 11 21  1  0  0  0  0
 12 16  1  0  0  0  0
 13 16  1  0  0  0  0
 14 19  1  0  0  0  0
 17 21  2  0  0  0  0
 18 21  2  0  0  0  0
  1 22  1  0  0  0  0
  2 23  1  0  0  0  0
  3 24  1  0  0  0  0
  8 25  1  0  0  0  0
  8 26  1  0  0  0  0
  9 27  1  0  0  0  0
  9 28  1  0  0  0  0
 10 29  1  0  0  0  0
 10 30  1  0  0  0  0
 11 31  1  0  0  0  0
 11 32  1  0  0  0  0
 12 33  1  0  0  0  0
 13 34  1  0  0  0  0
 13 35  1  0  0  0  0
 15 36  1  0  0  0  0
 15 37  1  0  0  0  0
 16 38  1  0  0  0  0
 19 39  1  0  0  0  0
M  END
> <FRED Chemgauss4 score>
-11.924332

$$$$
cmpd10_frontiers2018	P10000039
  -OEChem-05122015313D

 48 50  0     1  0  0  0  0  0999 V2000
  126.3737  104.3326  109.0564 C   0  0  0  0  0  0  0  0  0  0  0  0
  116.6449  104.6982  102.5202 C   0  0  0  0  0  0  0  0  0  0  0  0
  125.8290  103.7976  107.8890 C   0  0  0  0  0  0  0  0  0  0  0  0
  126.1793  105.6794  109.3633 C   0  0  0  0  0  0  0  0  0  0  0  0
  115.3890  105.2907  102.6510 C   0  0  0  0  0  0  0  0  0  0  0  0
  117.5975  104.8533  103.5273 C   0  0  0  0  0  0  0  0  0  0  0  0
  125.0900  104.6094  107.0285 C   0  0  0  0  0  0  0  0  0  0  0  0
  125.4402  106.4911  108.5028 C   0  0  0  0  0  0  0  0  0  0  0  0
  115.0856  106.0383  103.7888 C   0  0  0  0  0  0  0  0  0  0  0  0
  117.2942  105.6009  104.6651 C   0  0  0  0  0  0  0  0  0  0  0  0
  124.8955  105.9561  107.3354 C   0  0  0  0  0  0  0  0  0  0  0  0
  116.0382  106.1934  104.7959 C   0  0  0  0  0  0  0  0  0  0  0  0
  124.5648  108.2811  106.4520 C   0  0  0  0  0  0  0  0  0  0  0  0
  121.6815  106.9570  105.7965 C   0  0  0  0  0  0  0  0  0  0  0  0
  118.0349  105.2499  107.1473 C   0  0  0  0  0  0  0  0  0  0  0  0
  119.0190  104.5085  106.2974 C   0  0  0  0  0  0  0  0  0  0  0  0
  118.3496  105.7569  105.7512 C   0  0  0  0  0  0  0  0  0  0  0  0
  115.6884  106.9988  106.0043 C   0  0  0  0  0  0  0  0  0  0  0  0
  119.1916  107.0035  105.6388 C   0  0  0  0  0  0  0  0  0  0  0  0
  124.0944  106.8370  106.4026 C   0  0  2  0  0  0  0  0  0  0  0  0
  125.5283  108.5680  105.5087 N   0  0  0  0  0  0  0  0  0  0  0  0
  120.4221  106.8703  106.3838 N   0  0  0  0  0  0  0  0  0  0  0  0
  122.6914  106.7926  106.7412 N   0  0  0  0  0  0  0  0  0  0  0  0
  124.1250  109.1116  107.2442 O   0  0  0  0  0  0  0  0  0  0  0  0
  121.8787  107.1540  104.5982 O   0  0  0  0  0  0  0  0  0  0  0  0
  126.9481  103.7001  109.7270 H   0  0  0  0  0  0  0  0  0  0  0  0
  116.8809  104.1159  101.6343 H   0  0  0  0  0  0  0  0  0  0  0  0
  125.9794  102.7488  107.6504 H   0  0  0  0  0  0  0  0  0  0  0  0
  126.6023  106.0960  110.2726 H   0  0  0  0  0  0  0  0  0  0  0  0
  114.6472  105.1697  101.8670 H   0  0  0  0  0  0  0  0  0  0  0  0
  118.5731  104.3872  103.4152 H   0  0  0  0  0  0  0  0  0  0  0  0
  124.6695  104.1839  106.1211 H   0  0  0  0  0  0  0  0  0  0  0  0
  125.2939  107.5393  108.7500 H   0  0  0  0  0  0  0  0  0  0  0  0
  114.1040  106.4956  103.8811 H   0  0  0  0  0  0  0  0  0  0  0  0
  117.0745  104.7809  107.3292 H   0  0  0  0  0  0  0  0  0  0  0  0
  118.4194  105.8018  107.9973 H   0  0  0  0  0  0  0  0  0  0  0  0
  120.0650  104.5611  106.5768 H   0  0  0  0  0  0  0  0  0  0  0  0
  118.7185  103.5421  105.9094 H   0  0  0  0  0  0  0  0  0  0  0  0
  115.2477  106.3556  106.7747 H   0  0  0  0  0  0  0  0  0  0  0  0
  116.5752  107.4896  106.4236 H   0  0  0  0  0  0  0  0  0  0  0  0
  114.9711  107.7914  105.7580 H   0  0  0  0  0  0  0  0  0  0  0  0
  118.6520  107.8679  106.0373 H   0  0  0  0  0  0  0  0  0  0  0  0
  119.4535  107.2021  104.5954 H   0  0  0  0  0  0  0  0  0  0  0  0
  124.1898  106.4754  105.3715 H   0  0  0  0  0  0  0  0  0  0  0  0
  125.8739  107.8740  104.8537 H   0  0  0  0  0  0  0  0  0  0  0  0
  125.9237  109.4995  105.4349 H   0  0  0  0  0  0  0  0  0  0  0  0
  120.3659  106.7055  107.3840 H   0  0  0  0  0  0  0  0  0  0  0  0
  122.4345  106.6806  107.7169 H   0  0  0  0  0  0  0  0  0  0  0  0
  1  3  1  0  0  0  0
  1  4  2  0  0  0  0
  2  5  1  0  0  0  0
  2  6  2  0  0  0  0
  3  7  2  0  0  0  0
  4  8  1  0  0  0  0
  5  9  2  0  0  0  0
  6 10  1  0  0  0  0
  7 11  1  0  0  0  0
  8 11  2  0  0  0  0
  9 12  1  0  0  0  0
 10 12  2  0  0  0  0
 10 17  1  0  0  0  0
 11 20  1  0  0  0  0
 12 18  1  0  0  0  0
 13 20  1  0  0  0  0
 13 21  1  0  0  0  0
 13 24  2  0  0  0  0
 14 22  1  0  0  0  0
 14 23  1  0  0  0  0
 14 25  2  0  0  0  0
 15 16  1  0  0  0  0
 15 17  1  0  0  0  0
 16 17  1  0  0  0  0
 17 19  1  0  0  0  0
 19 22  1  0  0  0  0
 20 23  1  0  0  0  0
  1 26  1  0  0  0  0
  2 27  1  0  0  0  0
  3 28  1  0  0  0  0
  4 29  1  0  0  0  0
  5 30  1  0  0  0  0
  6 31  1  0  0  0  0
  7 32  1  0  0  0  0
  8 33  1  0  0  0  0
  9 34  1  0  0  0  0
 15 35  1  0  0  0  0
 15 36  1  0  0  0  0
 16 37  1  0  0  0  0
 16 38  1  0  0  0  0
 18 39  1  0  0  0  0
 18 40  1  0  0  0  0
 18 41  1  0  0  0  0
 19 42  1  0  0  0  0
 19 43  1  0  0  0  0
 20 44  1  0  0  0  0
 21 45  1  0  0  0  0
 21 46  1  0  0  0  0
 22 47  1  0  0  0  0
 23 48  1  0  0  0  0
M  END
> <FRED Chemgauss4 score>
-11.919731

$$$$
C35367280	P52475196
  -OEChem-05122015313D

 43 44  0     1  0  0  0  0  0999 V2000
  124.2187  104.2573  108.1201 C   0  0  0  0  0  0  0  0  0  0  0  0
  124.3300  106.4889  107.2010 C   0  0  0  0  0  0  0  0  0  0  0  0
  125.4463  104.4562  108.7518 C   0  0  0  0  0  0  0  0  0  0  0  0
  125.5576  106.6879  107.8328 C   0  0  0  0  0  0  0  0  0  0  0  0
  123.6606  105.2737  107.3447 C   0  0  0  0  0  0  0  0  0  0  0  0
  126.1158  105.6715  108.6081 C   0  0  0  0  0  0  0  0  0  0  0  0
  119.4837  104.0801  106.4035 C   0  0  0  0  0  0  0  0  0  0  0  0
  119.0174  106.3349  106.5536 C   0  0  0  0  0  0  0  0  0  0  0  0
  118.0983  104.2379  105.8405 C   0  0  0  0  0  0  0  0  0  0  0  0
  117.9008  105.7544  105.7047 C   0  0  1  0  0  0  0  0  0  0  0  0
  116.5364  106.1987  106.2266 C   0  0  0  0  0  0  0  0  0  0  0  0
  117.0166  105.6174  103.3588 C   0  0  0  0  0  0  0  0  0  0  0  0
  118.1011  107.7314  104.1703 C   0  0  0  0  0  0  0  0  0  0  0  0
  121.1624  105.5435  107.5219 C   0  0  0  0  0  0  0  0  0  0  0  0
  122.3306  105.0589  106.6594 C   0  0  1  0  0  0  0  0  0  0  0  0
  118.1001  106.2085  104.2551 C   0  0  0  0  0  0  0  0  0  0  0  0
  119.9112  105.3195  106.8235 N   0  0  0  0  0  0  0  0  0  0  0  0
  127.3560  105.8737  109.2482 N   0  0  0  0  0  0  0  0  0  0  0  0
  120.0671  103.0088  106.4925 O   0  0  0  0  0  0  0  0  0  0  0  0
  119.1016  107.5087  106.8893 O   0  0  0  0  0  0  0  0  0  0  0  0
  122.3420  105.7676  105.4198 O   0  0  0  0  0  0  0  0  0  0  0  0
  123.7046  103.3071  108.2365 H   0  0  0  0  0  0  0  0  0  0  0  0
  123.9037  107.2858  106.5976 H   0  0  0  0  0  0  0  0  0  0  0  0
  125.8730  103.6572  109.3525 H   0  0  0  0  0  0  0  0  0  0  0  0
  126.0708  107.6386  107.7134 H   0  0  0  0  0  0  0  0  0  0  0  0
  118.0215  103.7129  104.8835 H   0  0  0  0  0  0  0  0  0  0  0  0
  117.3938  103.7904  106.5504 H   0  0  0  0  0  0  0  0  0  0  0  0
  115.7478  105.7741  105.6074 H   0  0  0  0  0  0  0  0  0  0  0  0
  116.4659  107.2849  106.1982 H   0  0  0  0  0  0  0  0  0  0  0  0
  116.4052  105.8596  107.2531 H   0  0  0  0  0  0  0  0  0  0  0  0
  116.0194  105.9569  103.6596 H   0  0  0  0  0  0  0  0  0  0  0  0
  117.0288  104.5232  103.4015 H   0  0  0  0  0  0  0  0  0  0  0  0
  117.1749  105.9136  102.3165 H   0  0  0  0  0  0  0  0  0  0  0  0
  117.1453  108.1513  104.5019 H   0  0  0  0  0  0  0  0  0  0  0  0
  118.2764  108.0599  103.1404 H   0  0  0  0  0  0  0  0  0  0  0  0
  118.8929  108.1565  104.7963 H   0  0  0  0  0  0  0  0  0  0  0  0
  121.2541  106.6136  107.7374 H   0  0  0  0  0  0  0  0  0  0  0  0
  121.1269  105.0072  108.4765 H   0  0  0  0  0  0  0  0  0  0  0  0
  122.2078  103.9964  106.4153 H   0  0  0  0  0  0  0  0  0  0  0  0
  119.0734  105.8400  103.9142 H   0  0  0  0  0  0  0  0  0  0  0  0
  127.7224  105.1558  109.8402 H   0  0  0  0  0  0  0  0  0  0  0  0
  127.8027  106.7655  109.1757 H   0  0  0  0  0  0  0  0  0  0  0  0
  121.4796  105.6104  105.0069 H   0  0  0  0  0  0  0  0  0  0  0  0
  1  3  2  0  0  0  0
  1  5  1  0  0  0  0
  2  4  1  0  0  0  0
  2  5  2  0  0  0  0
  3  6  1  0  0  0  0
  4  6  2  0  0  0  0
  5 15  1  0  0  0  0
  6 18  1  0  0  0  0
  7  9  1  0  0  0  0
  7 17  1  0  0  0  0
  7 19  2  0  0  0  0
  8 10  1  0  0  0  0
  8 17  1  0  0  0  0
  8 20  2  0  0  0  0
  9 10  1  0  0  0  0
 10 11  1  0  0  0  0
 10 16  1  0  0  0  0
 12 16  1  0  0  0  0
 13 16  1  0  0  0  0
 14 15  1  0  0  0  0
 14 17  1  0  0  0  0
 15 21  1  0  0  0  0
  1 22  1  0  0  0  0
  2 23  1  0  0  0  0
  3 24  1  0  0  0  0
  4 25  1  0  0  0  0
  9 26  1  0  0  0  0
  9 27  1  0  0  0  0
 11 28  1  0  0  0  0
 11 29  1  0  0  0  0
 11 30  1  0  0  0  0
 12 31  1  0  0  0  0
 12 32  1  0  0  0  0
 12 33  1  0  0  0  0
 13 34  1  0  0  0  0
 13 35  1  0  0  0  0
 13 36  1  0  0  0  0
 14 37  1  0  0  0  0
 14 38  1  0  0  0  0
 15 39  1  0  0  0  0
 16 40  1  0  0  0  0
 18 41  1  0  0  0  0
 18 42  1  0  0  0  0
 21 43  1  0  0  0  0
M  END
> <FRED Chemgauss4 score>
-11.888645

$$$$
C94262347	P147739855
  -OEChem-05122015313D

 36 38  0     1  0  0  0  0  0999 V2000
  118.8582  102.9790  105.7227 C   0  0  0  0  0  0  0  0  0  0  0  0
  117.6778  103.3426  105.0801 C   0  0  0  0  0  0  0  0  0  0  0  0
  125.0619  107.7256  108.6740 C   0  0  0  0  0  0  0  0  0  0  0  0
  126.6278  106.3338  107.9904 C   0  0  0  0  0  0  0  0  0  0  0  0
  119.6073  104.0300  106.2404 C   0  0  0  0  0  0  0  0  0  0  0  0
  124.5879  106.8711  107.7067 C   0  0  0  0  0  0  0  0  0  0  0  0
  119.1991  105.3537  106.1212 C   0  0  0  0  0  0  0  0  0  0  0  0
  117.3351  104.6883  105.0000 C   0  0  0  0  0  0  0  0  0  0  0  0
  121.0446  105.4194  107.1792 C   0  0  0  0  0  0  0  0  0  0  0  0
  114.5337  106.5605  103.5442 C   0  0  0  0  0  0  0  0  0  0  0  0
  123.1978  106.8048  107.1163 C   0  0  0  0  0  0  0  0  0  0  0  0
  115.8393  106.3966  104.2928 C   0  0  0  0  0  0  0  0  0  0  0  0
  122.2577  105.8377  107.9063 C   0  0  1  0  0  0  0  0  0  0  0  0
  125.5675  106.0070  107.2855 N   0  0  0  0  0  0  0  0  0  0  0  0
  118.0523  105.7230  105.4984 N   0  0  0  0  0  0  0  0  0  0  0  0
  120.1007  106.2052  106.7086 N   0  0  0  0  0  0  0  0  0  0  0  0
  126.3698  107.3690  108.8455 N   0  0  0  0  0  0  0  0  0  0  0  0
  120.7917  104.0987  106.9221 N   0  0  0  0  0  0  0  0  0  0  0  0
  121.9511  106.4938  109.2034 N   0  0  0  0  0  0  0  0  0  0  0  0
  116.1641  105.0149  104.3596 O   0  0  0  0  0  0  0  0  0  0  0  0
  119.1696  101.9455  105.8115 H   0  0  0  0  0  0  0  0  0  0  0  0
  117.0380  102.5784  104.6492 H   0  0  0  0  0  0  0  0  0  0  0  0
  124.6069  108.5269  109.2384 H   0  0  0  0  0  0  0  0  0  0  0  0
  127.6008  105.8668  107.9309 H   0  0  0  0  0  0  0  0  0  0  0  0
  114.6166  106.1720  102.5254 H   0  0  0  0  0  0  0  0  0  0  0  0
  113.7245  106.0325  104.0592 H   0  0  0  0  0  0  0  0  0  0  0  0
  114.2458  107.6161  103.4973 H   0  0  0  0  0  0  0  0  0  0  0  0
  123.2975  106.4953  106.0665 H   0  0  0  0  0  0  0  0  0  0  0  0
  122.7635  107.8127  107.0817 H   0  0  0  0  0  0  0  0  0  0  0  0
  115.7495  106.7871  105.3109 H   0  0  0  0  0  0  0  0  0  0  0  0
  116.6469  106.9240  103.7765 H   0  0  0  0  0  0  0  0  0  0  0  0
  122.8719  104.9518  108.1805 H   0  0  0  0  0  0  0  0  0  0  0  0
  127.0268  107.7934  109.4865 H   0  0  0  0  0  0  0  0  0  0  0  0
  121.3744  103.3153  107.1867 H   0  0  0  0  0  0  0  0  0  0  0  0
  122.6385  107.0981  109.5686 H   0  0  0  0  0  0  0  0  0  0  0  0
  121.1867  106.1359  109.7120 H   0  0  0  0  0  0  0  0  0  0  0  0
  1  2  2  0  0  0  0
  1  5  1  0  0  0  0
  2  8  1  0  0  0  0
  3  6  2  0  0  0  0
  3 17  1  0  0  0  0
  4 14  2  0  0  0  0
  4 17  1  0  0  0  0
  5  7  2  0  0  0  0
  5 18  1  0  0  0  0
  6 11  1  0  0  0  0
  6 14  1  0  0  0  0
  7 15  1  0  0  0  0
  7 16  1  0  0  0  0
  8 15  2  0  0  0  0
  8 20  1  0  0  0  0
  9 13  1  0  0  0  0
  9 16  2  0  0  0  0
  9 18  1  0  0  0  0
 10 12  1  0  0  0  0
 11 13  1  0  0  0  0
 12 20  1  0  0  0  0
 13 19  1  0  0  0  0
  1 21  1  0  0  0  0
  2 22  1  0  0  0  0
  3 23  1  0  0  0  0
  4 24  1  0  0  0  0
 10 25  1  0  0  0  0
 10 26  1  0  0  0  0
 10 27  1  0  0  0  0
 11 28  1  0  0  0  0
 11 29  1  0  0  0  0
 12 30  1  0  0  0  0
 12 31  1  0  0  0  0
 13 32  1  0  0  0  0
 17 33  1  0  0  0  0
 18 34  1  0  0  0  0
 19 35  1  0  0  0  0
 19 36  1  0  0  0  0
M  END
> <FRED Chemgauss4 score>
-11.872365

$$$$
C88853175	P138986328
  -OEChem-05122015313D

 35 36  0     1  0  0  0  0  0999 V2000
  123.2301  105.4703  106.1351 C   0  0  0  0  0  0  0  0  0  0  0  0
  124.1227  106.5251  106.3255 C   0  0  0  0  0  0  0  0  0  0  0  0
  123.0938  107.0110  108.4568 C   0  0  0  0  0  0  0  0  0  0  0  0
  122.2692  105.1859  107.1054 C   0  0  0  0  0  0  0  0  0  0  0  0
  122.2011  105.9562  108.2663 C   0  0  0  0  0  0  0  0  0  0  0  0
  124.0546  107.2954  107.4864 C   0  0  0  0  0  0  0  0  0  0  0  0
  120.0561  105.4462  105.3818 C   0  0  0  0  0  0  0  0  0  0  0  0
  118.7499  105.6516  105.1862 C   0  0  0  0  0  0  0  0  0  0  0  0
  119.2227  103.2948  106.1704 C   0  0  0  0  0  0  0  0  0  0  0  0
  120.4838  104.0629  105.7782 C   0  0  2  0  0  0  0  0  0  0  0  0
  127.1927  106.7489  107.8753 C   0  0  0  0  0  0  0  0  0  0  0  0
  121.2359  105.6854  109.2618 N   0  0  0  0  0  0  0  0  0  0  0  0
  121.3928  104.1349  106.8964 N   0  0  0  0  0  0  0  0  0  0  0  0
  126.4753  107.8534  108.5281 N   0  0  0  0  0  0  0  0  0  0  0  0
  117.5255  103.5933  104.1721 O   0  0  0  0  0  0  0  0  0  0  0  0
  116.8494  104.4127  106.4707 O   0  0  0  0  0  0  0  0  0  0  0  0
  125.6355  109.0789  106.4234 O   0  0  0  0  0  0  0  0  0  0  0  0
  124.5525  109.5631  108.6408 O   0  0  0  0  0  0  0  0  0  0  0  0
  117.8527  104.1982  105.4479 S   0  0  0  0  0  0  0  0  0  0  0  0
  125.1728  108.6149  107.7251 S   0  0  0  0  0  0  0  0  0  0  0  0
  123.2925  104.8771  105.2263 H   0  0  0  0  0  0  0  0  0  0  0  0
  124.8668  106.7383  105.5628 H   0  0  0  0  0  0  0  0  0  0  0  0
  123.0414  107.6123  109.3618 H   0  0  0  0  0  0  0  0  0  0  0  0
  120.7815  106.2422  105.2644 H   0  0  0  0  0  0  0  0  0  0  0  0
  118.2941  106.5943  104.9145 H   0  0  0  0  0  0  0  0  0  0  0  0
  119.2233  102.3002  105.7083 H   0  0  0  0  0  0  0  0  0  0  0  0
  119.0647  103.1944  107.2486 H   0  0  0  0  0  0  0  0  0  0  0  0
  120.9860  103.5507  104.9443 H   0  0  0  0  0  0  0  0  0  0  0  0
  127.1115  106.8382  106.7889 H   0  0  0  0  0  0  0  0  0  0  0  0
  126.7685  105.7890  108.1822 H   0  0  0  0  0  0  0  0  0  0  0  0
  128.2502  106.7692  108.1521 H   0  0  0  0  0  0  0  0  0  0  0  0
  121.2418  106.2239  110.1030 H   0  0  0  0  0  0  0  0  0  0  0  0
  120.6277  104.9015  109.1474 H   0  0  0  0  0  0  0  0  0  0  0  0
  121.3858  103.3734  107.5640 H   0  0  0  0  0  0  0  0  0  0  0  0
  126.4933  107.8578  109.5552 H   0  0  0  0  0  0  0  0  0  0  0  0
  1  2  2  0  0  0  0
  1  4  1  0  0  0  0
  2  6  1  0  0  0  0
  3  5  1  0  0  0  0
  3  6  2  0  0  0  0
  4  5  2  0  0  0  0
  4 13  1  0  0  0  0
  5 12  1  0  0  0  0
  6 20  1  0  0  0  0
  7  8  2  0  0  0  0
  7 10  1  0  0  0  0
  8 19  1  0  0  0  0
  9 10  1  0  0  0  0
  9 19  1  0  0  0  0
 10 13  1  0  0  0  0
 11 14  1  0  0  0  0
 14 20  1  0  0  0  0
 15 19  2  0  0  0  0
 16 19  2  0  0  0  0
 17 20  2  0  0  0  0
 18 20  2  0  0  0  0
  1 21  1  0  0  0  0
  2 22  1  0  0  0  0
  3 23  1  0  0  0  0
  7 24  1  0  0  0  0
  8 25  1  0  0  0  0
  9 26  1  0  0  0  0
  9 27  1  0  0  0  0
 10 28  1  0  0  0  0
 11 29  1  0  0  0  0
 11 30  1  0  0  0  0
 11 31  1  0  0  0  0
 12 32  1  0  0  0  0
 12 33  1  0  0  0  0
 13 34  1  0  0  0  0
 14 35  1  0  0  0  0
M  END
> <FRED Chemgauss4 score>
-11.863171

$$$$
C06759849	P10673122
  -OEChem-05122015313D

 42 44  0     1  0  0  0  0  0999 V2000
  121.2270  104.3622  105.3229 C   0  0  0  0  0  0  0  0  0  0  0  0
  120.4779  106.6305  105.6844 C   0  0  0  0  0  0  0  0  0  0  0  0
  119.9625  103.8888  105.6728 C   0  0  0  0  0  0  0  0  0  0  0  0
  119.2133  106.1571  106.0342 C   0  0  0  0  0  0  0  0  0  0  0  0
  121.4848  105.7331  105.3288 C   0  0  0  0  0  0  0  0  0  0  0  0
  118.9556  104.7862  106.0284 C   0  0  0  0  0  0  0  0  0  0  0  0
  123.0253  111.1440  110.8324 C   0  0  0  0  0  0  0  0  0  0  0  0
  124.2587  108.7952  108.9195 C   0  0  0  0  0  0  0  0  0  0  0  0
  124.7322  107.2870  106.1888 C   0  0  0  0  0  0  0  0  0  0  0  0
  124.1747  110.5196  111.5835 C   0  0  0  0  0  0  0  0  0  0  0  0
  123.9693  109.0221  111.3604 C   0  0  0  0  0  0  0  0  0  0  0  0
  126.1431  105.8505  107.6856 C   0  0  0  0  0  0  0  0  0  0  0  0
  123.9909  106.2966  109.1542 C   0  0  0  0  0  0  0  0  0  0  0  0
  123.2456  108.9374  110.0285 C   0  0  1  0  0  0  0  0  0  0  0  0
  125.5146  107.2176  107.4695 C   0  0  2  0  0  0  0  0  0  0  0  0
  122.8453  106.2432  104.9508 C   0  0  0  0  0  0  0  0  0  0  0  0
  122.5298  110.1822  109.9596 N   0  0  0  0  0  0  0  0  0  0  0  0
  124.5715  107.4904  108.5497 N   0  0  0  0  0  0  0  0  0  0  0  0
  123.7201  106.3507  106.0962 N   0  0  0  0  0  0  0  0  0  0  0  0
  122.6429  112.2972  110.9572 O   0  0  0  0  0  0  0  0  0  0  0  0
  124.7540  109.7989  108.4034 O   0  0  0  0  0  0  0  0  0  0  0  0
  125.0240  108.1288  105.3474 O   0  0  0  0  0  0  0  0  0  0  0  0
  124.8580  104.8586  108.4873 S   0  0  0  0  0  0  0  0  0  0  0  0
  117.3957  104.2020  106.4596 Cl  0  0  0  0  0  0  0  0  0  0  0  0
  122.0064  103.6566  105.0473 H   0  0  0  0  0  0  0  0  0  0  0  0
  120.6705  107.7001  105.6913 H   0  0  0  0  0  0  0  0  0  0  0  0
  119.7762  102.8179  105.6633 H   0  0  0  0  0  0  0  0  0  0  0  0
  118.4385  106.8681  106.3092 H   0  0  0  0  0  0  0  0  0  0  0  0
  125.1149  110.8669  111.1443 H   0  0  0  0  0  0  0  0  0  0  0  0
  124.1376  110.7802  112.6441 H   0  0  0  0  0  0  0  0  0  0  0  0
  124.9105  108.4663  111.3925 H   0  0  0  0  0  0  0  0  0  0  0  0
  123.3156  108.6286  112.1482 H   0  0  0  0  0  0  0  0  0  0  0  0
  126.4807  105.3789  106.7584 H   0  0  0  0  0  0  0  0  0  0  0  0
  126.9905  105.9216  108.3750 H   0  0  0  0  0  0  0  0  0  0  0  0
  124.1046  106.3401  110.2409 H   0  0  0  0  0  0  0  0  0  0  0  0
  122.9273  106.2499  108.9032 H   0  0  0  0  0  0  0  0  0  0  0  0
  122.5555  108.0821  109.9902 H   0  0  0  0  0  0  0  0  0  0  0  0
  126.2776  108.0025  107.4223 H   0  0  0  0  0  0  0  0  0  0  0  0
  123.3205  105.5742  104.2250 H   0  0  0  0  0  0  0  0  0  0  0  0
  122.7789  107.2326  104.4862 H   0  0  0  0  0  0  0  0  0  0  0  0
  121.7436  110.3407  109.3371 H   0  0  0  0  0  0  0  0  0  0  0  0
  123.5845  105.7073  106.8702 H   0  0  0  0  0  0  0  0  0  0  0  0
  1  3  1  0  0  0  0
  1  5  2  0  0  0  0
  2  4  2  0  0  0  0
  2  5  1  0  0  0  0
  3  6  2  0  0  0  0
  4  6  1  0  0  0  0
  5 16  1  0  0  0  0
  6 24  1  0  0  0  0
  7 10  1  0  0  0  0
  7 17  1  0  0  0  0
  7 20  2  0  0  0  0
  8 14  1  0  0  0  0
  8 18  1  0  0  0  0
  8 21  2  0  0  0  0
  9 15  1  0  0  0  0
  9 19  1  0  0  0  0
  9 22  2  0  0  0  0
 10 11  1  0  0  0  0
 11 14  1  0  0  0  0
 12 15  1  0  0  0  0
 12 23  1  0  0  0  0
 13 18  1  0  0  0  0
 13 23  1  0  0  0  0
 14 17  1  0  0  0  0
 15 18  1  0  0  0  0
 16 19  1  0  0  0  0
  1 25  1  0  0  0  0
  2 26  1  0  0  0  0
  3 27  1  0  0  0  0
  4 28  1  0  0  0  0
 10 29  1  0  0  0  0
 10 30  1  0  0  0  0
 11 31  1  0  0  0  0
 11 32  1  0  0  0  0
 12 33  1  0  0  0  0
 12 34  1  0  0  0  0
 13 35  1  0  0  0  0
 13 36  1  0  0  0  0
 14 37  1  0  0  0  0
 15 38  1  0  0  0  0
 16 39  1  0  0  0  0
 16 40  1  0  0  0  0
 17 41  1  0  0  0  0
 19 42  1  0  0  0  0
M  END
> <FRED Chemgauss4 score>
-11.859426

$$$$
C94338501	P147859251
  -OEChem-05122015313D

 41 43  0     1  0  0  0  0  0999 V2000
  124.4418  104.4785  108.0121 C   0  0  0  0  0  0  0  0  0  0  0  0
  125.7012  104.7775  108.5383 C   0  0  0  0  0  0  0  0  0  0  0  0
  119.3212  103.5002  106.2133 C   0  0  0  0  0  0  0  0  0  0  0  0
  125.4265  107.1225  107.9695 C   0  0  0  0  0  0  0  0  0  0  0  0
  118.2523  103.9215  105.4608 C   0  0  0  0  0  0  0  0  0  0  0  0
  123.6855  105.5093  107.4708 C   0  0  0  0  0  0  0  0  0  0  0  0
  124.1741  106.8190  107.4549 C   0  0  0  0  0  0  0  0  0  0  0  0
  126.1904  106.0911  108.5175 C   0  0  0  0  0  0  0  0  0  0  0  0
  120.3216  104.4610  105.9726 C   0  0  0  0  0  0  0  0  0  0  0  0
  122.3549  105.4975  106.8707 C   0  0  0  0  0  0  0  0  0  0  0  0
  121.6269  104.4195  106.5621 C   0  0  0  0  0  0  0  0  0  0  0  0
  123.2267  107.7687  106.7906 C   0  0  0  0  0  0  0  0  0  0  0  0
  121.9500  106.9297  106.6232 C   0  0  0  0  0  0  0  0  0  0  0  0
  116.9508  108.2001  103.4210 C   0  0  0  0  0  0  0  0  0  0  0  0
  116.5134  105.2370  103.6632 C   0  0  0  0  0  0  0  0  0  0  0  0
  117.7261  107.3344  104.4061 C   0  0  0  0  0  0  0  0  0  0  0  0
  117.8800  105.8745  103.9356 C   0  0  1  0  0  0  0  0  0  0  0  0
  119.9237  105.4203  105.1327 N   0  0  0  0  0  0  0  0  0  0  0  0
  118.6615  105.0643  104.8390 N   0  0  0  0  0  0  0  0  0  0  0  0
  127.4668  106.3705  109.0516 N   0  0  0  0  0  0  0  0  0  0  0  0
  124.0757  103.4575  108.0388 H   0  0  0  0  0  0  0  0  0  0  0  0
  126.2995  103.9766  108.9667 H   0  0  0  0  0  0  0  0  0  0  0  0
  119.3582  102.6220  106.8420 H   0  0  0  0  0  0  0  0  0  0  0  0
  125.8015  108.1411  107.9390 H   0  0  0  0  0  0  0  0  0  0  0  0
  117.2607  103.5142  105.3197 H   0  0  0  0  0  0  0  0  0  0  0  0
  122.0475  103.4440  106.8012 H   0  0  0  0  0  0  0  0  0  0  0  0
  123.0393  108.6548  107.4045 H   0  0  0  0  0  0  0  0  0  0  0  0
  123.6221  108.0758  105.8162 H   0  0  0  0  0  0  0  0  0  0  0  0
  121.5131  107.0763  105.6295 H   0  0  0  0  0  0  0  0  0  0  0  0
  121.2071  107.2342  107.3707 H   0  0  0  0  0  0  0  0  0  0  0  0
  115.9648  107.7720  103.2139 H   0  0  0  0  0  0  0  0  0  0  0  0
  116.8042  109.2020  103.8368 H   0  0  0  0  0  0  0  0  0  0  0  0
  117.4868  108.3089  102.4733 H   0  0  0  0  0  0  0  0  0  0  0  0
  115.9016  105.1814  104.5700 H   0  0  0  0  0  0  0  0  0  0  0  0
  116.6269  104.2194  103.2736 H   0  0  0  0  0  0  0  0  0  0  0  0
  115.9575  105.8205  102.9215 H   0  0  0  0  0  0  0  0  0  0  0  0
  118.7054  107.7916  104.5899 H   0  0  0  0  0  0  0  0  0  0  0  0
  117.1922  107.3457  105.3645 H   0  0  0  0  0  0  0  0  0  0  0  0
  118.4201  105.8889  102.9794 H   0  0  0  0  0  0  0  0  0  0  0  0
  127.9866  105.6331  109.4814 H   0  0  0  0  0  0  0  0  0  0  0  0
  127.7877  107.3167  109.0753 H   0  0  0  0  0  0  0  0  0  0  0  0
  1  2  1  0  0  0  0
  1  6  2  0  0  0  0
  2  8  2  0  0  0  0
  3  5  2  0  0  0  0
  3  9  1  0  0  0  0
  4  7  2  0  0  0  0
  4  8  1  0  0  0  0
  5 19  1  0  0  0  0
  6  7  1  0  0  0  0
  6 10  1  0  0  0  0
  7 12  1  0  0  0  0
  8 20  1  0  0  0  0
  9 11  1  0  0  0  0
  9 18  2  0  0  0  0
 10 11  2  0  0  0  0
 10 13  1  0  0  0  0
 12 13  1  0  0  0  0
 14 16  1  0  0  0  0
 15 17  1  0  0  0  0
 16 17  1  0  0  0  0
 17 19  1  0  0  0  0
 18 19  1  0  0  0  0
  1 21  1  0  0  0  0
  2 22  1  0  0  0  0
  3 23  1  0  0  0  0
  4 24  1  0  0  0  0
  5 25  1  0  0  0  0
 11 26  1  0  0  0  0
 12 27  1  0  0  0  0
 12 28  1  0  0  0  0
 13 29  1  0  0  0  0
 13 30  1  0  0  0  0
 14 31  1  0  0  0  0
 14 32  1  0  0  0  0
 14 33  1  0  0  0  0
 15 34  1  0  0  0  0
 15 35  1  0  0  0  0
 15 36  1  0  0  0  0
 16 37  1  0  0  0  0
 16 38  1  0  0  0  0
 17 39  1  0  0  0  0
 20 40  1  0  0  0  0
 20 41  1  0  0  0  0
M  END
> <FRED Chemgauss4 score>
-11.859238

$$$$
C97236316	P153968216
  -OEChem-05122015313D

 38 40  0     1  0  0  0  0  0999 V2000
  125.3326  105.8688  108.0797 C   0  0  0  0  0  0  0  0  0  0  0  0
  116.6609  104.4422  103.6945 C   0  0  0  0  0  0  0  0  0  0  0  0
  126.2273  105.0768  108.8240 C   0  0  0  0  0  0  0  0  0  0  0  0
  115.4654  104.8217  103.1238 C   0  0  0  0  0  0  0  0  0  0  0  0
  117.1285  105.3870  104.6638 C   0  0  0  0  0  0  0  0  0  0  0  0
  124.3237  105.0068  107.7258 C   0  0  0  0  0  0  0  0  0  0  0  0
  116.2689  106.4689  104.7489 C   0  0  0  0  0  0  0  0  0  0  0  0
  123.0946  105.2655  106.9322 C   0  0  0  0  0  0  0  0  0  0  0  0
  116.4567  107.6537  105.6448 C   0  0  0  0  0  0  0  0  0  0  0  0
  117.9059  107.7234  106.1477 C   0  0  0  0  0  0  0  0  0  0  0  0
  118.3990  106.3483  106.6193 C   0  0  0  0  0  0  0  0  0  0  0  0
  118.4031  105.3228  105.4645 C   0  0  1  0  0  0  0  0  0  0  0  0
  121.0377  104.2635  105.9725 C   0  0  0  0  0  0  0  0  0  0  0  0
  119.8121  103.9138  106.7997 C   0  0  0  0  0  0  0  0  0  0  0  0
  125.8223  103.8090  108.9371 N   0  0  0  0  0  0  0  0  0  0  0  0
  124.6619  103.7979  108.2591 N   0  0  0  0  0  0  0  0  0  0  0  0
  122.2520  104.1777  106.7386 N   0  0  0  0  0  0  0  0  0  0  0  0
  118.5889  103.9817  106.0166 N   0  0  0  0  0  0  0  0  0  0  0  0
  122.8977  106.3906  106.4808 O   0  0  0  0  0  0  0  0  0  0  0  0
  114.9118  106.3216  103.7309 S   0  0  0  0  0  0  0  0  0  0  0  0
  125.4131  106.9180  107.8349 H   0  0  0  0  0  0  0  0  0  0  0  0
  117.1763  103.5254  103.4342 H   0  0  0  0  0  0  0  0  0  0  0  0
  127.1572  105.3711  109.2890 H   0  0  0  0  0  0  0  0  0  0  0  0
  114.8933  104.2892  102.3772 H   0  0  0  0  0  0  0  0  0  0  0  0
  116.2284  108.5630  105.0781 H   0  0  0  0  0  0  0  0  0  0  0  0
  115.7759  107.6128  106.5005 H   0  0  0  0  0  0  0  0  0  0  0  0
  118.5500  108.0941  105.3439 H   0  0  0  0  0  0  0  0  0  0  0  0
  117.9774  108.4463  106.9673 H   0  0  0  0  0  0  0  0  0  0  0  0
  119.4165  106.4534  107.0098 H   0  0  0  0  0  0  0  0  0  0  0  0
  117.7766  105.9915  107.4442 H   0  0  0  0  0  0  0  0  0  0  0  0
  119.2615  105.5444  104.8162 H   0  0  0  0  0  0  0  0  0  0  0  0
  120.9736  105.2810  105.5741 H   0  0  0  0  0  0  0  0  0  0  0  0
  121.1369  103.5667  105.1344 H   0  0  0  0  0  0  0  0  0  0  0  0
  119.8923  102.8916  107.1823 H   0  0  0  0  0  0  0  0  0  0  0  0
  119.6970  104.5944  107.6494 H   0  0  0  0  0  0  0  0  0  0  0  0
  124.1509  102.9258  108.1997 H   0  0  0  0  0  0  0  0  0  0  0  0
  122.5184  103.2615  107.0934 H   0  0  0  0  0  0  0  0  0  0  0  0
  118.6381  103.3151  105.2498 H   0  0  0  0  0  0  0  0  0  0  0  0
  1  3  1  0  0  0  0
  1  6  2  0  0  0  0
  2  4  2  0  0  0  0
  2  5  1  0  0  0  0
  3 15  2  0  0  0  0
  4 20  1  0  0  0  0
  5  7  2  0  0  0  0
  5 12  1  0  0  0  0
  6  8  1  0  0  0  0
  6 16  1  0  0  0  0
  7  9  1  0  0  0  0
  7 20  1  0  0  0  0
  8 17  1  0  0  0  0
  8 19  2  0  0  0  0
  9 10  1  0  0  0  0
 10 11  1  0  0  0  0
 11 12  1  0  0  0  0
 12 18  1  0  0  0  0
 13 14  1  0  0  0  0
 13 17  1  0  0  0  0
 14 18  1  0  0  0  0
 15 16  1  0  0  0  0
  1 21  1  0  0  0  0
  2 22  1  0  0  0  0
  3 23  1  0  0  0  0
  4 24  1  0  0  0  0
  9 25  1  0  0  0  0
  9 26  1  0  0  0  0
 10 27  1  0  0  0  0
 10 28  1  0  0  0  0
 11 29  1  0  0  0  0
 11 30  1  0  0  0  0
 12 31  1  0  0  0  0
 13 32  1  0  0  0  0
 13 33  1  0  0  0  0
 14 34  1  0  0  0  0
 14 35  1  0  0  0  0
 16 36  1  0  0  0  0
 17 37  1  0  0  0  0
 18 38  1  0  0  0  0
M  END
> <FRED Chemgauss4 score>
-11.827749

$$$$
lig_from_structure
  -OEChem-05122015313D

 42 44  0     1  0  0  0  0  0999 V2000
  115.8266  105.9996  102.7795 C   0  0  0  0  0  0  0  0  0  0  0  0
  116.0516  106.9872  103.7385 C   0  0  0  0  0  0  0  0  0  0  0  0
  116.6788  104.8982  102.6995 C   0  0  0  0  0  0  0  0  0  0  0  0
  117.1287  106.8734  104.6174 C   0  0  0  0  0  0  0  0  0  0  0  0
  117.7559  104.7844  103.5784 C   0  0  0  0  0  0  0  0  0  0  0  0
  119.5577  104.3934  105.8297 C   0  0  0  0  0  0  0  0  0  0  0  0
  119.7148  106.8014  105.9482 C   0  0  0  0  0  0  0  0  0  0  0  0
  120.6346  104.2798  106.7089 C   0  0  0  0  0  0  0  0  0  0  0  0
  120.7917  106.6878  106.8274 C   0  0  0  0  0  0  0  0  0  0  0  0
  117.9809  105.7720  104.5374 C   0  0  0  0  0  0  0  0  0  0  0  0
  119.0978  105.6542  105.4493 C   0  0  0  0  0  0  0  0  0  0  0  0
  121.2516  105.4270  107.2078 C   0  0  0  0  0  0  0  0  0  0  0  0
  122.3979  105.3061  108.1437 C   0  0  0  0  0  0  0  0  0  0  0  0
  125.7879  105.5749  106.9228 C   0  0  0  0  0  0  0  0  0  0  0  0
  125.2963  106.0559  109.2487 C   0  0  0  0  0  0  0  0  0  0  0  0
  124.7572  105.3367  108.0180 C   0  0  1  0  0  0  0  0  0  0  0  0
  126.6427  106.7240  107.4439 C   0  0  1  0  0  0  0  0  0  0  0  0
  126.0897  108.1002  107.0797 C   0  0  0  0  0  0  0  0  0  0  0  0
  126.6470  106.5187  108.9000 N   0  0  0  0  0  0  0  0  0  0  0  0
  122.3227  104.7454  109.2260 O   0  0  0  0  0  0  0  0  0  0  0  0
  125.9958  108.2362  105.6687 O   0  0  0  0  0  0  0  0  0  0  0  0
  126.9368  109.0968  107.6340 O   0  0  0  0  0  0  0  0  0  0  0  0
  123.5114  105.8967  107.6256 O   0  0  0  0  0  0  0  0  0  0  0  0
  114.9869  106.0876  102.0964 H   0  0  0  0  0  0  0  0  0  0  0  0
  115.3872  107.8440  103.8021 H   0  0  0  0  0  0  0  0  0  0  0  0
  116.5034  104.1281  101.9539 H   0  0  0  0  0  0  0  0  0  0  0  0
  117.2906  107.6515  105.3597 H   0  0  0  0  0  0  0  0  0  0  0  0
  118.4113  103.9198  103.5045 H   0  0  0  0  0  0  0  0  0  0  0  0
  119.0871  103.4898  105.4494 H   0  0  0  0  0  0  0  0  0  0  0  0
  119.3679  107.7912  105.6611 H   0  0  0  0  0  0  0  0  0  0  0  0
  120.9848  103.2924  106.9987 H   0  0  0  0  0  0  0  0  0  0  0  0
  121.2652  107.5883  107.2102 H   0  0  0  0  0  0  0  0  0  0  0  0
  126.3963  104.6776  106.7456 H   0  0  0  0  0  0  0  0  0  0  0  0
  125.3001  105.8283  105.9693 H   0  0  0  0  0  0  0  0  0  0  0  0
  124.6672  106.8980  109.5742 H   0  0  0  0  0  0  0  0  0  0  0  0
  125.3762  105.3562  110.0953 H   0  0  0  0  0  0  0  0  0  0  0  0
  124.6164  104.2726  108.2105 H   0  0  0  0  0  0  0  0  0  0  0  0
  127.6721  106.6445  107.0638 H   0  0  0  0  0  0  0  0  0  0  0  0
  125.0876  108.2181  107.5037 H   0  0  0  0  0  0  0  0  0  0  0  0
  126.8124  107.4158  109.3600 H   0  0  0  0  0  0  0  0  0  0  0  0
  125.6420  109.1193  105.4695 H   0  0  0  0  0  0  0  0  0  0  0  0
  126.5625  109.9595  107.3876 H   0  0  0  0  0  0  0  0  0  0  0  0
  1  2  1  0  0  0  0
  1  3  2  0  0  0  0
  2  4  2  0  0  0  0
  3  5  1  0  0  0  0
  4 10  1  0  0  0  0
  5 10  2  0  0  0  0
  6  8  2  0  0  0  0
  6 11  1  0  0  0  0
  7  9  1  0  0  0  0
  7 11  2  0  0  0  0
  8 12  1  0  0  0  0
  9 12  2  0  0  0  0
 10 11  1  0  0  0  0
 12 13  1  0  0  0  0
 13 20  2  0  0  0  0
 13 23  1  0  0  0  0
 14 16  1  0  0  0  0
 14 17  1  0  0  0  0
 15 16  1  0  0  0  0
 15 19  1  0  0  0  0
 16 23  1  0  0  0  0
 17 18  1  0  0  0  0
 17 19  1  0  0  0  0
 18 21  1  0  0  0  0
 18 22  1  0  0  0  0
  1 24  1  0  0  0  0
  2 25  1  0  0  0  0
  3 26  1  0  0  0  0
  4 27  1  0  0  0  0
  5 28  1  0  0  0  0
  6 29  1  0  0  0  0
  7 30  1  0  0  0  0
  8 31  1  0  0  0  0
  9 32  1  0  0  0  0
 14 33  1  0  0  0  0
 14 34  1  0  0  0  0
 15 35  1  0  0  0  0
 15 36  1  0  0  0  0
 16 37  1  0  0  0  0
 17 38  1  0  0  0  0
 18 39  1  0  0  0  0
 19 40  1  0  0  0  0
 21 41  1  0  0  0  0
 22 42  1  0  0  0  0
M  END
> <FRED Chemgauss4 score>
-11.824744

$$$$
C68634020	P105372851
  -OEChem-05122015313D

 44 46  0     1  0  0  0  0  0999 V2000
  119.9408  106.3673  104.5167 C   0  0  0  0  0  0  0  0  0  0  0  0
  121.4811  105.8800  105.9656 C   0  0  0  0  0  0  0  0  0  0  0  0
  126.7580  107.2717  107.3935 C   0  0  0  0  0  0  0  0  0  0  0  0
  118.0523  107.8225  103.4313 C   0  0  0  0  0  0  0  0  0  0  0  0
  117.3992  107.0011  104.4983 C   0  0  0  0  0  0  0  0  0  0  0  0
  119.3610  103.5029  106.8558 C   0  0  0  0  0  0  0  0  0  0  0  0
  118.3169  103.8514  105.8418 C   0  0  0  0  0  0  0  0  0  0  0  0
  118.6218  106.4694  103.7879 C   0  0  0  0  0  0  0  0  0  0  0  0
  119.1271  104.9498  106.4895 C   0  0  0  0  0  0  0  0  0  0  0  0
  124.9335  104.9031  107.8616 C   0  0  0  0  0  0  0  0  0  0  0  0
  125.5218  109.4665  107.6031 C   0  0  0  0  0  0  0  0  0  0  0  0
  124.1761  107.2908  107.5606 C   0  0  0  0  0  0  0  0  0  0  0  0
  123.9699  105.8268  107.1128 C   0  0  2  0  0  0  0  0  0  0  0  0
  125.4557  108.0261  107.0732 C   0  0  2  0  0  0  0  0  0  0  0  0
  121.0614  106.9122  104.0998 N   0  0  0  0  0  0  0  0  0  0  0  0
  122.0414  106.6021  105.0216 N   0  0  0  0  0  0  0  0  0  0  0  0
  120.1590  105.7076  105.6880 N   0  0  0  0  0  0  0  0  0  0  0  0
  127.0550  107.1710  108.7362 N   0  0  0  0  0  0  0  0  0  0  0  0
  125.4042  108.0925  105.6004 N   0  0  0  0  0  0  0  0  0  0  0  0
  127.4821  106.7910  106.5218 O   0  0  0  0  0  0  0  0  0  0  0  0
  122.2737  105.2136  107.3945 S   0  0  0  0  0  0  0  0  0  0  0  0
  117.5355  107.9212  102.4838 H   0  0  0  0  0  0  0  0  0  0  0  0
  118.5921  108.7106  103.7381 H   0  0  0  0  0  0  0  0  0  0  0  0
  117.4998  107.3365  105.5239 H   0  0  0  0  0  0  0  0  0  0  0  0
  116.4423  106.5456  104.2712 H   0  0  0  0  0  0  0  0  0  0  0  0
  119.0272  103.1696  107.8308 H   0  0  0  0  0  0  0  0  0  0  0  0
  120.2644  103.0207  106.5022 H   0  0  0  0  0  0  0  0  0  0  0  0
  118.5175  103.6031  104.8067 H   0  0  0  0  0  0  0  0  0  0  0  0
  117.2780  103.7549  106.1329 H   0  0  0  0  0  0  0  0  0  0  0  0
  118.4352  105.6646  103.0553 H   0  0  0  0  0  0  0  0  0  0  0  0
  118.6468  105.5841  107.2025 H   0  0  0  0  0  0  0  0  0  0  0  0
  124.7813  104.9466  108.9462 H   0  0  0  0  0  0  0  0  0  0  0  0
  124.8236  103.8616  107.5386 H   0  0  0  0  0  0  0  0  0  0  0  0
  125.9714  105.1931  107.6631 H   0  0  0  0  0  0  0  0  0  0  0  0
  124.6021  110.0196  107.3840 H   0  0  0  0  0  0  0  0  0  0  0  0
  126.3624  110.0167  107.1651 H   0  0  0  0  0  0  0  0  0  0  0  0
  125.6418  109.4882  108.6935 H   0  0  0  0  0  0  0  0  0  0  0  0
  123.2787  107.8713  107.3070 H   0  0  0  0  0  0  0  0  0  0  0  0
  124.2036  107.2771  108.6609 H   0  0  0  0  0  0  0  0  0  0  0  0
  124.1810  105.7294  106.0435 H   0  0  0  0  0  0  0  0  0  0  0  0
  126.4191  107.5861  109.4089 H   0  0  0  0  0  0  0  0  0  0  0  0
  127.8851  106.6979  109.0773 H   0  0  0  0  0  0  0  0  0  0  0  0
  125.0430  107.3042  105.1226 H   0  0  0  0  0  0  0  0  0  0  0  0
  125.9118  108.8200  105.1607 H   0  0  0  0  0  0  0  0  0  0  0  0
  1  8  1  0  0  0  0
  1 15  2  0  0  0  0
  1 17  1  0  0  0  0
  2 16  2  0  0  0  0
  2 17  1  0  0  0  0
  2 21  1  0  0  0  0
  3 14  1  0  0  0  0
  3 18  1  0  0  0  0
  3 20  2  0  0  0  0
  4  5  1  0  0  0  0
  4  8  1  0  0  0  0
  5  8  1  0  0  0  0
  6  7  1  0  0  0  0
  6  9  1  0  0  0  0
  7  9  1  0  0  0  0
  9 17  1  0  0  0  0
 10 13  1  0  0  0  0
 11 14  1  0  0  0  0
 12 13  1  0  0  0  0
 12 14  1  0  0  0  0
 13 21  1  0  0  0  0
 14 19  1  0  0  0  0
 15 16  1  0  0  0  0
  4 22  1  0  0  0  0
  4 23  1  0  0  0  0
  5 24  1  0  0  0  0
  5 25  1  0  0  0  0
  6 26  1  0  0  0  0
  6 27  1  0  0  0  0
  7 28  1  0  0  0  0
  7 29  1  0  0  0  0
  8 30  1  0  0  0  0
  9 31  1  0  0  0  0
 10 32  1  0  0  0  0
 10 33  1  0  0  0  0
 10 34  1  0  0  0  0
 11 35  1  0  0  0  0
 11 36  1  0  0  0  0
 11 37  1  0  0  0  0
 12 38  1  0  0  0  0
 12 39  1  0  0  0  0
 13 40  1  0  0  0  0
 18 41  1  0  0  0  0
 18 42  1  0  0  0  0
 19 43  1  0  0  0  0
 19 44  1  0  0  0  0
M  END
> <FRED Chemgauss4 score>
-11.820082

$$$$
C58195219	P87824751
  -OEChem-05122015313D

 40 42  0     1  0  0  0  0  0999 V2000
  117.7191  105.0209  103.7445 C   0  0  0  0  0  0  0  0  0  0  0  0
  116.5805  104.3619  105.7709 C   0  0  0  0  0  0  0  0  0  0  0  0
  116.5676  104.7444  103.0075 C   0  0  0  0  0  0  0  0  0  0  0  0
  115.4289  104.0854  105.0340 C   0  0  0  0  0  0  0  0  0  0  0  0
  125.8498  105.3752  107.4854 C   0  0  0  0  0  0  0  0  0  0  0  0
  126.7080  105.5931  108.5355 C   0  0  0  0  0  0  0  0  0  0  0  0
  117.7256  104.8296  105.1262 C   0  0  0  0  0  0  0  0  0  0  0  0
  115.4225  104.2767  103.6523 C   0  0  0  0  0  0  0  0  0  0  0  0
  125.0794  106.5510  107.4108 C   0  0  0  0  0  0  0  0  0  0  0  0
  118.9395  105.1211  105.9030 C   0  0  0  0  0  0  0  0  0  0  0  0
  121.4957  106.9587  106.3520 C   0  0  0  0  0  0  0  0  0  0  0  0
  118.9255  108.7392  106.7243 C   0  0  0  0  0  0  0  0  0  0  0  0
  119.8766  108.1612  107.7689 C   0  0  0  0  0  0  0  0  0  0  0  0
  118.1474  107.5193  106.2560 C   0  0  0  0  0  0  0  0  0  0  0  0
  120.2445  106.7973  107.1949 C   0  0  1  0  0  0  0  0  0  0  0  0
  123.9789  106.8627  106.4382 C   0  0  0  0  0  0  0  0  0  0  0  0
  125.4180  107.4492  108.3395 N   0  0  0  0  0  0  0  0  0  0  0  0
  126.4106  106.8375  109.0078 N   0  0  0  0  0  0  0  0  0  0  0  0
  119.0844  106.4070  106.4027 N   0  0  0  0  0  0  0  0  0  0  0  0
  122.6726  106.7596  107.0482 N   0  0  0  0  0  0  0  0  0  0  0  0
  119.7496  104.2077  106.0457 O   0  0  0  0  0  0  0  0  0  0  0  0
  121.3917  107.2403  105.1639 O   0  0  0  0  0  0  0  0  0  0  0  0
  113.8623  103.9020  102.6537 Br  0  0  0  0  0  0  0  0  0  0  0  0
  118.6058  105.3850  103.2320 H   0  0  0  0  0  0  0  0  0  0  0  0
  116.5745  104.2093  106.8471 H   0  0  0  0  0  0  0  0  0  0  0  0
  116.5791  104.8988  101.9316 H   0  0  0  0  0  0  0  0  0  0  0  0
  114.5451  103.7216  105.5516 H   0  0  0  0  0  0  0  0  0  0  0  0
  125.7940  104.4913  106.8668 H   0  0  0  0  0  0  0  0  0  0  0  0
  127.4854  104.9880  108.9792 H   0  0  0  0  0  0  0  0  0  0  0  0
  118.2762  109.5217  107.1268 H   0  0  0  0  0  0  0  0  0  0  0  0
  119.4963  109.1663  105.8913 H   0  0  0  0  0  0  0  0  0  0  0  0
  120.7393  108.8102  107.9471 H   0  0  0  0  0  0  0  0  0  0  0  0
  119.3396  108.0329  108.7166 H   0  0  0  0  0  0  0  0  0  0  0  0
  117.2854  107.3220  106.9030 H   0  0  0  0  0  0  0  0  0  0  0  0
  117.8054  107.6075  105.2208 H   0  0  0  0  0  0  0  0  0  0  0  0
  120.4598  106.0660  107.9913 H   0  0  0  0  0  0  0  0  0  0  0  0
  124.0880  107.8791  106.0444 H   0  0  0  0  0  0  0  0  0  0  0  0
  124.0042  106.1784  105.5836 H   0  0  0  0  0  0  0  0  0  0  0  0
  126.8439  107.3294  109.7793 H   0  0  0  0  0  0  0  0  0  0  0  0
  122.6171  106.5299  108.0359 H   0  0  0  0  0  0  0  0  0  0  0  0
  1  3  1  0  0  0  0
  1  7  2  0  0  0  0
  2  4  2  0  0  0  0
  2  7  1  0  0  0  0
  3  8  2  0  0  0  0
  4  8  1  0  0  0  0
  5  6  2  0  0  0  0
  5  9  1  0  0  0  0
  6 18  1  0  0  0  0
  7 10  1  0  0  0  0
  8 23  1  0  0  0  0
  9 16  1  0  0  0  0
  9 17  2  0  0  0  0
 10 19  1  0  0  0  0
 10 21  2  0  0  0  0
 11 15  1  0  0  0  0
 11 20  1  0  0  0  0
 11 22  2  0  0  0  0
 12 13  1  0  0  0  0
 12 14  1  0  0  0  0
 13 15  1  0  0  0  0
 14 19  1  0  0  0  0
 15 19  1  0  0  0  0
 16 20  1  0  0  0  0
 17 18  1  0  0  0  0
  1 24  1  0  0  0  0
  2 25  1  0  0  0  0
  3 26  1  0  0  0  0
  4 27  1  0  0  0  0
  5 28  1  0  0  0  0
  6 29  1  0  0  0  0
 12 30  1  0  0  0  0
 12 31  1  0  0  0  0
 13 32  1  0  0  0  0
 13 33  1  0  0  0  0
 14 34  1  0  0  0  0
 14 35  1  0  0  0  0
 15 36  1  0  0  0  0
 16 37  1  0  0  0  0
 16 38  1  0  0  0  0
 18 39  1  0  0  0  0
 20 40  1  0  0  0  0
M  END
> <FRED Chemgauss4 score>
-11.807040

$$$$
C40348239	P61248580
  -OEChem-05122015313D

 34 35  0     0  0  0  0  0  0999 V2000
  122.7057  105.3314  106.3022 C   0  0  0  0  0  0  0  0  0  0  0  0
  123.8039  106.1694  106.1094 C   0  0  0  0  0  0  0  0  0  0  0  0
  123.7716  104.3832  108.2520 C   0  0  0  0  0  0  0  0  0  0  0  0
  122.7186  108.8796  110.7892 C   0  0  0  0  0  0  0  0  0  0  0  0
  124.8699  105.2212  108.0592 C   0  0  0  0  0  0  0  0  0  0  0  0
  122.6895  104.4382  107.3736 C   0  0  0  0  0  0  0  0  0  0  0  0
  124.8860  106.1143  106.9879 C   0  0  0  0  0  0  0  0  0  0  0  0
  123.0005  110.2248  110.6751 C   0  0  0  0  0  0  0  0  0  0  0  0
  124.3811  109.4679  109.1484 C   0  0  0  0  0  0  0  0  0  0  0  0
  126.0127  105.1372  109.0175 C   0  0  0  0  0  0  0  0  0  0  0  0
  122.3765  111.3063  111.4628 C   0  0  0  0  0  0  0  0  0  0  0  0
  125.4227  109.4334  108.0676 C   0  0  0  0  0  0  0  0  0  0  0  0
  123.9539  110.5640  109.7350 N   0  0  0  0  0  0  0  0  0  0  0  0
  121.5787  103.5913  107.5682 N   0  0  0  0  0  0  0  0  0  0  0  0
  126.2024  108.1876  108.0945 N   0  0  0  0  0  0  0  0  0  0  0  0
  127.4702  106.3909  106.7525 O   0  0  0  0  0  0  0  0  0  0  0  0
  125.9488  107.9842  105.5396 O   0  0  0  0  0  0  0  0  0  0  0  0
  123.6790  107.9942  109.6778 S   0  0  0  0  0  0  0  0  0  0  0  0
  126.2472  107.1801  106.7157 S   0  0  0  0  0  0  0  0  0  0  0  0
  121.8675  105.3836  105.6121 H   0  0  0  0  0  0  0  0  0  0  0  0
  123.8049  106.8617  105.2716 H   0  0  0  0  0  0  0  0  0  0  0  0
  123.7595  103.6865  109.0874 H   0  0  0  0  0  0  0  0  0  0  0  0
  122.0178  108.3874  111.4487 H   0  0  0  0  0  0  0  0  0  0  0  0
  126.7457  104.4000  108.6704 H   0  0  0  0  0  0  0  0  0  0  0  0
  126.5143  106.1071  109.1216 H   0  0  0  0  0  0  0  0  0  0  0  0
  125.6700  104.8457  110.0180 H   0  0  0  0  0  0  0  0  0  0  0  0
  122.9447  111.5033  112.3865 H   0  0  0  0  0  0  0  0  0  0  0  0
  122.3200  112.2511  110.8959 H   0  0  0  0  0  0  0  0  0  0  0  0
  121.3401  111.0620  111.7521 H   0  0  0  0  0  0  0  0  0  0  0  0
  124.9571  109.5187  107.0797 H   0  0  0  0  0  0  0  0  0  0  0  0
  126.1232  110.2690  108.1701 H   0  0  0  0  0  0  0  0  0  0  0  0
  120.7896  103.6739  106.9595 H   0  0  0  0  0  0  0  0  0  0  0  0
  121.5584  102.9893  108.3664 H   0  0  0  0  0  0  0  0  0  0  0  0
  126.9940  108.1655  108.7488 H   0  0  0  0  0  0  0  0  0  0  0  0
  1  2  2  0  0  0  0
  1  6  1  0  0  0  0
  2  7  1  0  0  0  0
  3  5  1  0  0  0  0
  3  6  2  0  0  0  0
  4  8  2  0  0  0  0
  4 18  1  0  0  0  0
  5  7  2  0  0  0  0
  5 10  1  0  0  0  0
  6 14  1  0  0  0  0
  7 19  1  0  0  0  0
  8 11  1  0  0  0  0
  8 13  1  0  0  0  0
  9 12  1  0  0  0  0
  9 13  2  0  0  0  0
  9 18  1  0  0  0  0
 12 15  1  0  0  0  0
 15 19  1  0  0  0  0
 16 19  2  0  0  0  0
 17 19  2  0  0  0  0
  1 20  1  0  0  0  0
  2 21  1  0  0  0  0
  3 22  1  0  0  0  0
  4 23  1  0  0  0  0
 10 24  1  0  0  0  0
 10 25  1  0  0  0  0
 10 26  1  0  0  0  0
 11 27  1  0  0  0  0
 11 28  1  0  0  0  0
 11 29  1  0  0  0  0
 12 30  1  0  0  0  0
 12 31  1  0  0  0  0
 14 32  1  0  0  0  0
 14 33  1  0  0  0  0
 15 34  1  0  0  0  0
M  END
> <FRED Chemgauss4 score>
-11.779943

$$$$
cmpd16b_JGP2019	P10000012
  -OEChem-05122015313D

 41 43  0     1  0  0  0  0  0999 V2000
  119.7733  105.9843  104.3859 C   0  0  0  0  0  0  0  0  0  0  0  0
  119.4887  103.9452  105.6501 C   0  0  0  0  0  0  0  0  0  0  0  0
  122.5444  105.9561  105.2740 C   0  0  0  0  0  0  0  0  0  0  0  0
  121.7574  104.8125  107.2513 C   0  0  0  0  0  0  0  0  0  0  0  0
  118.5365  105.7782  103.7749 C   0  0  0  0  0  0  0  0  0  0  0  0
  118.2518  103.7391  105.0391 C   0  0  0  0  0  0  0  0  0  0  0  0
  123.7813  106.1616  105.8851 C   0  0  0  0  0  0  0  0  0  0  0  0
  122.9943  105.0180  107.8625 C   0  0  0  0  0  0  0  0  0  0  0  0
  120.2495  105.0678  105.3235 C   0  0  0  0  0  0  0  0  0  0  0  0
  121.5324  105.2816  105.9571 C   0  0  0  0  0  0  0  0  0  0  0  0
  117.7757  104.6556  104.1015 C   0  0  0  0  0  0  0  0  0  0  0  0
  124.0063  105.6925  107.1793 C   0  0  0  0  0  0  0  0  0  0  0  0
  123.0205  110.7027  111.1635 C   0  0  0  0  0  0  0  0  0  0  0  0
  124.3819  108.7746  110.3955 C   0  0  0  0  0  0  0  0  0  0  0  0
  123.1668  108.2612  108.4114 C   0  0  0  0  0  0  0  0  0  0  0  0
  122.9752  109.2947  110.6217 C   0  0  2  0  0  0  0  0  0  0  0  0
  124.1855  107.6737  109.3681 C   0  0  1  0  0  0  0  0  0  0  0  0
  122.3337  109.1735  109.2631 N   0  3  0  0  0  0  0  0  0  0  0  0
  123.6457  111.5351  110.4499 O   0  5  0  0  0  0  0  0  0  0  0  0
  122.4245  110.8656  112.2651 O   0  0  0  0  0  0  0  0  0  0  0  0
  125.7067  104.9007  108.9418 O   0  0  0  0  0  0  0  0  0  0  0  0
  126.5459  106.1205  106.8896 O   0  0  0  0  0  0  0  0  0  0  0  0
  125.4067  107.3863  108.7147 O   0  0  0  0  0  0  0  0  0  0  0  0
  116.5879  104.4577  103.5148 F   0  0  0  0  0  0  0  0  0  0  0  0
  125.5722  105.9513  107.9517 S   0  0  0  0  0  0  0  0  0  0  0  0
  120.3547  106.8641  104.1206 H   0  0  0  0  0  0  0  0  0  0  0  0
  119.8459  103.2217  106.3791 H   0  0  0  0  0  0  0  0  0  0  0  0
  122.3843  106.3281  104.2649 H   0  0  0  0  0  0  0  0  0  0  0  0
  120.9788  104.2850  107.7973 H   0  0  0  0  0  0  0  0  0  0  0  0
  118.1656  106.4914  103.0447 H   0  0  0  0  0  0  0  0  0  0  0  0
  117.6588  102.8654  105.2930 H   0  0  0  0  0  0  0  0  0  0  0  0
  124.5629  106.6885  105.3444 H   0  0  0  0  0  0  0  0  0  0  0  0
  123.1593  104.6490  108.8710 H   0  0  0  0  0  0  0  0  0  0  0  0
  125.0721  109.5437  110.0499 H   0  0  0  0  0  0  0  0  0  0  0  0
  124.7644  108.3447  111.3238 H   0  0  0  0  0  0  0  0  0  0  0  0
  123.5928  108.8613  107.5985 H   0  0  0  0  0  0  0  0  0  0  0  0
  122.4853  107.4976  108.0152 H   0  0  0  0  0  0  0  0  0  0  0  0
  122.4160  108.6540  111.3059 H   0  0  0  0  0  0  0  0  0  0  0  0
  123.8230  106.7430  109.8366 H   0  0  0  0  0  0  0  0  0  0  0  0
  122.2686  110.0996  108.8193 H   0  0  0  0  0  0  0  0  0  0  0  0
  121.3698  108.8218  109.3394 H   0  0  0  0  0  0  0  0  0  0  0  0
  1  5  1  0  0  0  0
  1  9  2  0  0  0  0
  2  6  2  0  0  0  0
  2  9  1  0  0  0  0
  3  7  2  0  0  0  0
  3 10  1  0  0  0  0
  4  8  1  0  0  0  0
  4 10  2  0  0  0  0
  5 11  2  0  0  0  0
  6 11  1  0  0  0  0
  7 12  1  0  0  0  0
  8 12  2  0  0  0  0
  9 10  1  0  0  0  0
 11 24  1  0  0  0  0
 12 25  1  0  0  0  0
 13 16  1  0  0  0  0
 13 19  1  0  0  0  0
 13 20  2  0  0  0  0
 14 16  1  0  0  0  0
 14 17  1  0  0  0  0
 15 17  1  0  0  0  0
 15 18  1  0  0  0  0
 16 18  1  0  0  0  0
 17 23  1  0  0  0  0
 21 25  2  0  0  0  0
 22 25  2  0  0  0  0
 23 25  1  0  0  0  0
  1 26  1  0  0  0  0
  2 27  1  0  0  0  0
  3 28  1  0  0  0  0
  4 29  1  0  0  0  0
  5 30  1  0  0  0  0
  6 31  1  0  0  0  0
  7 32  1  0  0  0  0
  8 33  1  0  0  0  0
 14 34  1  0  0  0  0
 14 35  1  0  0  0  0
 15 36  1  0  0  0  0
 15 37  1  0  0  0  0
 16 38  1  0  0  0  0
 17 39  1  0  0  0  0
 18 40  1  0  0  0  0
 18 41  1  0  0  0  0
M  CHG  2  18   1  19  -1
M  END
> <FRED Chemgauss4 score>
-11.772615

$$$$
3C_CG2012	P10000018
  -OEChem-05122015313D

 32 33  0     1  0  0  0  0  0999 V2000
  118.0265  104.2768  104.2816 C   0  0  0  0  0  0  0  0  0  0  0  0
  117.9231  103.4466  105.3938 C   0  0  0  0  0  0  0  0  0  0  0  0
  119.1235  105.1279  104.1449 C   0  0  0  0  0  0  0  0  0  0  0  0
  118.9162  103.4642  106.3735 C   0  0  0  0  0  0  0  0  0  0  0  0
  121.2436  106.0092  105.0000 C   0  0  0  0  0  0  0  0  0  0  0  0
  122.2367  106.0270  105.9797 C   0  0  0  0  0  0  0  0  0  0  0  0
  121.0363  104.3456  107.2286 C   0  0  0  0  0  0  0  0  0  0  0  0
  120.1325  105.1589  105.1213 C   0  0  0  0  0  0  0  0  0  0  0  0
  120.0273  104.3146  106.2522 C   0  0  0  0  0  0  0  0  0  0  0  0
  122.1332  105.1968  107.0919 C   0  0  0  0  0  0  0  0  0  0  0  0
  123.1677  105.2179  108.1137 C   0  0  0  0  0  0  0  0  0  0  0  0
  126.5728  107.1302  107.3691 C   0  0  0  0  0  0  0  0  0  0  0  0
  124.7962  106.5964  109.1815 C   0  0  0  0  0  0  0  0  0  0  0  0
  126.1515  106.2609  108.5665 C   0  0  2  0  0  0  0  0  0  0  0  0
  127.1650  106.2540  109.6692 N   0  3  0  0  0  0  0  0  0  0  0  0
  126.6498  108.3726  107.5786 O   0  5  0  0  0  0  0  0  0  0  0  0
  123.4808  104.2455  108.8135 O   0  0  0  0  0  0  0  0  0  0  0  0
  126.7761  106.4886  106.2978 O   0  0  0  0  0  0  0  0  0  0  0  0
  123.7572  106.4490  108.2076 O   0  0  0  0  0  0  0  0  0  0  0  0
  117.2522  104.2636  103.5200 H   0  0  0  0  0  0  0  0  0  0  0  0
  117.0691  102.7838  105.4993 H   0  0  0  0  0  0  0  0  0  0  0  0
  119.1828  105.7694  103.2681 H   0  0  0  0  0  0  0  0  0  0  0  0
  118.8151  102.8055  107.2335 H   0  0  0  0  0  0  0  0  0  0  0  0
  121.3450  106.6660  104.1384 H   0  0  0  0  0  0  0  0  0  0  0  0
  123.0869  106.6943  105.8625 H   0  0  0  0  0  0  0  0  0  0  0  0
  120.9649  103.7008  108.1033 H   0  0  0  0  0  0  0  0  0  0  0  0
  124.7794  107.6285  109.5487 H   0  0  0  0  0  0  0  0  0  0  0  0
  124.5746  105.9327  110.0240 H   0  0  0  0  0  0  0  0  0  0  0  0
  126.1203  105.2260  108.2041 H   0  0  0  0  0  0  0  0  0  0  0  0
  127.8753  106.9671  109.5000 H   0  0  0  0  0  0  0  0  0  0  0  0
  127.6218  105.3427  109.7220 H   0  0  0  0  0  0  0  0  0  0  0  0
  126.7138  106.4468  110.5642 H   0  0  0  0  0  0  0  0  0  0  0  0
  1  2  1  0  0  0  0
  1  3  2  0  0  0  0
  2  4  2  0  0  0  0
  3  8  1  0  0  0  0
  4  9  1  0  0  0  0
  5  6  2  0  0  0  0
  5  8  1  0  0  0  0
  6 10  1  0  0  0  0
  7  9  1  0  0  0  0
  7 10  2  0  0  0  0
  8  9  2  0  0  0  0
 10 11  1  0  0  0  0
 11 17  2  0  0  0  0
 11 19  1  0  0  0  0
 12 14  1  0  0  0  0
 12 16  1  0  0  0  0
 12 18  2  0  0  0  0
 13 14  1  0  0  0  0
 13 19  1  0  0  0  0
 14 15  1  0  0  0  0
  1 20  1  0  0  0  0
  2 21  1  0  0  0  0
  3 22  1  0  0  0  0
  4 23  1  0  0  0  0
  5 24  1  0  0  0  0
  6 25  1  0  0  0  0
  7 26  1  0  0  0  0
 13 27  1  0  0  0  0
 13 28  1  0  0  0  0
 14 29  1  0  0  0  0
 15 30  1  0  0  0  0
 15 31  1  0  0  0  0
 15 32  1  0  0  0  0
M  CHG  2  15   1  16  -1
M  END
> <FRED Chemgauss4 score>
-11.739176

$$$$
C80540978	P125746331
  -OEChem-05122015313D

 34 35  0     0  0  0  0  0  0999 V2000
  117.7824  103.2349  105.4250 C   0  0  0  0  0  0  0  0  0  0  0  0
  118.8532  103.9108  104.8400 C   0  0  0  0  0  0  0  0  0  0  0  0
  116.8672  105.3392  106.1810 C   0  0  0  0  0  0  0  0  0  0  0  0
  127.3979  107.3106  107.3783 C   0  0  0  0  0  0  0  0  0  0  0  0
  116.7893  103.9492  106.0954 C   0  0  0  0  0  0  0  0  0  0  0  0
  118.9311  105.3008  104.9256 C   0  0  0  0  0  0  0  0  0  0  0  0
  117.9381  106.0151  105.5961 C   0  0  0  0  0  0  0  0  0  0  0  0
  125.4270  106.8137  106.9034 C   0  0  0  0  0  0  0  0  0  0  0  0
  124.1517  106.3805  106.2253 C   0  0  0  0  0  0  0  0  0  0  0  0
  122.9735  106.1803  107.1878 C   0  0  0  0  0  0  0  0  0  0  0  0
  121.6845  105.7056  106.5197 C   0  0  0  0  0  0  0  0  0  0  0  0
  126.6171  106.8627  106.3515 N   0  0  0  0  0  0  0  0  0  0  0  0
  125.5069  107.2163  108.2001 N   0  0  0  0  0  0  0  0  0  0  0  0
  126.7658  107.5418  108.5308 N   0  0  0  0  0  0  0  0  0  0  0  0
  115.7068  103.2653  106.6867 N   0  0  0  0  0  0  0  0  0  0  0  0
  121.1914  106.6378  105.5437 N   0  0  0  0  0  0  0  0  0  0  0  0
  121.0936  105.0905  103.4801 O   0  0  0  0  0  0  0  0  0  0  0  0
  119.7889  107.2399  103.4332 O   0  0  0  0  0  0  0  0  0  0  0  0
  120.3112  106.1018  104.1649 S   0  0  0  0  0  0  0  0  0  0  0  0
  117.9883  107.7362  105.7303 Cl  0  0  0  0  0  0  0  0  0  0  0  0
  117.7314  102.1515  105.3524 H   0  0  0  0  0  0  0  0  0  0  0  0
  119.6201  103.3421  104.3207 H   0  0  0  0  0  0  0  0  0  0  0  0
  116.0895  105.8908  106.7053 H   0  0  0  0  0  0  0  0  0  0  0  0
  128.4626  107.4686  107.2662 H   0  0  0  0  0  0  0  0  0  0  0  0
  124.3243  105.4660  105.6447 H   0  0  0  0  0  0  0  0  0  0  0  0
  123.8808  107.1470  105.4875 H   0  0  0  0  0  0  0  0  0  0  0  0
  122.7809  107.1350  107.6938 H   0  0  0  0  0  0  0  0  0  0  0  0
  123.2490  105.4612  107.9688 H   0  0  0  0  0  0  0  0  0  0  0  0
  120.8982  105.5884  107.2723 H   0  0  0  0  0  0  0  0  0  0  0  0
  121.8189  104.7397  106.0240 H   0  0  0  0  0  0  0  0  0  0  0  0
  127.0297  107.8665  109.4570 H   0  0  0  0  0  0  0  0  0  0  0  0
  115.6381  102.2737  106.5778 H   0  0  0  0  0  0  0  0  0  0  0  0
  114.9774  103.7918  107.1234 H   0  0  0  0  0  0  0  0  0  0  0  0
  121.0125  107.6158  105.8563 H   0  0  0  0  0  0  0  0  0  0  0  0
  1  2  1  0  0  0  0
  1  5  2  0  0  0  0
  2  6  2  0  0  0  0
  3  5  1  0  0  0  0
  3  7  2  0  0  0  0
  4 12  2  0  0  0  0
  4 14  1  0  0  0  0
  5 15  1  0  0  0  0
  6  7  1  0  0  0  0
  6 19  1  0  0  0  0
  7 20  1  0  0  0  0
  8  9  1  0  0  0  0
  8 12  1  0  0  0  0
  8 13  2  0  0  0  0
  9 10  1  0  0  0  0
 10 11  1  0  0  0  0
 11 16  1  0  0  0  0
 13 14  1  0  0  0  0
 16 19  1  0  0  0  0
 17 19  2  0  0  0  0
 18 19  2  0  0  0  0
  1 21  1  0  0  0  0
  2 22  1  0  0  0  0
  3 23  1  0  0  0  0
  4 24  1  0  0  0  0
  9 25  1  0  0  0  0
  9 26  1  0  0  0  0
 10 27  1  0  0  0  0
 10 28  1  0  0  0  0
 11 29  1  0  0  0  0
 11 30  1  0  0  0  0
 14 31  1  0  0  0  0
 15 32  1  0  0  0  0
 15 33  1  0  0  0  0
 16 34  1  0  0  0  0
M  END
> <FRED Chemgauss4 score>
-11.738498

$$$$
C55153518	P83084771
  -OEChem-05122015313D

 45 47  0     1  0  0  0  0  0999 V2000
  117.5345  108.3863  106.1801 C   0  0  0  0  0  0  0  0  0  0  0  0
  117.0917  107.0455  106.3708 C   0  0  0  0  0  0  0  0  0  0  0  0
  116.6416  102.7600  104.6853 C   0  0  0  0  0  0  0  0  0  0  0  0
  117.8337  108.6499  104.8616 C   0  0  0  0  0  0  0  0  0  0  0  0
  117.4540  103.8645  104.6043 C   0  0  0  0  0  0  0  0  0  0  0  0
  116.6557  104.9239  105.0757 C   0  0  0  0  0  0  0  0  0  0  0  0
  117.0691  106.3354  105.1904 C   0  0  0  0  0  0  0  0  0  0  0  0
  120.9179  105.1236  104.8451 C   0  0  0  0  0  0  0  0  0  0  0  0
  125.9735  107.4155  107.4375 C   0  0  0  0  0  0  0  0  0  0  0  0
  121.6698  106.9247  108.1336 C   0  0  0  0  0  0  0  0  0  0  0  0
  120.8367  106.3759  106.9805 C   0  0  0  0  0  0  0  0  0  0  0  0
  122.9181  107.6461  107.6237 C   0  0  0  0  0  0  0  0  0  0  0  0
  122.9557  106.2966  105.6092 C   0  0  0  0  0  0  0  0  0  0  0  0
  121.7057  105.5285  106.0532 C   0  0  2  0  0  0  0  0  0  0  0  0
  118.8738  103.9088  104.1181 C   0  0  0  0  0  0  0  0  0  0  0  0
  124.9427  107.4518  106.3328 C   0  0  0  0  0  0  0  0  0  0  0  0
  115.4302  104.5280  105.4298 N   0  0  0  0  0  0  0  0  0  0  0  0
  115.4523  103.2076  105.1807 N   0  0  0  0  0  0  0  0  0  0  0  0
  123.7270  106.7655  106.7695 N   0  0  1  0  0  0  0  0  0  0  0  0
  126.3552  108.6776  107.8393 N   0  0  0  0  0  0  0  0  0  0  0  0
  119.7784  104.3972  105.1340 N   0  0  0  0  0  0  0  0  0  0  0  0
  121.3119  105.4466  103.7307 O   0  0  0  0  0  0  0  0  0  0  0  0
  126.3905  106.3815  107.9520 O   0  0  0  0  0  0  0  0  0  0  0  0
  117.5806  107.2843  103.8599 S   0  0  0  0  0  0  0  0  0  0  0  0
  117.6280  109.1202  106.9701 H   0  0  0  0  0  0  0  0  0  0  0  0
  116.8058  106.6306  107.3297 H   0  0  0  0  0  0  0  0  0  0  0  0
  116.7973  101.7187  104.4415 H   0  0  0  0  0  0  0  0  0  0  0  0
  118.1881  109.5791  104.4382 H   0  0  0  0  0  0  0  0  0  0  0  0
  121.0629  107.6129  108.7325 H   0  0  0  0  0  0  0  0  0  0  0  0
  121.9657  106.1010  108.7957 H   0  0  0  0  0  0  0  0  0  0  0  0
  120.0030  105.7807  107.3717 H   0  0  0  0  0  0  0  0  0  0  0  0
  120.3887  107.2094  106.4236 H   0  0  0  0  0  0  0  0  0  0  0  0
  122.6224  108.5535  107.0807 H   0  0  0  0  0  0  0  0  0  0  0  0
  123.5071  107.9638  108.4927 H   0  0  0  0  0  0  0  0  0  0  0  0
  123.5760  105.6271  104.9990 H   0  0  0  0  0  0  0  0  0  0  0  0
  122.6744  107.1399  104.9628 H   0  0  0  0  0  0  0  0  0  0  0  0
  122.0059  104.6088  106.5710 H   0  0  0  0  0  0  0  0  0  0  0  0
  119.2106  102.9104  103.8184 H   0  0  0  0  0  0  0  0  0  0  0  0
  118.9695  104.5605  103.2433 H   0  0  0  0  0  0  0  0  0  0  0  0
  125.3132  106.9472  105.4364 H   0  0  0  0  0  0  0  0  0  0  0  0
  124.6926  108.4905  106.1001 H   0  0  0  0  0  0  0  0  0  0  0  0
  114.6172  102.6690  105.3733 H   0  0  0  0  0  0  0  0  0  0  0  0
  125.9564  109.5049  107.4081 H   0  0  0  0  0  0  0  0  0  0  0  0
  127.0398  108.8308  108.5730 H   0  0  0  0  0  0  0  0  0  0  0  0
  119.5664  104.1970  106.1069 H   0  0  0  0  0  0  0  0  0  0  0  0
  1  2  1  0  0  0  0
  1  4  2  0  0  0  0
  2  7  2  0  0  0  0
  3  5  2  0  0  0  0
  3 18  1  0  0  0  0
  4 24  1  0  0  0  0
  5  6  1  0  0  0  0
  5 15  1  0  0  0  0
  6  7  1  0  0  0  0
  6 17  2  0  0  0  0
  7 24  1  0  0  0  0
  8 14  1  0  0  0  0
  8 21  1  0  0  0  0
  8 22  2  0  0  0  0
  9 16  1  0  0  0  0
  9 20  1  0  0  0  0
  9 23  2  0  0  0  0
 10 11  1  0  0  0  0
 10 12  1  0  0  0  0
 11 14  1  0  0  0  0
 12 19  1  0  0  0  0
 13 14  1  0  0  0  0
 13 19  1  0  0  0  0
 15 21  1  0  0  0  0
 16 19  1  0  0  0  0
 17 18  1  0  0  0  0
  1 25  1  0  0  0  0
  2 26  1  0  0  0  0
  3 27  1  0  0  0  0
  4 28  1  0  0  0  0
 10 29  1  0  0  0  0
 10 30  1  0  0  0  0
 11 31  1  0  0  0  0
 11 32  1  0  0  0  0
 12 33  1  0  0  0  0
 12 34  1  0  0  0  0
 13 35  1  0  0  0  0
 13 36  1  0  0  0  0
 14 37  1  0  0  0  0
 15 38  1  0  0  0  0
 15 39  1  0  0  0  0
 16 40  1  0  0  0  0
 16 41  1  0  0  0  0
 18 42  1  0  0  0  0
 20 43  1  0  0  0  0
 20 44  1  0  0  0  0
 21 45  1  0  0  0  0
M  END
> <FRED Chemgauss4 score>
-11.731428

$$$$
C00077383	P13592533
  -OEChem-05122015313D

 36 39  0     0  0  0  0  0  0999 V2000
  115.7314  104.8745  102.6042 C   0  0  0  0  0  0  0  0  0  0  0  0
  116.8178  104.3961  103.3367 C   0  0  0  0  0  0  0  0  0  0  0  0
  114.8307  105.7627  103.1919 C   0  0  0  0  0  0  0  0  0  0  0  0
  116.1026  105.6940  105.2448 C   0  0  0  0  0  0  0  0  0  0  0  0
  124.6264  106.7920  106.3571 C   0  0  0  0  0  0  0  0  0  0  0  0
  123.5138  104.4135  107.4510 C   0  0  0  0  0  0  0  0  0  0  0  0
  117.0034  104.8059  104.6570 C   0  0  0  0  0  0  0  0  0  0  0  0
  125.3814  105.9559  107.1883 C   0  0  0  0  0  0  0  0  0  0  0  0
  124.8333  104.7890  107.7239 C   0  0  0  0  0  0  0  0  0  0  0  0
  123.2978  106.4352  106.0682 C   0  0  0  0  0  0  0  0  0  0  0  0
  122.7729  105.2577  106.6200 C   0  0  0  0  0  0  0  0  0  0  0  0
  115.0163  106.1724  104.5123 C   0  0  0  0  0  0  0  0  0  0  0  0
  121.3103  106.3218  105.3656 C   0  0  0  0  0  0  0  0  0  0  0  0
  119.3088  104.9164  105.4866 C   0  0  0  0  0  0  0  0  0  0  0  0
  120.4273  104.3543  106.2848 C   0  0  0  0  0  0  0  0  0  0  0  0
  118.1210  104.3139  105.4098 C   0  0  0  0  0  0  0  0  0  0  0  0
  126.7933  106.3433  107.4921 C   0  0  0  0  0  0  0  0  0  0  0  0
  125.6511  103.9058  108.6120 C   0  0  0  0  0  0  0  0  0  0  0  0
  122.3631  107.0880  105.2840 N   0  0  0  0  0  0  0  0  0  0  0  0
  121.4896  105.2224  106.1421 N   0  0  0  0  0  0  0  0  0  0  0  0
  120.4918  103.3456  106.9567 O   0  0  0  0  0  0  0  0  0  0  0  0
  114.1511  107.0252  105.0766 F   0  0  0  0  0  0  0  0  0  0  0  0
  119.7280  106.4110  104.6905 S   0  0  0  0  0  0  0  0  0  0  0  0
  115.5865  104.5557  101.5761 H   0  0  0  0  0  0  0  0  0  0  0  0
  117.5111  103.7037  102.8650 H   0  0  0  0  0  0  0  0  0  0  0  0
  113.9853  106.1360  102.6216 H   0  0  0  0  0  0  0  0  0  0  0  0
  116.2335  106.0230  106.2728 H   0  0  0  0  0  0  0  0  0  0  0  0
  125.0532  107.7006  105.9428 H   0  0  0  0  0  0  0  0  0  0  0  0
  123.0850  103.5078  107.8661 H   0  0  0  0  0  0  0  0  0  0  0  0
  117.9821  103.3961  105.9816 H   0  0  0  0  0  0  0  0  0  0  0  0
  126.8287  106.9684  108.3911 H   0  0  0  0  0  0  0  0  0  0  0  0
  127.4190  105.4580  107.6552 H   0  0  0  0  0  0  0  0  0  0  0  0
  127.2373  106.9009  106.6590 H   0  0  0  0  0  0  0  0  0  0  0  0
  126.1781  103.1538  108.0148 H   0  0  0  0  0  0  0  0  0  0  0  0
  126.3897  104.4883  109.1748 H   0  0  0  0  0  0  0  0  0  0  0  0
  125.0197  103.3923  109.3464 H   0  0  0  0  0  0  0  0  0  0  0  0
  1  2  2  0  0  0  0
  1  3  1  0  0  0  0
  2  7  1  0  0  0  0
  3 12  2  0  0  0  0
  4  7  2  0  0  0  0
  4 12  1  0  0  0  0
  5  8  1  0  0  0  0
  5 10  2  0  0  0  0
  6  9  1  0  0  0  0
  6 11  2  0  0  0  0
  7 16  1  0  0  0  0
  8  9  2  0  0  0  0
  8 17  1  0  0  0  0
  9 18  1  0  0  0  0
 10 11  1  0  0  0  0
 10 19  1  0  0  0  0
 11 20  1  0  0  0  0
 12 22  1  0  0  0  0
 13 19  2  0  0  0  0
 13 20  1  0  0  0  0
 13 23  1  0  0  0  0
 14 15  1  0  0  0  0
 14 16  2  0  0  0  0
 14 23  1  0  0  0  0
 15 20  1  0  0  0  0
 15 21  2  0  0  0  0
  1 24  1  0  0  0  0
  2 25  1  0  0  0  0
  3 26  1  0  0  0  0
  4 27  1  0  0  0  0
  5 28  1  0  0  0  0
  6 29  1  0  0  0  0
 16 30  1  0  0  0  0
 17 31  1  0  0  0  0
 17 32  1  0  0  0  0
 17 33  1  0  0  0  0
 18 34  1  0  0  0  0
 18 35  1  0  0  0  0
 18 36  1  0  0  0  0
M  END
> <FRED Chemgauss4 score>
-11.725070

$$$$
C91499904	P143187935
  -OEChem-05122015313D

 36 38  0     1  0  0  0  0  0999 V2000
  119.5858  106.5185  105.9307 C   0  0  0  0  0  0  0  0  0  0  0  0
  118.5082  105.8266  105.3660 C   0  0  0  0  0  0  0  0  0  0  0  0
  119.3669  103.7084  106.1908 C   0  0  0  0  0  0  0  0  0  0  0  0
  126.2478  107.1712  107.0230 C   0  0  0  0  0  0  0  0  0  0  0  0
  125.9929  109.0245  108.1785 C   0  0  0  0  0  0  0  0  0  0  0  0
  122.3246  105.0115  107.8250 C   0  0  0  0  0  0  0  0  0  0  0  0
  120.5705  105.7990  106.6366 C   0  0  0  0  0  0  0  0  0  0  0  0
  125.5613  107.7219  108.1217 C   0  0  0  0  0  0  0  0  0  0  0  0
  120.4386  104.4134  106.7501 C   0  0  0  0  0  0  0  0  0  0  0  0
  118.4024  104.4432  105.4952 C   0  0  0  0  0  0  0  0  0  0  0  0
  121.7650  106.1622  107.3193 C   0  0  0  0  0  0  0  0  0  0  0  0
  122.4534  107.3887  110.2222 C   0  0  0  0  0  0  0  0  0  0  0  0
  124.5786  107.0403  109.0295 C   0  0  0  0  0  0  0  0  0  0  0  0
  127.0541  108.0521  106.4247 N   0  0  0  0  0  0  0  0  0  0  0  0
  121.5175  103.9620  107.4763 N   0  0  0  0  0  0  0  0  0  0  0  0
  126.8770  109.1695  107.1501 N   0  0  0  0  0  0  0  0  0  0  0  0
  117.3031  103.7706  104.9154 N   0  0  0  0  0  0  0  0  0  0  0  0
  123.2506  107.7046  109.0098 N   0  0  1  0  0  0  0  0  0  0  0  0
  123.3950  107.9854  106.4317 O   0  0  0  0  0  0  0  0  0  0  0  0
  121.3036  108.7057  107.6114 O   0  0  0  0  0  0  0  0  0  0  0  0
  122.4036  107.7353  107.4904 S   0  0  0  0  0  0  0  0  0  0  0  0
  119.6532  107.5971  105.8208 H   0  0  0  0  0  0  0  0  0  0  0  0
  117.7510  106.3871  104.8222 H   0  0  0  0  0  0  0  0  0  0  0  0
  119.2921  102.6305  106.2963 H   0  0  0  0  0  0  0  0  0  0  0  0
  126.1962  106.1650  106.6313 H   0  0  0  0  0  0  0  0  0  0  0  0
  125.7572  109.8446  108.8419 H   0  0  0  0  0  0  0  0  0  0  0  0
  123.2238  104.8431  108.4011 H   0  0  0  0  0  0  0  0  0  0  0  0
  121.4841  107.8920  110.1762 H   0  0  0  0  0  0  0  0  0  0  0  0
  122.9813  107.7231  111.1194 H   0  0  0  0  0  0  0  0  0  0  0  0
  122.2870  106.3106  110.2949 H   0  0  0  0  0  0  0  0  0  0  0  0
  124.4377  105.9957  108.7313 H   0  0  0  0  0  0  0  0  0  0  0  0
  124.9363  107.0376  110.0646 H   0  0  0  0  0  0  0  0  0  0  0  0
  121.6880  102.9954  107.7173 H   0  0  0  0  0  0  0  0  0  0  0  0
  127.3931  109.9993  106.8860 H   0  0  0  0  0  0  0  0  0  0  0  0
  116.5924  104.3049  104.4609 H   0  0  0  0  0  0  0  0  0  0  0  0
  117.2099  102.7858  105.0527 H   0  0  0  0  0  0  0  0  0  0  0  0
  1  2  1  0  0  0  0
  1  7  2  0  0  0  0
  2 10  2  0  0  0  0
  3  9  2  0  0  0  0
  3 10  1  0  0  0  0
  4  8  1  0  0  0  0
  4 14  2  0  0  0  0
  5  8  2  0  0  0  0
  5 16  1  0  0  0  0
  6 11  2  0  0  0  0
  6 15  1  0  0  0  0
  7  9  1  0  0  0  0
  7 11  1  0  0  0  0
  8 13  1  0  0  0  0
  9 15  1  0  0  0  0
 10 17  1  0  0  0  0
 11 21  1  0  0  0  0
 12 18  1  0  0  0  0
 13 18  1  0  0  0  0
 14 16  1  0  0  0  0
 18 21  1  0  0  0  0
 19 21  2  0  0  0  0
 20 21  2  0  0  0  0
  1 22  1  0  0  0  0
  2 23  1  0  0  0  0
  3 24  1  0  0  0  0
  4 25  1  0  0  0  0
  5 26  1  0  0  0  0
  6 27  1  0  0  0  0
 12 28  1  0  0  0  0
 12 29  1  0  0  0  0
 12 30  1  0  0  0  0
 13 31  1  0  0  0  0
 13 32  1  0  0  0  0
 15 33  1  0  0  0  0
 16 34  1  0  0  0  0
 17 35  1  0  0  0  0
 17 36  1  0  0  0  0
M  END
> <FRED Chemgauss4 score>
-11.691611

$$$$
C91503966	P143194116
  -OEChem-05122015313D

 53 56  0     1  0  0  0  0  0999 V2000
  116.0959  107.0597  103.5709 C   0  0  0  0  0  0  0  0  0  0  0  0
  116.4013  106.2372  104.6295 C   0  0  0  0  0  0  0  0  0  0  0  0
  117.9258  107.8058  104.3616 C   0  0  0  0  0  0  0  0  0  0  0  0
  120.7468  106.1243  105.4704 C   0  0  0  0  0  0  0  0  0  0  0  0
  119.7157  104.0430  106.5361 C   0  0  0  0  0  0  0  0  0  0  0  0
  119.2498  104.0849  105.1126 C   0  0  0  0  0  0  0  0  0  0  0  0
  123.5744  107.9764  106.6360 C   0  0  0  0  0  0  0  0  0  0  0  0
  121.7273  108.1058  108.3477 C   0  0  0  0  0  0  0  0  0  0  0  0
  124.2312  108.7997  109.9907 C   0  0  0  0  0  0  0  0  0  0  0  0
  123.0565  106.5987  106.2284 C   0  0  0  0  0  0  0  0  0  0  0  0
  121.2388  106.7324  107.8899 C   0  0  0  0  0  0  0  0  0  0  0  0
  123.7635  109.5991  108.7562 C   0  0  2  0  0  0  0  0  0  0  0  0
  124.1251  107.4894  109.1784 C   0  0  1  0  0  0  0  0  0  0  0  0
  119.5123  105.3739  105.8533 C   0  0  0  0  0  0  0  0  0  0  0  0
  123.2531  108.2554  108.1177 C   0  0  0  0  0  0  0  0  0  0  0  0
  118.3242  106.1961  106.2667 C   0  0  0  0  0  0  0  0  0  0  0  0
  127.3542  105.6944  109.2286 C   0  0  0  0  0  0  0  0  0  0  0  0
  126.0443  106.2512  109.7505 C   0  0  0  0  0  0  0  0  0  0  0  0
  117.0489  108.0339  103.4092 N   0  0  0  0  0  0  0  0  0  0  0  0
  117.5763  106.7273  105.1257 N   0  0  0  0  0  0  0  0  0  0  0  0
  121.6242  106.4823  106.4980 N   0  0  0  0  0  0  0  0  0  0  0  0
  128.2259  106.8158  108.7966 N   0  3  0  0  0  0  0  0  0  0  0  0
  124.8372  110.2141  108.0836 O   0  5  0  0  0  0  0  0  0  0  0  0
  120.9172  106.3828  104.2818 O   0  0  0  0  0  0  0  0  0  0  0  0
  125.3822  106.9539  108.7155 O   0  0  0  0  0  0  0  0  0  0  0  0
  115.2382  106.9998  102.9169 H   0  0  0  0  0  0  0  0  0  0  0  0
  115.9026  105.3780  105.0561 H   0  0  0  0  0  0  0  0  0  0  0  0
  118.8231  108.3810  104.5448 H   0  0  0  0  0  0  0  0  0  0  0  0
  119.0005  103.7375  107.2909 H   0  0  0  0  0  0  0  0  0  0  0  0
  120.7252  103.6965  106.7245 H   0  0  0  0  0  0  0  0  0  0  0  0
  119.9467  103.7667  104.3460 H   0  0  0  0  0  0  0  0  0  0  0  0
  118.2216  103.8077  104.9111 H   0  0  0  0  0  0  0  0  0  0  0  0
  124.6478  108.0345  106.4407 H   0  0  0  0  0  0  0  0  0  0  0  0
  123.0818  108.7253  106.0076 H   0  0  0  0  0  0  0  0  0  0  0  0
  121.1985  108.8883  107.7870 H   0  0  0  0  0  0  0  0  0  0  0  0
  121.4765  108.2463  109.4066 H   0  0  0  0  0  0  0  0  0  0  0  0
  125.2541  109.0118  110.3524 H   0  0  0  0  0  0  0  0  0  0  0  0
  123.5593  108.8581  110.8631 H   0  0  0  0  0  0  0  0  0  0  0  0
  123.2635  106.4320  105.1671 H   0  0  0  0  0  0  0  0  0  0  0  0
  123.5547  105.7977  106.7803 H   0  0  0  0  0  0  0  0  0  0  0  0
  121.6878  105.9369  108.4986 H   0  0  0  0  0  0  0  0  0  0  0  0
  120.1563  106.6689  108.0294 H   0  0  0  0  0  0  0  0  0  0  0  0
  122.9848  110.3315  108.9867 H   0  0  0  0  0  0  0  0  0  0  0  0
  123.5762  106.7130  109.7201 H   0  0  0  0  0  0  0  0  0  0  0  0
  118.6254  107.0554  106.8869 H   0  0  0  0  0  0  0  0  0  0  0  0
  117.6179  105.6066  106.8727 H   0  0  0  0  0  0  0  0  0  0  0  0
  127.2110  105.0591  108.3499 H   0  0  0  0  0  0  0  0  0  0  0  0
  127.9013  105.1528  110.0047 H   0  0  0  0  0  0  0  0  0  0  0  0
  125.3939  105.4316  110.0718 H   0  0  0  0  0  0  0  0  0  0  0  0
  126.2011  106.9282  110.5965 H   0  0  0  0  0  0  0  0  0  0  0  0
  127.6928  107.6889  108.7299 H   0  0  0  0  0  0  0  0  0  0  0  0
  128.6378  106.6250  107.8772 H   0  0  0  0  0  0  0  0  0  0  0  0
  128.9914  106.9617  109.4629 H   0  0  0  0  0  0  0  0  0  0  0  0
  1  2  2  0  0  0  0
  1 19  1  0  0  0  0
  2 20  1  0  0  0  0
  3 19  2  0  0  0  0
  3 20  1  0  0  0  0
  4 14  1  0  0  0  0
  4 21  1  0  0  0  0
  4 24  2  0  0  0  0
  5  6  1  0  0  0  0
  5 14  1  0  0  0  0
  6 14  1  0  0  0  0
  7 10  1  0  0  0  0
  7 15  1  0  0  0  0
  8 11  1  0  0  0  0
  8 15  1  0  0  0  0
  9 12  1  0  0  0  0
  9 13  1  0  0  0  0
 10 21  1  0  0  0  0
 11 21  1  0  0  0  0
 12 15  1  0  0  0  0
 12 23  1  0  0  0  0
 13 15  1  0  0  0  0
 13 25  1  0  0  0  0
 14 16  1  0  0  0  0
 16 20  1  0  0  0  0
 17 18  1  0  0  0  0
 17 22  1  0  0  0  0
 18 25  1  0  0  0  0
  1 26  1  0  0  0  0
  2 27  1  0  0  0  0
  3 28  1  0  0  0  0
  5 29  1  0  0  0  0
  5 30  1  0  0  0  0
  6 31  1  0  0  0  0
  6 32  1  0  0  0  0
  7 33  1  0  0  0  0
  7 34  1  0  0  0  0
  8 35  1  0  0  0  0
  8 36  1  0  0  0  0
  9 37  1  0  0  0  0
  9 38  1  0  0  0  0
 10 39  1  0  0  0  0
 10 40  1  0  0  0  0
 11 41  1  0  0  0  0
 11 42  1  0  0  0  0
 12 43  1  0  0  0  0
 13 44  1  0  0  0  0
 16 45  1  0  0  0  0
 16 46  1  0  0  0  0
 17 47  1  0  0  0  0
 17 48  1  0  0  0  0
 18 49  1  0  0  0  0
 18 50  1  0  0  0  0
 22 51  1  0  0  0  0
 22 52  1  0  0  0  0
 22 53  1  0  0  0  0
M  CHG  2  22   1  23  -1
M  END
> <FRED Chemgauss4 score>
-11.670393

$$$$
C72128274	P111969138
  -OEChem-05122015313D

 41 44  0     0  0  0  0  0  0999 V2000
  124.9699  105.4273  108.0261 C   0  0  0  0  0  0  0  0  0  0  0  0
  120.7497  105.2110  107.7115 C   0  0  0  0  0  0  0  0  0  0  0  0
  122.2143  107.9683  108.6023 C   0  0  0  0  0  0  0  0  0  0  0  0
  126.1907  105.7231  108.5933 C   0  0  0  0  0  0  0  0  0  0  0  0
  122.2916  105.5710  106.0099 C   0  0  0  0  0  0  0  0  0  0  0  0
  124.0792  106.4850  108.3491 C   0  0  0  0  0  0  0  0  0  0  0  0
  121.9396  105.8812  107.3051 C   0  0  0  0  0  0  0  0  0  0  0  0
  122.7326  106.7827  108.0844 C   0  0  0  0  0  0  0  0  0  0  0  0
  120.2374  104.4141  106.7112 C   0  0  0  0  0  0  0  0  0  0  0  0
  124.7993  107.3996  109.1121 C   0  0  0  0  0  0  0  0  0  0  0  0
  123.0469  108.7912  109.3488 C   0  0  0  0  0  0  0  0  0  0  0  0
  119.0700  103.5935  106.7304 C   0  0  0  0  0  0  0  0  0  0  0  0
  122.5590  112.3792  112.6490 C   0  0  0  0  0  0  0  0  0  0  0  0
  122.4427  111.0427  113.3870 C   0  0  0  0  0  0  0  0  0  0  0  0
  122.4314  112.0530  111.1634 C   0  0  0  0  0  0  0  0  0  0  0  0
  122.2525  109.9802  112.3077 C   0  0  0  0  0  0  0  0  0  0  0  0
  122.8922  110.6032  111.0728 C   0  0  0  0  0  0  0  0  0  0  0  0
  124.3485  108.5556  109.6349 N   0  0  0  0  0  0  0  0  0  0  0  0
  126.0757  106.9210  109.2497 N   0  0  0  0  0  0  0  0  0  0  0  0
  119.1907  102.2582  107.1497 N   0  0  0  0  0  0  0  0  0  0  0  0
  122.4781  109.9582  109.8398 N   0  0  0  0  0  0  0  0  0  0  0  0
  117.9412  104.0162  106.3707 O   0  0  0  0  0  0  0  0  0  0  0  0
  121.1898  104.4759  105.2894 S   0  0  0  0  0  0  0  0  0  0  0  0
  124.7519  104.5426  107.4436 H   0  0  0  0  0  0  0  0  0  0  0  0
  120.2905  105.3076  108.6879 H   0  0  0  0  0  0  0  0  0  0  0  0
  121.1772  108.2411  108.4234 H   0  0  0  0  0  0  0  0  0  0  0  0
  127.1298  105.1879  108.5886 H   0  0  0  0  0  0  0  0  0  0  0  0
  123.1405  105.9285  105.4421 H   0  0  0  0  0  0  0  0  0  0  0  0
  121.7897  113.0894  112.9686 H   0  0  0  0  0  0  0  0  0  0  0  0
  123.5341  112.8344  112.8576 H   0  0  0  0  0  0  0  0  0  0  0  0
  123.3610  110.8511  113.9541 H   0  0  0  0  0  0  0  0  0  0  0  0
  121.6106  111.0410  114.0985 H   0  0  0  0  0  0  0  0  0  0  0  0
  121.3857  112.1588  110.8473 H   0  0  0  0  0  0  0  0  0  0  0  0
  123.0339  112.7215  110.5404 H   0  0  0  0  0  0  0  0  0  0  0  0
  122.7143  109.0262  112.5813 H   0  0  0  0  0  0  0  0  0  0  0  0
  121.1825  109.7947  112.1492 H   0  0  0  0  0  0  0  0  0  0  0  0
  123.9983  110.5557  111.1554 H   0  0  0  0  0  0  0  0  0  0  0  0
  126.8183  107.3819  109.7570 H   0  0  0  0  0  0  0  0  0  0  0  0
  120.1036  101.9141  107.4270 H   0  0  0  0  0  0  0  0  0  0  0  0
  118.3983  101.6251  107.1853 H   0  0  0  0  0  0  0  0  0  0  0  0
  121.7273  110.3826  109.3030 H   0  0  0  0  0  0  0  0  0  0  0  0
  1  4  2  0  0  0  0
  1  6  1  0  0  0  0
  2  7  1  0  0  0  0
  2  9  2  0  0  0  0
  3  8  1  0  0  0  0
  3 11  2  0  0  0  0
  4 19  1  0  0  0  0
  5  7  2  0  0  0  0
  5 23  1  0  0  0  0
  6  8  2  0  0  0  0
  6 10  1  0  0  0  0
  7  8  1  0  0  0  0
  9 12  1  0  0  0  0
  9 23  1  0  0  0  0
 10 18  2  0  0  0  0
 10 19  1  0  0  0  0
 11 18  1  0  0  0  0
 11 21  1  0  0  0  0
 12 20  1  0  0  0  0
 12 22  2  0  0  0  0
 13 14  1  0  0  0  0
 13 15  1  0  0  0  0
 14 16  1  0  0  0  0
 15 17  1  0  0  0  0
 16 17  1  0  0  0  0
 17 21  1  0  0  0  0
  1 24  1  0  0  0  0
  2 25  1  0  0  0  0
  3 26  1  0  0  0  0
  4 27  1  0  0  0  0
  5 28  1  0  0  0  0
 13 29  1  0  0  0  0
 13 30  1  0  0  0  0
 14 31  1  0  0  0  0
 14 32  1  0  0  0  0
 15 33  1  0  0  0  0
 15 34  1  0  0  0  0
 16 35  1  0  0  0  0
 16 36  1  0  0  0  0
 17 37  1  0  0  0  0
 19 38  1  0  0  0  0
 20 39  1  0  0  0  0
 20 40  1  0  0  0  0
 21 41  1  0  0  0  0
M  END
> <FRED Chemgauss4 score>
-11.614923

$$$$
C85378026	P133586410
  -OEChem-05122015313D

 36 38  0     0  0  0  0  0  0999 V2000
  124.6259  109.9171  108.7393 C   0  0  0  0  0  0  0  0  0  0  0  0
  123.9340  109.9219  109.9539 C   0  0  0  0  0  0  0  0  0  0  0  0
  118.5445  104.0349  106.3313 C   0  0  0  0  0  0  0  0  0  0  0  0
  119.9438  103.7682  106.2996 C   0  0  0  0  0  0  0  0  0  0  0  0
  123.6857  107.5071  109.8883 C   0  0  0  0  0  0  0  0  0  0  0  0
  125.4365  107.0247  106.7161 C   0  0  0  0  0  0  0  0  0  0  0  0
  124.3807  107.4774  108.6629 C   0  0  0  0  0  0  0  0  0  0  0  0
  124.8339  108.6807  108.1178 C   0  0  0  0  0  0  0  0  0  0  0  0
  123.4703  108.7367  110.5213 C   0  0  0  0  0  0  0  0  0  0  0  0
  124.7684  106.4413  107.7678 C   0  0  0  0  0  0  0  0  0  0  0  0
  118.2769  105.3782  106.4778 C   0  0  0  0  0  0  0  0  0  0  0  0
  120.6925  104.9181  106.4229 C   0  0  0  0  0  0  0  0  0  0  0  0
  116.9625  106.0522  106.5532 C   0  0  0  0  0  0  0  0  0  0  0  0
  122.1868  105.0634  106.4347 C   0  0  0  0  0  0  0  0  0  0  0  0
  125.4712  108.3756  106.9363 N   0  0  0  0  0  0  0  0  0  0  0  0
  122.7743  108.7744  111.7499 N   0  0  0  0  0  0  0  0  0  0  0  0
  122.7710  104.6348  107.7137 N   0  0  0  0  0  0  0  0  0  0  0  0
  125.1264  104.0159  106.8737 O   0  0  0  0  0  0  0  0  0  0  0  0
  124.7553  104.3755  109.3348 O   0  0  0  0  0  0  0  0  0  0  0  0
  119.7092  106.3116  106.5763 S   0  0  0  0  0  0  0  0  0  0  0  0
  124.4673  104.7716  107.9494 S   0  0  0  0  0  0  0  0  0  0  0  0
  124.9865  110.8403  108.2982 H   0  0  0  0  0  0  0  0  0  0  0  0
  123.7612  110.8724  110.4542 H   0  0  0  0  0  0  0  0  0  0  0  0
  117.7762  103.2765  106.2491 H   0  0  0  0  0  0  0  0  0  0  0  0
  120.3751  102.7813  106.1902 H   0  0  0  0  0  0  0  0  0  0  0  0
  123.3218  106.5856  110.3354 H   0  0  0  0  0  0  0  0  0  0  0  0
  125.8909  106.6021  105.8308 H   0  0  0  0  0  0  0  0  0  0  0  0
  116.6138  106.1207  107.5956 H   0  0  0  0  0  0  0  0  0  0  0  0
  117.0006  107.0741  106.1420 H   0  0  0  0  0  0  0  0  0  0  0  0
  116.1924  105.5166  105.9740 H   0  0  0  0  0  0  0  0  0  0  0  0
  122.6395  104.4620  105.6388 H   0  0  0  0  0  0  0  0  0  0  0  0
  122.4818  106.1040  106.2639 H   0  0  0  0  0  0  0  0  0  0  0  0
  125.9019  109.0517  106.3209 H   0  0  0  0  0  0  0  0  0  0  0  0
  122.6651  109.6492  112.2196 H   0  0  0  0  0  0  0  0  0  0  0  0
  122.4873  107.9156  112.1718 H   0  0  0  0  0  0  0  0  0  0  0  0
  122.1518  104.6868  108.5318 H   0  0  0  0  0  0  0  0  0  0  0  0
  1  2  1  0  0  0  0
  1  8  2  0  0  0  0
  2  9  2  0  0  0  0
  3  4  1  0  0  0  0
  3 11  2  0  0  0  0
  4 12  2  0  0  0  0
  5  7  2  0  0  0  0
  5  9  1  0  0  0  0
  6 10  2  0  0  0  0
  6 15  1  0  0  0  0
  7  8  1  0  0  0  0
  7 10  1  0  0  0  0
  8 15  1  0  0  0  0
  9 16  1  0  0  0  0
 10 21  1  0  0  0  0
 11 13  1  0  0  0  0
 11 20  1  0  0  0  0
 12 14  1  0  0  0  0
 12 20  1  0  0  0  0
 14 17  1  0  0  0  0
 17 21  1  0  0  0  0
 18 21  2  0  0  0  0
 19 21  2  0  0  0  0
  1 22  1  0  0  0  0
  2 23  1  0  0  0  0
  3 24  1  0  0  0  0
  4 25  1  0  0  0  0
  5 26  1  0  0  0  0
  6 27  1  0  0  0  0
 13 28  1  0  0  0  0
 13 29  1  0  0  0  0
 13 30  1  0  0  0  0
 14 31  1  0  0  0  0
 14 32  1  0  0  0  0
 15 33  1  0  0  0  0
 16 34  1  0  0  0  0
 16 35  1  0  0  0  0
 17 36  1  0  0  0  0
M  END
> <FRED Chemgauss4 score>
-11.609900

$$$$
C35354207	P52456403
  -OEChem-05122015313D

 38 40  0     0  0  0  0  0  0999 V2000
  118.0694  106.4665  106.6395 C   0  0  0  0  0  0  0  0  0  0  0  0
  119.3637  106.2600  107.1217 C   0  0  0  0  0  0  0  0  0  0  0  0
  125.5733  106.9468  108.0133 C   0  0  0  0  0  0  0  0  0  0  0  0
  125.8785  104.6468  108.6871 C   0  0  0  0  0  0  0  0  0  0  0  0
  124.4829  106.5721  107.2283 C   0  0  0  0  0  0  0  0  0  0  0  0
  124.7880  104.2721  107.9022 C   0  0  0  0  0  0  0  0  0  0  0  0
  119.5133  104.1357  105.9440 C   0  0  0  0  0  0  0  0  0  0  0  0
  117.5200  105.5081  105.8045 C   0  0  0  0  0  0  0  0  0  0  0  0
  118.2345  104.3545  105.4606 C   0  0  0  0  0  0  0  0  0  0  0  0
  126.2712  105.9841  108.7426 C   0  0  0  0  0  0  0  0  0  0  0  0
  120.0805  105.1032  106.7764 C   0  0  0  0  0  0  0  0  0  0  0  0
  124.0902  105.2348  107.1728 C   0  0  0  0  0  0  0  0  0  0  0  0
  116.1521  105.4879  105.1992 C   0  0  0  0  0  0  0  0  0  0  0  0
  117.4100  103.4553  104.5946 C   0  0  0  0  0  0  0  0  0  0  0  0
  116.3285  104.4281  104.1011 C   0  0  0  0  0  0  0  0  0  0  0  0
  128.2542  105.4346  110.0419 N   0  0  0  0  0  0  0  0  0  0  0  0
  127.3740  106.3624  109.5365 N   0  0  0  0  0  0  0  0  0  0  0  0
  121.4002  104.9109  107.2881 N   0  0  0  0  0  0  0  0  0  0  0  0
  122.8875  103.3562  105.8499 O   0  0  0  0  0  0  0  0  0  0  0  0
  122.5709  105.7342  105.1124 O   0  0  0  0  0  0  0  0  0  0  0  0
  122.7071  104.7584  106.1766 S   0  0  0  0  0  0  0  0  0  0  0  0
  117.5128  107.3552  106.9163 H   0  0  0  0  0  0  0  0  0  0  0  0
  119.8102  107.0055  107.7760 H   0  0  0  0  0  0  0  0  0  0  0  0
  125.8709  107.9916  108.0490 H   0  0  0  0  0  0  0  0  0  0  0  0
  126.4148  103.8887  109.2524 H   0  0  0  0  0  0  0  0  0  0  0  0
  123.9467  107.3305  106.6642 H   0  0  0  0  0  0  0  0  0  0  0  0
  124.4911  103.2273  107.8663 H   0  0  0  0  0  0  0  0  0  0  0  0
  120.0562  103.2327  105.6818 H   0  0  0  0  0  0  0  0  0  0  0  0
  115.4156  105.1676  105.9433 H   0  0  0  0  0  0  0  0  0  0  0  0
  115.8654  106.4552  104.7775 H   0  0  0  0  0  0  0  0  0  0  0  0
  117.9802  103.0364  103.7609 H   0  0  0  0  0  0  0  0  0  0  0  0
  116.9741  102.6499  105.1945 H   0  0  0  0  0  0  0  0  0  0  0  0
  115.3904  103.9205  103.8560 H   0  0  0  0  0  0  0  0  0  0  0  0
  116.6794  104.9186  103.1824 H   0  0  0  0  0  0  0  0  0  0  0  0
  128.4495  105.6752  111.0126 H   0  0  0  0  0  0  0  0  0  0  0  0
  129.1401  105.5248  109.5462 H   0  0  0  0  0  0  0  0  0  0  0  0
  127.6328  107.3386  109.5553 H   0  0  0  0  0  0  0  0  0  0  0  0
  121.4634  104.3186  108.1317 H   0  0  0  0  0  0  0  0  0  0  0  0
  1  2  2  0  0  0  0
  1  8  1  0  0  0  0
  2 11  1  0  0  0  0
  3  5  1  0  0  0  0
  3 10  2  0  0  0  0
  4  6  2  0  0  0  0
  4 10  1  0  0  0  0
  5 12  2  0  0  0  0
  6 12  1  0  0  0  0
  7  9  1  0  0  0  0
  7 11  2  0  0  0  0
  8  9  2  0  0  0  0
  8 13  1  0  0  0  0
  9 14  1  0  0  0  0
 10 17  1  0  0  0  0
 11 18  1  0  0  0  0
 12 21  1  0  0  0  0
 13 15  1  0  0  0  0
 14 15  1  0  0  0  0
 16 17  1  0  0  0  0
 18 21  1  0  0  0  0
 19 21  2  0  0  0  0
 20 21  2  0  0  0  0
  1 22  1  0  0  0  0
  2 23  1  0  0  0  0
  3 24  1  0  0  0  0
  4 25  1  0  0  0  0
  5 26  1  0  0  0  0
  6 27  1  0  0  0  0
  7 28  1  0  0  0  0
 13 29  1  0  0  0  0
 13 30  1  0  0  0  0
 14 31  1  0  0  0  0
 14 32  1  0  0  0  0
 15 33  1  0  0  0  0
 15 34  1  0  0  0  0
 16 35  1  0  0  0  0
 16 36  1  0  0  0  0
 17 37  1  0  0  0  0
 18 38  1  0  0  0  0
M  END
> <FRED Chemgauss4 score>
-11.582129

$$$$
C78955199	P123237055
  -OEChem-05122015313D

 33 34  0     0  0  0  0  0  0999 V2000
  119.5533  107.7072  104.2931 C   0  0  0  0  0  0  0  0  0  0  0  0
  123.3417  107.0748  107.7956 C   0  0  0  0  0  0  0  0  0  0  0  0
  118.2398  108.0187  103.9423 C   0  0  0  0  0  0  0  0  0  0  0  0
  124.4454  106.6677  108.5450 C   0  0  0  0  0  0  0  0  0  0  0  0
  117.7066  105.6641  103.8477 C   0  0  0  0  0  0  0  0  0  0  0  0
  123.3934  104.9851  106.5841 C   0  0  0  0  0  0  0  0  0  0  0  0
  119.0203  105.3526  104.1984 C   0  0  0  0  0  0  0  0  0  0  0  0
  119.9436  106.3741  104.4211 C   0  0  0  0  0  0  0  0  0  0  0  0
  122.8156  106.2334  106.8152 C   0  0  0  0  0  0  0  0  0  0  0  0
  117.3164  106.9972  103.7196 C   0  0  0  0  0  0  0  0  0  0  0  0
  125.0232  105.4193  108.3139 C   0  0  0  0  0  0  0  0  0  0  0  0
  124.4972  104.5780  107.3335 C   0  0  0  0  0  0  0  0  0  0  0  0
  119.4016  103.9522  104.3238 C   0  0  0  0  0  0  0  0  0  0  0  0
  121.3566  106.0683  104.7978 C   0  0  0  0  0  0  0  0  0  0  0  0
  119.2545  103.4095  105.5182 N   0  0  0  0  0  0  0  0  0  0  0  0
  119.8990  103.2101  103.2498 N   0  0  0  0  0  0  0  0  0  0  0  0
  121.7175  106.6390  106.0697 N   0  0  0  0  0  0  0  0  0  0  0  0
  118.7456  104.3227  106.4471 O   0  0  0  0  0  0  0  0  0  0  0  0
  116.0551  107.2964  103.3824 F   0  0  0  0  0  0  0  0  0  0  0  0
  126.3888  104.9722  109.2750 Cl  0  0  0  0  0  0  0  0  0  0  0  0
  125.1689  103.0202  107.0007 Cl  0  0  0  0  0  0  0  0  0  0  0  0
  120.2657  108.5100  104.4640 H   0  0  0  0  0  0  0  0  0  0  0  0
  122.8992  108.0497  107.9838 H   0  0  0  0  0  0  0  0  0  0  0  0
  117.9358  109.0564  103.8425 H   0  0  0  0  0  0  0  0  0  0  0  0
  124.8424  107.3361  109.3050 H   0  0  0  0  0  0  0  0  0  0  0  0
  116.9766  104.8782  103.6722 H   0  0  0  0  0  0  0  0  0  0  0  0
  122.9781  104.3339  105.8179 H   0  0  0  0  0  0  0  0  0  0  0  0
  121.5210  104.9845  104.8618 H   0  0  0  0  0  0  0  0  0  0  0  0
  122.0626  106.4547  104.0513 H   0  0  0  0  0  0  0  0  0  0  0  0
  119.9990  103.6071  102.3225 H   0  0  0  0  0  0  0  0  0  0  0  0
  120.1395  102.2299  103.3532 H   0  0  0  0  0  0  0  0  0  0  0  0
  121.1370  107.3830  106.4454 H   0  0  0  0  0  0  0  0  0  0  0  0
  118.6997  103.7777  107.2508 H   0  0  0  0  0  0  0  0  0  0  0  0
  1  3  2  0  0  0  0
  1  8  1  0  0  0  0
  2  4  1  0  0  0  0
  2  9  2  0  0  0  0
  3 10  1  0  0  0  0
  4 11  2  0  0  0  0
  5  7  1  0  0  0  0
  5 10  2  0  0  0  0
  6  9  1  0  0  0  0
  6 12  2  0  0  0  0
  7  8  2  0  0  0  0
  7 13  1  0  0  0  0
  8 14  1  0  0  0  0
  9 17  1  0  0  0  0
 10 19  1  0  0  0  0
 11 12  1  0  0  0  0
 11 20  1  0  0  0  0
 12 21  1  0  0  0  0
 13 15  2  0  0  0  0
 13 16  1  0  0  0  0
 14 17  1  0  0  0  0
 15 18  1  0  0  0  0
  1 22  1  0  0  0  0
  2 23  1  0  0  0  0
  3 24  1  0  0  0  0
  4 25  1  0  0  0  0
  5 26  1  0  0  0  0
  6 27  1  0  0  0  0
 14 28  1  0  0  0  0
 14 29  1  0  0  0  0
 16 30  1  0  0  0  0
 16 31  1  0  0  0  0
 17 32  1  0  0  0  0
 18 33  1  0  0  0  0
M  END
> <FRED Chemgauss4 score>
-11.573131

$$$$
C51113450	P76540547
  -OEChem-05122015313D

 35 36  0     0  0  0  0  0  0999 V2000
  117.9598  106.1730  103.9448 C   0  0  0  0  0  0  0  0  0  0  0  0
  117.2138  104.3818  105.3842 C   0  0  0  0  0  0  0  0  0  0  0  0
  116.7949  106.0498  103.1877 C   0  0  0  0  0  0  0  0  0  0  0  0
  116.0488  104.2586  104.6271 C   0  0  0  0  0  0  0  0  0  0  0  0
  124.6326  106.8221  107.0346 C   0  0  0  0  0  0  0  0  0  0  0  0
  124.2707  104.4857  107.4760 C   0  0  0  0  0  0  0  0  0  0  0  0
  123.9025  105.6576  106.8244 C   0  0  0  0  0  0  0  0  0  0  0  0
  118.1693  105.3389  105.0431 C   0  0  0  0  0  0  0  0  0  0  0  0
  115.8393  105.0927  103.5288 C   0  0  0  0  0  0  0  0  0  0  0  0
  125.7137  106.7626  107.8991 C   0  0  0  0  0  0  0  0  0  0  0  0
  125.3681  104.5308  108.3206 C   0  0  0  0  0  0  0  0  0  0  0  0
  122.7334  105.6655  105.9078 C   0  0  0  0  0  0  0  0  0  0  0  0
  119.4141  105.4714  105.8539 C   0  0  0  0  0  0  0  0  0  0  0  0
  120.5665  104.5901  105.3565 C   0  0  0  0  0  0  0  0  0  0  0  0
  126.1017  105.6430  108.5498 N   0  0  0  0  0  0  0  0  0  0  0  0
  125.9582  109.1765  107.7099 N   0  0  0  0  0  0  0  0  0  0  0  0
  126.4478  107.9571  108.1039 N   0  0  0  0  0  0  0  0  0  0  0  0
  121.7462  104.7231  106.1686 N   0  0  0  0  0  0  0  0  0  0  0  0
  122.7055  106.4673  104.9778 O   0  0  0  0  0  0  0  0  0  0  0  0
  114.4023  104.9411  102.5948 Cl  0  0  0  0  0  0  0  0  0  0  0  0
  125.8955  103.1340  109.1663 Cl  0  0  0  0  0  0  0  0  0  0  0  0
  118.6997  106.9211  103.6725 H   0  0  0  0  0  0  0  0  0  0  0  0
  117.3693  103.7282  106.2386 H   0  0  0  0  0  0  0  0  0  0  0  0
  116.6452  106.7069  102.3349 H   0  0  0  0  0  0  0  0  0  0  0  0
  115.3130  103.5082  104.9047 H   0  0  0  0  0  0  0  0  0  0  0  0
  124.3607  107.7474  106.5353 H   0  0  0  0  0  0  0  0  0  0  0  0
  123.7141  103.5658  107.3254 H   0  0  0  0  0  0  0  0  0  0  0  0
  119.1975  105.2053  106.9023 H   0  0  0  0  0  0  0  0  0  0  0  0
  119.7469  106.5231  105.8860 H   0  0  0  0  0  0  0  0  0  0  0  0
  120.2813  103.5336  105.3846 H   0  0  0  0  0  0  0  0  0  0  0  0
  120.8437  104.8415  104.3275 H   0  0  0  0  0  0  0  0  0  0  0  0
  126.7156  109.6919  107.2639 H   0  0  0  0  0  0  0  0  0  0  0  0
  125.7077  109.7091  108.5420 H   0  0  0  0  0  0  0  0  0  0  0  0
  127.2350  107.9213  108.7309 H   0  0  0  0  0  0  0  0  0  0  0  0
  121.8739  104.0514  106.9227 H   0  0  0  0  0  0  0  0  0  0  0  0
  1  3  1  0  0  0  0
  1  8  2  0  0  0  0
  2  4  2  0  0  0  0
  2  8  1  0  0  0  0
  3  9  2  0  0  0  0
  4  9  1  0  0  0  0
  5  7  1  0  0  0  0
  5 10  2  0  0  0  0
  6  7  2  0  0  0  0
  6 11  1  0  0  0  0
  7 12  1  0  0  0  0
  8 13  1  0  0  0  0
  9 20  1  0  0  0  0
 10 15  1  0  0  0  0
 10 17  1  0  0  0  0
 11 15  2  0  0  0  0
 11 21  1  0  0  0  0
 12 18  1  0  0  0  0
 12 19  2  0  0  0  0
 13 14  1  0  0  0  0
 14 18  1  0  0  0  0
 16 17  1  0  0  0  0
  1 22  1  0  0  0  0
  2 23  1  0  0  0  0
  3 24  1  0  0  0  0
  4 25  1  0  0  0  0
  5 26  1  0  0  0  0
  6 27  1  0  0  0  0
 13 28  1  0  0  0  0
 13 29  1  0  0  0  0
 14 30  1  0  0  0  0
 14 31  1  0  0  0  0
 16 32  1  0  0  0  0
 16 33  1  0  0  0  0
 17 34  1  0  0  0  0
 18 35  1  0  0  0  0
M  END
> <FRED Chemgauss4 score>
-11.544446

$$$$
C71297163	P110220857
  -OEChem-05122015313D

 56 60  0     1  0  0  0  0  0999 V2000
  117.2548  104.4481  105.2891 C   0  0  0  0  0  0  0  0  0  0  0  0
  117.7021  103.7607  106.3507 C   0  0  0  0  0  0  0  0  0  0  0  0
  117.9731  107.2795  105.8527 C   0  0  0  0  0  0  0  0  0  0  0  0
  120.8731  105.6602  107.1698 C   0  0  0  0  0  0  0  0  0  0  0  0
  117.4488  110.6208  106.2212 C   0  0  0  0  0  0  0  0  0  0  0  0
  118.1946  110.7100  107.5193 C   0  0  0  0  0  0  0  0  0  0  0  0
  119.4841  104.0077  104.9077 C   0  0  0  0  0  0  0  0  0  0  0  0
  123.7001  104.5867  107.6228 C   0  0  0  0  0  0  0  0  0  0  0  0
  124.9140  107.8974  108.5257 C   0  0  0  0  0  0  0  0  0  0  0  0
  125.8576  108.1918  107.3446 C   0  0  0  0  0  0  0  0  0  0  0  0
  125.7017  105.8734  106.6171 C   0  0  0  0  0  0  0  0  0  0  0  0
  123.0894  106.3691  109.1827 C   0  0  0  0  0  0  0  0  0  0  0  0
  118.4537  105.1095  104.6426 C   0  0  2  0  0  0  0  0  0  0  0  0
  119.1978  103.9684  106.4167 C   0  0  1  0  0  0  0  0  0  0  0  0
  119.0002  106.2263  105.5683 C   0  0  2  0  0  0  0  0  0  0  0  0
  119.4344  105.4398  106.8382 C   0  0  2  0  0  0  0  0  0  0  0  0
  124.8173  105.5953  107.8295 C   0  0  1  0  0  0  0  0  0  0  0  0
  117.5891  109.4014  107.0907 C   0  0  0  0  0  0  0  0  0  0  0  0
  122.6883  104.9592  108.7182 C   0  0  1  0  0  0  0  0  0  0  0  0
  127.7267  106.6804  107.7064 C   0  0  0  0  0  0  0  0  0  0  0  0
  124.0430  106.7901  108.1628 N   0  0  2  0  0  0  0  0  0  0  0  0
  126.6011  107.0221  106.8384 N   0  0  2  0  0  0  0  0  0  0  0  0
  118.4163  108.2864  106.6889 N   0  0  0  0  0  0  0  0  0  0  0  0
  121.3337  104.9027  108.2341 N   0  0  0  0  0  0  0  0  0  0  0  0
  116.8592  107.1885  105.3501 O   0  0  0  0  0  0  0  0  0  0  0  0
  121.5294  106.4585  106.5114 O   0  0  0  0  0  0  0  0  0  0  0  0
  116.2272  104.5538  104.9806 H   0  0  0  0  0  0  0  0  0  0  0  0
  117.1023  103.2120  107.0588 H   0  0  0  0  0  0  0  0  0  0  0  0
  116.4813  111.1043  106.1621 H   0  0  0  0  0  0  0  0  0  0  0  0
  118.0250  110.6555  105.3047 H   0  0  0  0  0  0  0  0  0  0  0  0
  119.2726  110.8045  107.4767 H   0  0  0  0  0  0  0  0  0  0  0  0
  117.7277  111.2534  108.3316 H   0  0  0  0  0  0  0  0  0  0  0  0
  119.2581  103.0630  104.3959 H   0  0  0  0  0  0  0  0  0  0  0  0
  120.5099  104.3035  104.6627 H   0  0  0  0  0  0  0  0  0  0  0  0
  123.2579  104.6784  106.6227 H   0  0  0  0  0  0  0  0  0  0  0  0
  124.0548  103.5574  107.7375 H   0  0  0  0  0  0  0  0  0  0  0  0
  125.5012  107.6684  109.4237 H   0  0  0  0  0  0  0  0  0  0  0  0
  124.3185  108.7922  108.7371 H   0  0  0  0  0  0  0  0  0  0  0  0
  125.2700  108.6518  106.5220 H   0  0  0  0  0  0  0  0  0  0  0  0
  126.5778  108.9693  107.6683 H   0  0  0  0  0  0  0  0  0  0  0  0
  126.3031  104.9663  106.4015 H   0  0  0  0  0  0  0  0  0  0  0  0
  125.0771  106.0403  105.7120 H   0  0  0  0  0  0  0  0  0  0  0  0
  122.2407  107.0576  109.2542 H   0  0  0  0  0  0  0  0  0  0  0  0
  123.5691  106.3044  110.1680 H   0  0  0  0  0  0  0  0  0  0  0  0
  118.3187  105.3771  103.5939 H   0  0  0  0  0  0  0  0  0  0  0  0
  119.7496  103.2024  106.9637 H   0  0  0  0  0  0  0  0  0  0  0  0
  119.8539  106.7229  105.0902 H   0  0  0  0  0  0  0  0  0  0  0  0
  118.8450  105.7065  107.7263 H   0  0  0  0  0  0  0  0  0  0  0  0
  125.4382  105.2783  108.6791 H   0  0  0  0  0  0  0  0  0  0  0  0
  116.7006  109.0793  107.6229 H   0  0  0  0  0  0  0  0  0  0  0  0
  122.7565  104.2576  109.5586 H   0  0  0  0  0  0  0  0  0  0  0  0
  128.2583  105.8122  107.3081 H   0  0  0  0  0  0  0  0  0  0  0  0
  127.3699  106.4434  108.7124 H   0  0  0  0  0  0  0  0  0  0  0  0
  128.4233  107.5206  107.7705 H   0  0  0  0  0  0  0  0  0  0  0  0
  119.3690  108.2407  107.0378 H   0  0  0  0  0  0  0  0  0  0  0  0
  120.6808  104.2737  108.6978 H   0  0  0  0  0  0  0  0  0  0  0  0
  1  2  2  0  0  0  0
  1 13  1  0  0  0  0
  2 14  1  0  0  0  0
  3 15  1  0  0  0  0
  3 23  1  0  0  0  0
  3 25  2  0  0  0  0
  4 16  1  0  0  0  0
  4 24  1  0  0  0  0
  4 26  2  0  0  0  0
  5  6  1  0  0  0  0
  5 18  1  0  0  0  0
  6 18  1  0  0  0  0
  7 13  1  0  0  0  0
  7 14  1  0  0  0  0
  8 17  1  0  0  0  0
  8 19  1  0  0  0  0
  9 10  1  0  0  0  0
  9 21  1  0  0  0  0
 10 22  1  0  0  0  0
 11 17  1  0  0  0  0
 11 22  1  0  0  0  0
 12 19  1  0  0  0  0
 12 21  1  0  0  0  0
 13 15  1  0  0  0  0
 14 16  1  0  0  0  0
 15 16  1  0  0  0  0
 17 21  1  0  0  0  0
 18 23  1  0  0  0  0
 19 24  1  0  0  0  0
 20 22  1  0  0  0  0
  1 27  1  0  0  0  0
  2 28  1  0  0  0  0
  5 29  1  0  0  0  0
  5 30  1  0  0  0  0
  6 31  1  0  0  0  0
  6 32  1  0  0  0  0
  7 33  1  0  0  0  0
  7 34  1  0  0  0  0
  8 35  1  0  0  0  0
  8 36  1  0  0  0  0
  9 37  1  0  0  0  0
  9 38  1  0  0  0  0
 10 39  1  0  0  0  0
 10 40  1  0  0  0  0
 11 41  1  0  0  0  0
 11 42  1  0  0  0  0
 12 43  1  0  0  0  0
 12 44  1  0  0  0  0
 13 45  1  0  0  0  0
 14 46  1  0  0  0  0
 15 47  1  0  0  0  0
 16 48  1  0  0  0  0
 17 49  1  0  0  0  0
 18 50  1  0  0  0  0
 19 51  1  0  0  0  0
 20 52  1  0  0  0  0
 20 53  1  0  0  0  0
 20 54  1  0  0  0  0
 23 55  1  0  0  0  0
 24 56  1  0  0  0  0
M  END
> <FRED Chemgauss4 score>
-11.536821

$$$$
C70239150	P108268807
  -OEChem-05122015313D

 39 40  0     0  0  0  0  0  0999 V2000
  124.1481  104.6586  107.0564 C   0  0  0  0  0  0  0  0  0  0  0  0
  123.9280  110.3233  111.8160 C   0  0  0  0  0  0  0  0  0  0  0  0
  121.5285  110.5369  111.9993 C   0  0  0  0  0  0  0  0  0  0  0  0
  125.4113  104.8724  107.6081 C   0  0  0  0  0  0  0  0  0  0  0  0
  124.0856  111.5660  112.4294 C   0  0  0  0  0  0  0  0  0  0  0  0
  121.6860  111.7797  112.6128 C   0  0  0  0  0  0  0  0  0  0  0  0
  124.5219  106.6777  108.9449 C   0  0  0  0  0  0  0  0  0  0  0  0
  123.0719  105.4544  107.4488 C   0  0  0  0  0  0  0  0  0  0  0  0
  122.6495  109.8087  111.6009 C   0  0  0  0  0  0  0  0  0  0  0  0
  125.5981  105.8819  108.5524 C   0  0  0  0  0  0  0  0  0  0  0  0
  123.2587  106.4639  108.3931 C   0  0  0  0  0  0  0  0  0  0  0  0
  122.9646  112.2942  112.8279 C   0  0  0  0  0  0  0  0  0  0  0  0
  121.7656  105.2072  106.8516 C   0  0  0  0  0  0  0  0  0  0  0  0
  119.9384  103.5320  106.4953 C   0  0  0  0  0  0  0  0  0  0  0  0
  122.4786  108.4636  110.9387 C   0  0  0  0  0  0  0  0  0  0  0  0
  122.3697  108.5575  109.4188 C   0  0  0  0  0  0  0  0  0  0  0  0
  126.8754  106.0972  109.1105 N   0  0  0  0  0  0  0  0  0  0  0  0
  122.1822  107.2820  108.8026 N   0  0  0  0  0  0  0  0  0  0  0  0
  121.2128  103.9371  107.0435 N   0  0  0  0  0  0  0  0  0  0  0  0
  121.1996  106.0930  106.1898 O   0  0  0  0  0  0  0  0  0  0  0  0
  123.1592  113.8272  113.5848 Cl  0  0  0  0  0  0  0  0  0  0  0  0
  124.0157  103.8692  106.3208 H   0  0  0  0  0  0  0  0  0  0  0  0
  124.8064  109.7621  111.5082 H   0  0  0  0  0  0  0  0  0  0  0  0
  120.5289  110.1429  111.8356 H   0  0  0  0  0  0  0  0  0  0  0  0
  126.2435  104.2468  107.2952 H   0  0  0  0  0  0  0  0  0  0  0  0
  125.0880  111.9541  112.5908 H   0  0  0  0  0  0  0  0  0  0  0  0
  120.8034  112.3359  112.9179 H   0  0  0  0  0  0  0  0  0  0  0  0
  124.6689  107.4656  109.6807 H   0  0  0  0  0  0  0  0  0  0  0  0
  119.1451  103.6932  107.2299 H   0  0  0  0  0  0  0  0  0  0  0  0
  119.9613  102.4718  106.2291 H   0  0  0  0  0  0  0  0  0  0  0  0
  119.7107  104.1138  105.5981 H   0  0  0  0  0  0  0  0  0  0  0  0
  121.5723  107.9914  111.3387 H   0  0  0  0  0  0  0  0  0  0  0  0
  123.3106  107.8043  111.2177 H   0  0  0  0  0  0  0  0  0  0  0  0
  121.5057  109.1708  109.1441 H   0  0  0  0  0  0  0  0  0  0  0  0
  123.2637  109.0097  108.9769 H   0  0  0  0  0  0  0  0  0  0  0  0
  127.6276  105.4894  108.8563 H   0  0  0  0  0  0  0  0  0  0  0  0
  126.9863  106.7924  109.8206 H   0  0  0  0  0  0  0  0  0  0  0  0
  121.2591  106.9277  108.6433 H   0  0  0  0  0  0  0  0  0  0  0  0
  121.7472  103.2313  107.5394 H   0  0  0  0  0  0  0  0  0  0  0  0
  1  4  2  0  0  0  0
  1  8  1  0  0  0  0
  2  5  2  0  0  0  0
  2  9  1  0  0  0  0
  3  6  1  0  0  0  0
  3  9  2  0  0  0  0
  4 10  1  0  0  0  0
  5 12  1  0  0  0  0
  6 12  2  0  0  0  0
  7 10  2  0  0  0  0
  7 11  1  0  0  0  0
  8 11  2  0  0  0  0
  8 13  1  0  0  0  0
  9 15  1  0  0  0  0
 10 17  1  0  0  0  0
 11 18  1  0  0  0  0
 12 21  1  0  0  0  0
 13 19  1  0  0  0  0
 13 20  2  0  0  0  0
 14 19  1  0  0  0  0
 15 16  1  0  0  0  0
 16 18  1  0  0  0  0
  1 22  1  0  0  0  0
  2 23  1  0  0  0  0
  3 24  1  0  0  0  0
  4 25  1  0  0  0  0
  5 26  1  0  0  0  0
  6 27  1  0  0  0  0
  7 28  1  0  0  0  0
 14 29  1  0  0  0  0
 14 30  1  0  0  0  0
 14 31  1  0  0  0  0
 15 32  1  0  0  0  0
 15 33  1  0  0  0  0
 16 34  1  0  0  0  0
 16 35  1  0  0  0  0
 17 36  1  0  0  0  0
 17 37  1  0  0  0  0
 18 38  1  0  0  0  0
 19 39  1  0  0  0  0
M  END
> <FRED Chemgauss4 score>
-11.526905

$$$$
C40331928	P61226507
  -OEChem-05122015313D

 39 40  0     1  0  0  0  0  0999 V2000
  118.4724  103.8189  106.4364 C   0  0  0  0  0  0  0  0  0  0  0  0
  119.3851  104.7634  105.9670 C   0  0  0  0  0  0  0  0  0  0  0  0
  116.7446  104.8083  105.0678 C   0  0  0  0  0  0  0  0  0  0  0  0
  117.1521  103.8413  105.9868 C   0  0  0  0  0  0  0  0  0  0  0  0
  118.9777  105.7304  105.0479 C   0  0  0  0  0  0  0  0  0  0  0  0
  117.6574  105.7528  104.5983 C   0  0  0  0  0  0  0  0  0  0  0  0
  123.5785  106.7115  106.1276 C   0  0  0  0  0  0  0  0  0  0  0  0
  126.4906  105.9089  108.2244 C   0  0  0  0  0  0  0  0  0  0  0  0
  125.8150  104.5463  108.1343 C   0  0  0  0  0  0  0  0  0  0  0  0
  125.8863  106.6640  107.0506 C   0  0  0  0  0  0  0  0  0  0  0  0
  124.3967  104.8963  107.7061 C   0  0  0  0  0  0  0  0  0  0  0  0
  120.5883  107.4900  107.1514 C   0  0  0  0  0  0  0  0  0  0  0  0
  122.2448  106.0094  106.0909 C   0  0  0  0  0  0  0  0  0  0  0  0
  124.5456  106.1138  106.9150 N   0  0  0  0  0  0  0  0  0  0  0  0
  116.2297  102.8861  106.4620 N   0  0  0  0  0  0  0  0  0  0  0  0
  121.2467  107.0143  105.8833 N   0  0  1  0  0  0  0  0  0  0  0  0
  123.7579  107.7445  105.4805 O   0  0  0  0  0  0  0  0  0  0  0  0
  120.9249  106.2743  103.4105 O   0  0  0  0  0  0  0  0  0  0  0  0
  119.4993  108.1537  104.2587 O   0  0  0  0  0  0  0  0  0  0  0  0
  120.1884  106.8983  104.4942 S   0  0  0  0  0  0  0  0  0  0  0  0
  117.0367  107.0404  103.3491 Br  0  0  0  0  0  0  0  0  0  0  0  0
  118.8004  103.0699  107.1525 H   0  0  0  0  0  0  0  0  0  0  0  0
  120.4106  104.7341  106.3258 H   0  0  0  0  0  0  0  0  0  0  0  0
  115.7127  104.8181  104.7228 H   0  0  0  0  0  0  0  0  0  0  0  0
  126.2156  106.3968  109.1673 H   0  0  0  0  0  0  0  0  0  0  0  0
  127.5811  105.8511  108.1724 H   0  0  0  0  0  0  0  0  0  0  0  0
  126.3027  103.9422  107.3597 H   0  0  0  0  0  0  0  0  0  0  0  0
  125.8461  103.9892  109.0745 H   0  0  0  0  0  0  0  0  0  0  0  0
  125.8503  107.7461  107.2074 H   0  0  0  0  0  0  0  0  0  0  0  0
  126.4258  106.4587  106.1194 H   0  0  0  0  0  0  0  0  0  0  0  0
  123.9244  104.1014  107.1226 H   0  0  0  0  0  0  0  0  0  0  0  0
  123.7651  105.1329  108.5691 H   0  0  0  0  0  0  0  0  0  0  0  0
  119.8400  108.2532  106.9227 H   0  0  0  0  0  0  0  0  0  0  0  0
  121.3339  107.9192  107.8263 H   0  0  0  0  0  0  0  0  0  0  0  0
  120.0963  106.6553  107.6579 H   0  0  0  0  0  0  0  0  0  0  0  0
  122.1020  105.5029  107.0409 H   0  0  0  0  0  0  0  0  0  0  0  0
  122.2601  105.2946  105.2734 H   0  0  0  0  0  0  0  0  0  0  0  0
  116.5459  102.1700  107.0842 H   0  0  0  0  0  0  0  0  0  0  0  0
  115.2988  102.8833  106.0968 H   0  0  0  0  0  0  0  0  0  0  0  0
  1  2  2  0  0  0  0
  1  4  1  0  0  0  0
  2  5  1  0  0  0  0
  3  4  2  0  0  0  0
  3  6  1  0  0  0  0
  4 15  1  0  0  0  0
  5  6  2  0  0  0  0
  5 20  1  0  0  0  0
  6 21  1  0  0  0  0
  7 13  1  0  0  0  0
  7 14  1  0  0  0  0
  7 17  2  0  0  0  0
  8  9  1  0  0  0  0
  8 10  1  0  0  0  0
  9 11  1  0  0  0  0
 10 14  1  0  0  0  0
 11 14  1  0  0  0  0
 12 16  1  0  0  0  0
 13 16  1  0  0  0  0
 16 20  1  0  0  0  0
 18 20  2  0  0  0  0
 19 20  2  0  0  0  0
  1 22  1  0  0  0  0
  2 23  1  0  0  0  0
  3 24  1  0  0  0  0
  8 25  1  0  0  0  0
  8 26  1  0  0  0  0
  9 27  1  0  0  0  0
  9 28  1  0  0  0  0
 10 29  1  0  0  0  0
 10 30  1  0  0  0  0
 11 31  1  0  0  0  0
 11 32  1  0  0  0  0
 12 33  1  0  0  0  0
 12 34  1  0  0  0  0
 12 35  1  0  0  0  0
 13 36  1  0  0  0  0
 13 37  1  0  0  0  0
 15 38  1  0  0  0  0
 15 39  1  0  0  0  0
M  END
> <FRED Chemgauss4 score>
-11.518907

$$$$
C03198473	P07484505
  -OEChem-05122015313D

 46 50  0     0  0  0  0  0  0999 V2000
  117.6862  104.4541  103.8925 C   0  0  0  0  0  0  0  0  0  0  0  0
  118.6177  110.6561  107.6624 C   0  0  0  0  0  0  0  0  0  0  0  0
  118.5830  103.8065  104.7362 C   0  0  0  0  0  0  0  0  0  0  0  0
  119.5143  110.0084  108.5063 C   0  0  0  0  0  0  0  0  0  0  0  0
  117.3905  105.8027  104.0920 C   0  0  0  0  0  0  0  0  0  0  0  0
  118.0144  109.9566  106.6170 C   0  0  0  0  0  0  0  0  0  0  0  0
  119.1863  104.5059  105.7816 C   0  0  0  0  0  0  0  0  0  0  0  0
  119.8100  108.6598  108.3068 C   0  0  0  0  0  0  0  0  0  0  0  0
  117.7020  107.8800  105.3541 C   0  0  0  0  0  0  0  0  0  0  0  0
  117.9893  106.5216  105.1399 C   0  0  0  0  0  0  0  0  0  0  0  0
  118.3011  108.5982  106.4023 C   0  0  0  0  0  0  0  0  0  0  0  0
  118.8995  105.8643  105.9964 C   0  0  0  0  0  0  0  0  0  0  0  0
  119.2113  107.9409  107.2588 C   0  0  0  0  0  0  0  0  0  0  0  0
  119.4986  106.5825  107.0447 C   0  0  0  0  0  0  0  0  0  0  0  0
  121.7621  105.8711  107.7202 C   0  0  0  0  0  0  0  0  0  0  0  0
  122.4084  106.5294  106.5572 C   0  0  0  0  0  0  0  0  0  0  0  0
  123.8317  105.5047  107.8893 C   0  0  0  0  0  0  0  0  0  0  0  0
  120.4462  105.8979  107.9363 C   0  0  0  0  0  0  0  0  0  0  0  0
  125.1642  105.0389  108.3912 C   0  0  0  0  0  0  0  0  0  0  0  0
  126.0598  106.2188  108.7586 C   0  0  0  0  0  0  0  0  0  0  0  0
  126.7432  106.8724  107.5558 C   0  0  0  0  0  0  0  0  0  0  0  0
  125.7995  107.5808  106.5812 C   0  0  0  0  0  0  0  0  0  0  0  0
  124.8225  106.6415  105.8794 C   0  0  0  0  0  0  0  0  0  0  0  0
  122.7114  105.2577  108.5008 N   0  0  0  0  0  0  0  0  0  0  0  0
  123.7329  106.2354  106.7552 N   0  0  0  0  0  0  0  0  0  0  0  0
  121.8551  107.1591  105.6762 O   0  0  0  0  0  0  0  0  0  0  0  0
  117.2161  103.9102  103.0783 H   0  0  0  0  0  0  0  0  0  0  0  0
  118.3872  111.7061  107.8169 H   0  0  0  0  0  0  0  0  0  0  0  0
  118.8135  102.7565  104.5810 H   0  0  0  0  0  0  0  0  0  0  0  0
  119.9842  110.5528  109.3202 H   0  0  0  0  0  0  0  0  0  0  0  0
  116.6862  106.2890  103.4201 H   0  0  0  0  0  0  0  0  0  0  0  0
  117.3162  110.4833  105.9697 H   0  0  0  0  0  0  0  0  0  0  0  0
  119.8792  103.9534  106.4117 H   0  0  0  0  0  0  0  0  0  0  0  0
  120.5167  108.2009  108.9939 H   0  0  0  0  0  0  0  0  0  0  0  0
  116.9994  108.3873  104.6928 H   0  0  0  0  0  0  0  0  0  0  0  0
  120.0274  105.4327  108.8049 H   0  0  0  0  0  0  0  0  0  0  0  0
  124.9952  104.4222  109.2816 H   0  0  0  0  0  0  0  0  0  0  0  0
  125.6384  104.4049  107.6345 H   0  0  0  0  0  0  0  0  0  0  0  0
  125.4922  106.9740  109.3162 H   0  0  0  0  0  0  0  0  0  0  0  0
  126.8464  105.8530  109.4301 H   0  0  0  0  0  0  0  0  0  0  0  0
  127.4597  107.6132  107.9325 H   0  0  0  0  0  0  0  0  0  0  0  0
  127.3330  106.1216  107.0155 H   0  0  0  0  0  0  0  0  0  0  0  0
  125.2549  108.3772  107.1031 H   0  0  0  0  0  0  0  0  0  0  0  0
  126.4169  108.0667  105.8157 H   0  0  0  0  0  0  0  0  0  0  0  0
  124.3943  107.1460  105.0064 H   0  0  0  0  0  0  0  0  0  0  0  0
  125.3377  105.7394  105.5314 H   0  0  0  0  0  0  0  0  0  0  0  0
  1  3  1  0  0  0  0
  1  5  2  0  0  0  0
  2  4  1  0  0  0  0
  2  6  2  0  0  0  0
  3  7  2  0  0  0  0
  4  8  2  0  0  0  0
  5 10  1  0  0  0  0
  6 11  1  0  0  0  0
  7 12  1  0  0  0  0
  8 13  1  0  0  0  0
  9 10  2  0  0  0  0
  9 11  1  0  0  0  0
 10 12  1  0  0  0  0
 11 13  2  0  0  0  0
 12 14  2  0  0  0  0
 13 14  1  0  0  0  0
 14 18  1  0  0  0  0
 15 16  1  0  0  0  0
 15 18  2  0  0  0  0
 15 24  1  0  0  0  0
 16 25  1  0  0  0  0
 16 26  2  0  0  0  0
 17 19  1  0  0  0  0
 17 24  2  0  0  0  0
 17 25  1  0  0  0  0
 19 20  1  0  0  0  0
 20 21  1  0  0  0  0
 21 22  1  0  0  0  0
 22 23  1  0  0  0  0
 23 25  1  0  0  0  0
  1 27  1  0  0  0  0
  2 28  1  0  0  0  0
  3 29  1  0  0  0  0
  4 30  1  0  0  0  0
  5 31  1  0  0  0  0
  6 32  1  0  0  0  0
  7 33  1  0  0  0  0
  8 34  1  0  0  0  0
  9 35  1  0  0  0  0
 18 36  1  0  0  0  0
 19 37  1  0  0  0  0
 19 38  1  0  0  0  0
 20 39  1  0  0  0  0
 20 40  1  0  0  0  0
 21 41  1  0  0  0  0
 21 42  1  0  0  0  0
 22 43  1  0  0  0  0
 22 44  1  0  0  0  0
 23 45  1  0  0  0  0
 23 46  1  0  0  0  0
M  END
> <FRED Chemgauss4 score>
-11.512215

$$$$
C92799609	P145297781
  -OEChem-05122015313D

 38 40  0     1  0  0  0  0  0999 V2000
  117.0724  106.4874  103.9206 C   0  0  0  0  0  0  0  0  0  0  0  0
  127.4597  107.0815  107.5445 C   0  0  0  0  0  0  0  0  0  0  0  0
  125.4419  107.1643  106.9082 C   0  0  0  0  0  0  0  0  0  0  0  0
  125.4263  107.5220  108.2340 C   0  0  0  0  0  0  0  0  0  0  0  0
  117.9930  105.5723  104.3867 C   0  0  0  0  0  0  0  0  0  0  0  0
  118.6495  107.3177  105.5411 C   0  0  0  0  0  0  0  0  0  0  0  0
  124.2066  107.1224  106.0930 C   0  0  0  0  0  0  0  0  0  0  0  0
  124.2222  107.8626  109.0206 C   0  0  0  0  0  0  0  0  0  0  0  0
  122.9597  107.1471  107.0278 C   0  0  2  0  0  0  0  0  0  0  0  0
  118.0841  104.1565  103.9783 C   0  0  0  0  0  0  0  0  0  0  0  0
  118.5587  108.7703  107.6100 C   0  0  0  0  0  0  0  0  0  0  0  0
  121.6980  107.4454  106.2211 C   0  0  0  0  0  0  0  0  0  0  0  0
  119.4324  108.1864  106.5018 C   0  0  1  0  0  0  0  0  0  0  0  0
  126.7088  106.8946  106.4763 N   0  0  0  0  0  0  0  0  0  0  0  0
  118.8984  106.0467  105.3156 N   0  0  0  0  0  0  0  0  0  0  0  0
  126.7241  107.4628  108.6402 N   0  0  0  0  0  0  0  0  0  0  0  0
  123.0847  108.1521  108.1163 N   0  0  0  0  0  0  0  0  0  0  0  0
  120.5656  107.4562  107.0845 N   0  0  0  0  0  0  0  0  0  0  0  0
  117.3406  108.0062  104.6705 S   0  0  0  0  0  0  0  0  0  0  0  0
  116.2795  106.3444  103.2000 H   0  0  0  0  0  0  0  0  0  0  0  0
  128.5323  106.9594  107.5949 H   0  0  0  0  0  0  0  0  0  0  0  0
  124.1983  107.9907  105.4227 H   0  0  0  0  0  0  0  0  0  0  0  0
  124.1899  106.2193  105.4727 H   0  0  0  0  0  0  0  0  0  0  0  0
  123.9615  107.0268  109.6801 H   0  0  0  0  0  0  0  0  0  0  0  0
  124.4062  108.7418  109.6466 H   0  0  0  0  0  0  0  0  0  0  0  0
  122.8398  106.1570  107.4888 H   0  0  0  0  0  0  0  0  0  0  0  0
  118.7516  104.0361  103.1095 H   0  0  0  0  0  0  0  0  0  0  0  0
  118.4706  103.5162  104.7894 H   0  0  0  0  0  0  0  0  0  0  0  0
  117.0993  103.7409  103.7048 H   0  0  0  0  0  0  0  0  0  0  0  0
  118.0860  107.9768  108.1992 H   0  0  0  0  0  0  0  0  0  0  0  0
  119.1599  109.3850  108.2893 H   0  0  0  0  0  0  0  0  0  0  0  0
  117.7658  109.4130  107.2113 H   0  0  0  0  0  0  0  0  0  0  0  0
  121.5730  106.6726  105.4745 H   0  0  0  0  0  0  0  0  0  0  0  0
  121.8014  108.4149  105.7530 H   0  0  0  0  0  0  0  0  0  0  0  0
  119.8764  109.0236  105.9493 H   0  0  0  0  0  0  0  0  0  0  0  0
  127.0824  107.6584  109.5657 H   0  0  0  0  0  0  0  0  0  0  0  0
  122.2241  108.1796  108.6624 H   0  0  0  0  0  0  0  0  0  0  0  0
  120.2485  106.4967  107.2877 H   0  0  0  0  0  0  0  0  0  0  0  0
  1  5  2  0  0  0  0
  1 19  1  0  0  0  0
  2 14  2  0  0  0  0
  2 16  1  0  0  0  0
  3  4  2  0  0  0  0
  3  7  1  0  0  0  0
  3 14  1  0  0  0  0
  4  8  1  0  0  0  0
  4 16  1  0  0  0  0
  5 10  1  0  0  0  0
  5 15  1  0  0  0  0
  6 13  1  0  0  0  0
  6 15  2  0  0  0  0
  6 19  1  0  0  0  0
  7  9  1  0  0  0  0
  8 17  1  0  0  0  0
  9 12  1  0  0  0  0
  9 17  1  0  0  0  0
 11 13  1  0  0  0  0
 12 18  1  0  0  0  0
 13 18  1  0  0  0  0
  1 20  1  0  0  0  0
  2 21  1  0  0  0  0
  7 22  1  0  0  0  0
  7 23  1  0  0  0  0
  8 24  1  0  0  0  0
  8 25  1  0  0  0  0
  9 26  1  0  0  0  0
 10 27  1  0  0  0  0
 10 28  1  0  0  0  0
 10 29  1  0  0  0  0
 11 30  1  0  0  0  0
 11 31  1  0  0  0  0
 11 32  1  0  0  0  0
 12 33  1  0  0  0  0
 12 34  1  0  0  0  0
 13 35  1  0  0  0  0
 16 36  1  0  0  0  0
 17 37  1  0  0  0  0
 18 38  1  0  0  0  0
M  END
> <FRED Chemgauss4 score>
-11.483456

$$$$
C39950027	P97167809
  -OEChem-05122015313D

 46 49  0     1  0  0  0  0  0999 V2000
  125.7570  105.0767  107.7284 C   0  0  0  0  0  0  0  0  0  0  0  0
  125.9208  106.1030  108.5742 C   0  0  0  0  0  0  0  0  0  0  0  0
  124.5698  104.9124  106.9174 C   0  0  0  0  0  0  0  0  0  0  0  0
  119.0315  103.8638  105.9163 C   0  0  0  0  0  0  0  0  0  0  0  0
  118.7360  105.2274  106.3385 C   0  0  0  0  0  0  0  0  0  0  0  0
  116.2427  105.7501  103.7745 C   0  0  0  0  0  0  0  0  0  0  0  0
  118.7608  103.4501  104.6641 C   0  0  0  0  0  0  0  0  0  0  0  0
  123.4682  105.6459  107.1376 C   0  0  0  0  0  0  0  0  0  0  0  0
  116.1799  104.6413  102.8196 C   0  0  0  0  0  0  0  0  0  0  0  0
  117.9435  106.0257  105.5978 C   0  0  0  0  0  0  0  0  0  0  0  0
  117.4207  105.5225  104.3518 C   0  0  0  0  0  0  0  0  0  0  0  0
  124.8059  107.0676  108.6700 C   0  0  0  0  0  0  0  0  0  0  0  0
  117.6246  107.3708  106.1105 C   0  0  0  0  0  0  0  0  0  0  0  0
  121.3838  108.1045  108.1285 C   0  0  0  0  0  0  0  0  0  0  0  0
  123.6007  108.9029  108.9134 C   0  0  0  0  0  0  0  0  0  0  0  0
  118.1708  104.4121  103.6704 C   0  0  2  0  0  0  0  0  0  0  0  0
  123.4142  106.6451  108.2493 C   0  0  1  0  0  0  0  0  0  0  0  0
  122.8606  108.0170  107.9122 C   0  0  1  0  0  0  0  0  0  0  0  0
  118.6899  109.5045  106.7945 C   0  0  0  0  0  0  0  0  0  0  0  0
  119.4576  109.6765  108.0945 C   0  0  0  0  0  0  0  0  0  0  0  0
  117.1761  103.8060  102.7596 N   0  0  0  0  0  0  0  0  0  0  0  0
  124.9337  108.2873  109.0929 N   0  0  0  0  0  0  0  0  0  0  0  0
  118.7497  108.1540  106.3035 N   0  0  0  0  0  0  0  0  0  0  0  0
  120.8614  109.3697  107.9389 N   0  0  0  0  0  0  0  0  0  0  0  0
  116.4623  107.6997  106.3210 O   0  0  0  0  0  0  0  0  0  0  0  0
  120.7587  107.0987  108.4435 O   0  0  0  0  0  0  0  0  0  0  0  0
  126.5515  104.3496  107.5953 H   0  0  0  0  0  0  0  0  0  0  0  0
  126.8316  106.2679  109.1341 H   0  0  0  0  0  0  0  0  0  0  0  0
  124.5940  104.1703  106.1269 H   0  0  0  0  0  0  0  0  0  0  0  0
  119.4878  103.1964  106.6386 H   0  0  0  0  0  0  0  0  0  0  0  0
  119.1483  105.5447  107.2911 H   0  0  0  0  0  0  0  0  0  0  0  0
  115.4367  106.3995  104.0619 H   0  0  0  0  0  0  0  0  0  0  0  0
  119.0135  102.4423  104.3521 H   0  0  0  0  0  0  0  0  0  0  0  0
  122.5832  105.4880  106.5293 H   0  0  0  0  0  0  0  0  0  0  0  0
  115.2612  104.5138  102.2288 H   0  0  0  0  0  0  0  0  0  0  0  0
  123.7104  109.9194  108.5204 H   0  0  0  0  0  0  0  0  0  0  0  0
  123.0931  108.9685  109.8833 H   0  0  0  0  0  0  0  0  0  0  0  0
  118.9871  104.8212  103.0599 H   0  0  0  0  0  0  0  0  0  0  0  0
  122.9018  106.2034  109.1135 H   0  0  0  0  0  0  0  0  0  0  0  0
  123.0933  108.3159  106.8830 H   0  0  0  0  0  0  0  0  0  0  0  0
  119.0846  110.1561  106.0084 H   0  0  0  0  0  0  0  0  0  0  0  0
  117.6330  109.7440  106.9476 H   0  0  0  0  0  0  0  0  0  0  0  0
  119.3916  110.7130  108.4392 H   0  0  0  0  0  0  0  0  0  0  0  0
  119.0632  109.0237  108.8798 H   0  0  0  0  0  0  0  0  0  0  0  0
  119.6625  107.7552  106.0876 H   0  0  0  0  0  0  0  0  0  0  0  0
  121.4942  110.1198  107.6777 H   0  0  0  0  0  0  0  0  0  0  0  0
  1  2  2  0  0  0  0
  1  3  1  0  0  0  0
  2 12  1  0  0  0  0
  3  8  2  0  0  0  0
  4  5  1  0  0  0  0
  4  7  2  0  0  0  0
  5 10  2  0  0  0  0
  6  9  1  0  0  0  0
  6 11  2  0  0  0  0
  7 16  1  0  0  0  0
  8 17  1  0  0  0  0
  9 21  2  0  0  0  0
 10 11  1  0  0  0  0
 10 13  1  0  0  0  0
 11 16  1  0  0  0  0
 12 17  1  0  0  0  0
 12 22  2  0  0  0  0
 13 23  1  0  0  0  0
 13 25  2  0  0  0  0
 14 18  1  0  0  0  0
 14 24  1  0  0  0  0
 14 26  2  0  0  0  0
 15 18  1  0  0  0  0
 15 22  1  0  0  0  0
 16 21  1  0  0  0  0
 17 18  1  0  0  0  0
 19 20  1  0  0  0  0
 19 23  1  0  0  0  0
 20 24  1  0  0  0  0
  1 27  1  0  0  0  0
  2 28  1  0  0  0  0
  3 29  1  0  0  0  0
  4 30  1  0  0  0  0
  5 31  1  0  0  0  0
  6 32  1  0  0  0  0
  7 33  1  0  0  0  0
  8 34  1  0  0  0  0
  9 35  1  0  0  0  0
 15 36  1  0  0  0  0
 15 37  1  0  0  0  0
 16 38  1  0  0  0  0
 17 39  1  0  0  0  0
 18 40  1  0  0  0  0
 19 41  1  0  0  0  0
 19 42  1  0  0  0  0
 20 43  1  0  0  0  0
 20 44  1  0  0  0  0
 23 45  1  0  0  0  0
 24 46  1  0  0  0  0
M  END
> <FRED Chemgauss4 score>
-11.439088

$$$$
C95046220	P149005380
  -OEChem-05122015313D

 43 44  0     0  0  0  0  0  0999 V2000
  123.1707  106.9008  106.0208 C   0  0  0  0  0  0  0  0  0  0  0  0
  124.5598  107.5851  107.4698 C   0  0  0  0  0  0  0  0  0  0  0  0
  122.1217  106.1022  105.3360 C   0  0  0  0  0  0  0  0  0  0  0  0
  116.7714  105.9131  104.6991 C   0  0  0  0  0  0  0  0  0  0  0  0
  117.8346  108.0106  105.6260 C   0  0  0  0  0  0  0  0  0  0  0  0
  116.9697  106.4506  103.2874 C   0  0  0  0  0  0  0  0  0  0  0  0
  118.0256  108.5270  104.2057 C   0  0  0  0  0  0  0  0  0  0  0  0
  117.7961  106.4818  105.6820 C   0  0  0  0  0  0  0  0  0  0  0  0
  126.2752  106.4721  108.9437 C   0  0  0  0  0  0  0  0  0  0  0  0
  124.4960  107.9370  109.9651 C   0  0  0  0  0  0  0  0  0  0  0  0
  120.6284  104.1276  105.5011 C   0  0  0  0  0  0  0  0  0  0  0  0
  119.2469  104.6389  105.8664 C   0  0  0  0  0  0  0  0  0  0  0  0
  125.3517  107.6943  108.6929 C   0  0  0  0  0  0  0  0  0  0  0  0
  124.6589  108.4327  106.4270 N   0  5  0  0  0  0  0  0  0  0  0  0
  123.6477  106.6303  107.2432 N   0  0  0  0  0  0  0  0  0  0  0  0
  123.7593  107.9903  105.4895 N   0  0  0  0  0  0  0  0  0  0  0  0
  121.6573  105.0368  106.0558 N   0  0  0  0  0  0  0  0  0  0  0  0
  116.9698  107.9436  103.3253 N   0  3  0  0  0  0  0  0  0  0  0  0
  121.7666  106.4226  104.2047 O   0  0  0  0  0  0  0  0  0  0  0  0
  119.0810  105.9547  105.3575 O   0  0  0  0  0  0  0  0  0  0  0  0
  115.7560  106.1432  105.0482 H   0  0  0  0  0  0  0  0  0  0  0  0
  116.8360  104.8153  104.6932 H   0  0  0  0  0  0  0  0  0  0  0  0
  118.6431  108.3822  106.2718 H   0  0  0  0  0  0  0  0  0  0  0  0
  116.9095  108.4212  106.0513 H   0  0  0  0  0  0  0  0  0  0  0  0
  117.9325  106.1400  102.8722 H   0  0  0  0  0  0  0  0  0  0  0  0
  116.1654  106.1401  102.6128 H   0  0  0  0  0  0  0  0  0  0  0  0
  117.9348  109.6162  104.1486 H   0  0  0  0  0  0  0  0  0  0  0  0
  118.9915  108.2209  103.7947 H   0  0  0  0  0  0  0  0  0  0  0  0
  117.5484  106.1519  106.6985 H   0  0  0  0  0  0  0  0  0  0  0  0
  125.6954  105.5447  109.0054 H   0  0  0  0  0  0  0  0  0  0  0  0
  126.8516  106.5657  109.8705 H   0  0  0  0  0  0  0  0  0  0  0  0
  126.9857  106.3670  108.1161 H   0  0  0  0  0  0  0  0  0  0  0  0
  123.7769  107.1199  110.0910 H   0  0  0  0  0  0  0  0  0  0  0  0
  123.9324  108.8752  109.9180 H   0  0  0  0  0  0  0  0  0  0  0  0
  125.1232  107.9712  110.8626 H   0  0  0  0  0  0  0  0  0  0  0  0
  120.8011  103.1259  105.9072 H   0  0  0  0  0  0  0  0  0  0  0  0
  120.7488  104.0991  104.4139 H   0  0  0  0  0  0  0  0  0  0  0  0
  119.1387  104.6815  106.9547 H   0  0  0  0  0  0  0  0  0  0  0  0
  118.4592  104.0000  105.4541 H   0  0  0  0  0  0  0  0  0  0  0  0
  126.0463  108.5683  108.6496 H   0  0  0  0  0  0  0  0  0  0  0  0
  122.0200  104.7751  106.9492 H   0  0  0  0  0  0  0  0  0  0  0  0
  117.0802  108.3102  102.3695 H   0  0  0  0  0  0  0  0  0  0  0  0
  116.0477  108.2721  103.6427 H   0  0  0  0  0  0  0  0  0  0  0  0
  1  3  1  0  0  0  0
  1 15  1  0  0  0  0
  1 16  2  0  0  0  0
  2 13  1  0  0  0  0
  2 14  1  0  0  0  0
  2 15  2  0  0  0  0
  3 17  1  0  0  0  0
  3 19  2  0  0  0  0
  4  6  1  0  0  0  0
  4  8  1  0  0  0  0
  5  7  1  0  0  0  0
  5  8  1  0  0  0  0
  6 18  1  0  0  0  0
  7 18  1  0  0  0  0
  8 20  1  0  0  0  0
  9 13  1  0  0  0  0
 10 13  1  0  0  0  0
 11 12  1  0  0  0  0
 11 17  1  0  0  0  0
 12 20  1  0  0  0  0
 14 16  1  0  0  0  0
  4 21  1  0  0  0  0
  4 22  1  0  0  0  0
  5 23  1  0  0  0  0
  5 24  1  0  0  0  0
  6 25  1  0  0  0  0
  6 26  1  0  0  0  0
  7 27  1  0  0  0  0
  7 28  1  0  0  0  0
  8 29  1  0  0  0  0
  9 30  1  0  0  0  0
  9 31  1  0  0  0  0
  9 32  1  0  0  0  0
 10 33  1  0  0  0  0
 10 34  1  0  0  0  0
 10 35  1  0  0  0  0
 11 36  1  0  0  0  0
 11 37  1  0  0  0  0
 12 38  1  0  0  0  0
 12 39  1  0  0  0  0
 13 40  1  0  0  0  0
 17 41  1  0  0  0  0
 18 42  1  0  0  0  0
 18 43  1  0  0  0  0
M  CHG  2  14  -1  18   1
M  END
> <FRED Chemgauss4 score>
-11.412934

$$$$
C90931135	P142254808
  -OEChem-05122015313D

 34 35  0     0  0  0  0  0  0999 V2000
  117.7154  105.9562  105.9534 C   0  0  0  0  0  0  0  0  0  0  0  0
  117.1962  103.5977  105.8833 C   0  0  0  0  0  0  0  0  0  0  0  0
  116.3532  106.2553  105.9768 C   0  0  0  0  0  0  0  0  0  0  0  0
  115.8340  103.8968  105.9068 C   0  0  0  0  0  0  0  0  0  0  0  0
  122.5599  104.6425  106.3634 C   0  0  0  0  0  0  0  0  0  0  0  0
  118.1369  104.6273  105.9066 C   0  0  0  0  0  0  0  0  0  0  0  0
  115.4125  105.2257  105.9536 C   0  0  0  0  0  0  0  0  0  0  0  0
  122.2606  105.6057  105.4227 C   0  0  0  0  0  0  0  0  0  0  0  0
  123.7618  106.7199  106.5695 C   0  0  0  0  0  0  0  0  0  0  0  0
  121.2768  105.4190  104.3445 C   0  0  0  0  0  0  0  0  0  0  0  0
  119.5986  103.8481  103.4557 C   0  0  0  0  0  0  0  0  0  0  0  0
  119.5932  104.3073  105.8822 C   0  0  0  0  0  0  0  0  0  0  0  0
  124.6648  107.8067  107.0068 C   0  0  0  0  0  0  0  0  0  0  0  0
  122.9485  106.7978  105.5396 N   0  0  0  0  0  0  0  0  0  0  0  0
  125.8237  107.9489  106.1544 N   0  0  0  0  0  0  0  0  0  0  0  0
  120.1878  104.5580  104.5938 N   0  0  0  0  0  0  0  0  0  0  0  0
  121.4821  106.0456  103.3057 O   0  0  0  0  0  0  0  0  0  0  0  0
  114.0834  105.5178  105.9777 O   0  0  0  0  0  0  0  0  0  0  0  0
  123.7510  105.2421  107.4418 S   0  0  0  0  0  0  0  0  0  0  0  0
  118.4412  106.7647  105.9718 H   0  0  0  0  0  0  0  0  0  0  0  0
  117.5155  102.5593  105.8468 H   0  0  0  0  0  0  0  0  0  0  0  0
  116.0310  107.2926  106.0136 H   0  0  0  0  0  0  0  0  0  0  0  0
  115.1063  103.0904  105.8888 H   0  0  0  0  0  0  0  0  0  0  0  0
  122.1532  103.6466  106.4692 H   0  0  0  0  0  0  0  0  0  0  0  0
  120.0981  102.8863  103.3133 H   0  0  0  0  0  0  0  0  0  0  0  0
  119.7083  104.4402  102.5430 H   0  0  0  0  0  0  0  0  0  0  0  0
  118.5344  103.6694  103.6316 H   0  0  0  0  0  0  0  0  0  0  0  0
  120.1430  104.9066  106.6214 H   0  0  0  0  0  0  0  0  0  0  0  0
  119.7783  103.2526  106.1284 H   0  0  0  0  0  0  0  0  0  0  0  0
  124.1525  108.7841  107.0171 H   0  0  0  0  0  0  0  0  0  0  0  0
  125.0412  107.6469  108.0314 H   0  0  0  0  0  0  0  0  0  0  0  0
  126.6644  108.3378  106.5418 H   0  0  0  0  0  0  0  0  0  0  0  0
  125.7089  107.8515  105.1618 H   0  0  0  0  0  0  0  0  0  0  0  0
  113.5591  104.7013  105.9568 H   0  0  0  0  0  0  0  0  0  0  0  0
  1  3  2  0  0  0  0
  1  6  1  0  0  0  0
  2  4  1  0  0  0  0
  2  6  2  0  0  0  0
  3  7  1  0  0  0  0
  4  7  2  0  0  0  0
  5  8  2  0  0  0  0
  5 19  1  0  0  0  0
  6 12  1  0  0  0  0
  7 18  1  0  0  0  0
  8 10  1  0  0  0  0
  8 14  1  0  0  0  0
  9 13  1  0  0  0  0
  9 14  2  0  0  0  0
  9 19  1  0  0  0  0
 10 16  1  0  0  0  0
 10 17  2  0  0  0  0
 11 16  1  0  0  0  0
 12 16  1  0  0  0  0
 13 15  1  0  0  0  0
  1 20  1  0  0  0  0
  2 21  1  0  0  0  0
  3 22  1  0  0  0  0
  4 23  1  0  0  0  0
  5 24  1  0  0  0  0
 11 25  1  0  0  0  0
 11 26  1  0  0  0  0
 11 27  1  0  0  0  0
 12 28  1  0  0  0  0
 12 29  1  0  0  0  0
 13 30  1  0  0  0  0
 13 31  1  0  0  0  0
 15 32  1  0  0  0  0
 15 33  1  0  0  0  0
 18 34  1  0  0  0  0
M  END
> <FRED Chemgauss4 score>
-11.392807

$$$$
C85962559	P134593572
  -OEChem-05122015313D

 39 40  0     1  0  0  0  0  0999 V2000
  126.0287  106.4408  107.2037 C   0  0  0  0  0  0  0  0  0  0  0  0
  124.5378  108.3162  107.5149 C   0  0  0  0  0  0  0  0  0  0  0  0
  125.7748  107.8095  107.1165 C   0  0  0  0  0  0  0  0  0  0  0  0
  123.8084  106.0852  108.0876 C   0  0  0  0  0  0  0  0  0  0  0  0
  125.0454  105.5786  107.6892 C   0  0  0  0  0  0  0  0  0  0  0  0
  123.5546  107.4540  108.0005 C   0  0  0  0  0  0  0  0  0  0  0  0
  118.1512  103.5436  106.3747 C   0  0  0  0  0  0  0  0  0  0  0  0
  117.7055  103.9987  104.9891 C   0  0  0  0  0  0  0  0  0  0  0  0
  119.5109  104.1284  106.7485 C   0  0  0  0  0  0  0  0  0  0  0  0
  118.7570  103.6792  103.9339 C   0  0  0  0  0  0  0  0  0  0  0  0
  120.5794  103.8080  105.6941 C   0  0  1  0  0  0  0  0  0  0  0  0
  120.1240  104.2617  104.2965 C   0  0  1  0  0  0  0  0  0  0  0  0
  121.9159  104.4473  106.0807 C   0  0  0  0  0  0  0  0  0  0  0  0
  126.7689  108.6814  106.6256 N   0  0  0  0  0  0  0  0  0  0  0  0
  122.3373  103.9469  107.3442 N   0  0  0  0  0  0  0  0  0  0  0  0
  123.1400  104.2189  109.7847 O   0  0  0  0  0  0  0  0  0  0  0  0
  121.3739  105.7923  108.9305 O   0  0  0  0  0  0  0  0  0  0  0  0
  121.0783  103.8357  103.3273 O   0  0  0  0  0  0  0  0  0  0  0  0
  122.5622  104.9926  108.7024 S   0  0  0  0  0  0  0  0  0  0  0  0
  125.4209  103.8934  107.7728 Cl  0  0  0  0  0  0  0  0  0  0  0  0
  122.0428  108.1427  108.4782 Cl  0  0  0  0  0  0  0  0  0  0  0  0
  126.9958  106.0522  106.8911 H   0  0  0  0  0  0  0  0  0  0  0  0
  124.3462  109.3850  107.4443 H   0  0  0  0  0  0  0  0  0  0  0  0
  117.4044  103.8433  107.1187 H   0  0  0  0  0  0  0  0  0  0  0  0
  118.2058  102.4483  106.4000 H   0  0  0  0  0  0  0  0  0  0  0  0
  116.7595  103.5116  104.7273 H   0  0  0  0  0  0  0  0  0  0  0  0
  117.5161  105.0790  105.0017 H   0  0  0  0  0  0  0  0  0  0  0  0
  119.4156  105.2160  106.8630 H   0  0  0  0  0  0  0  0  0  0  0  0
  119.8165  103.7317  107.7241 H   0  0  0  0  0  0  0  0  0  0  0  0
  118.8405  102.5915  103.8091 H   0  0  0  0  0  0  0  0  0  0  0  0
  118.4380  104.0642  102.9577 H   0  0  0  0  0  0  0  0  0  0  0  0
  120.7401  102.7222  105.6707 H   0  0  0  0  0  0  0  0  0  0  0  0
  120.0737  105.3577  104.2573 H   0  0  0  0  0  0  0  0  0  0  0  0
  121.7789  105.5174  106.1430 H   0  0  0  0  0  0  0  0  0  0  0  0
  122.6510  104.1971  105.3297 H   0  0  0  0  0  0  0  0  0  0  0  0
  127.6673  108.3123  106.3878 H   0  0  0  0  0  0  0  0  0  0  0  0
  126.5913  109.6653  106.6124 H   0  0  0  0  0  0  0  0  0  0  0  0
  122.1313  102.9452  107.5767 H   0  0  0  0  0  0  0  0  0  0  0  0
  120.7705  104.1707  102.4708 H   0  0  0  0  0  0  0  0  0  0  0  0
  1  3  1  0  0  0  0
  1  5  2  0  0  0  0
  2  3  2  0  0  0  0
  2  6  1  0  0  0  0
  3 14  1  0  0  0  0
  4  5  1  0  0  0  0
  4  6  2  0  0  0  0
  4 19  1  0  0  0  0
  5 20  1  0  0  0  0
  6 21  1  0  0  0  0
  7  8  1  0  0  0  0
  7  9  1  0  0  0  0
  8 10  1  0  0  0  0
  9 11  1  0  0  0  0
 10 12  1  0  0  0  0
 11 12  1  0  0  0  0
 11 13  1  0  0  0  0
 12 18  1  0  0  0  0
 13 15  1  0  0  0  0
 15 19  1  0  0  0  0
 16 19  2  0  0  0  0
 17 19  2  0  0  0  0
  1 22  1  0  0  0  0
  2 23  1  0  0  0  0
  7 24  1  0  0  0  0
  7 25  1  0  0  0  0
  8 26  1  0  0  0  0
  8 27  1  0  0  0  0
  9 28  1  0  0  0  0
  9 29  1  0  0  0  0
 10 30  1  0  0  0  0
 10 31  1  0  0  0  0
 11 32  1  0  0  0  0
 12 33  1  0  0  0  0
 13 34  1  0  0  0  0
 13 35  1  0  0  0  0
 14 36  1  0  0  0  0
 14 37  1  0  0  0  0
 15 38  1  0  0  0  0
 18 39  1  0  0  0  0
M  END
> <FRED Chemgauss4 score>
-11.390948

$$$$
C80042850	P125038093
  -OEChem-05122015313D

 38 39  0     0  0  0  0  0  0999 V2000
  116.8389  105.0366  104.7014 C   0  0  0  0  0  0  0  0  0  0  0  0
  115.6870  105.2591  104.4438 C   0  0  0  0  0  0  0  0  0  0  0  0
  119.1648  104.7773  103.9921 C   0  0  0  0  0  0  0  0  0  0  0  0
  118.5919  104.5158  106.3246 C   0  0  0  0  0  0  0  0  0  0  0  0
  120.5029  104.5221  104.2921 C   0  0  0  0  0  0  0  0  0  0  0  0
  119.9300  104.2606  106.6246 C   0  0  0  0  0  0  0  0  0  0  0  0
  124.4023  107.6542  107.4298 C   0  0  0  0  0  0  0  0  0  0  0  0
  118.2093  104.7742  105.0083 C   0  0  0  0  0  0  0  0  0  0  0  0
  124.8030  106.3166  107.6087 C   0  0  0  0  0  0  0  0  0  0  0  0
  120.8855  104.2637  105.6083 C   0  0  0  0  0  0  0  0  0  0  0  0
  125.7969  106.3794  108.5545 C   0  0  0  0  0  0  0  0  0  0  0  0
  124.2938  105.0874  106.9477 C   0  0  0  0  0  0  0  0  0  0  0  0
  126.6309  105.3428  109.1870 C   0  0  0  0  0  0  0  0  0  0  0  0
  114.2767  105.5307  104.1277 C   0  0  0  0  0  0  0  0  0  0  0  0
  122.3158  103.9893  105.9288 C   0  0  0  0  0  0  0  0  0  0  0  0
  113.9713  107.0213  104.1809 C   0  0  0  0  0  0  0  0  0  0  0  0
  125.0858  108.5046  108.2003 N   0  0  0  0  0  0  0  0  0  0  0  0
  125.9259  107.6993  108.8726 N   0  0  0  0  0  0  0  0  0  0  0  0
  122.9613  105.1128  106.5594 N   0  0  0  0  0  0  0  0  0  0  0  0
  125.0480  104.1293  106.7998 O   0  0  0  0  0  0  0  0  0  0  0  0
  112.5923  107.2361  103.9068 O   0  0  0  0  0  0  0  0  0  0  0  0
  118.8823  104.9789  102.9615 H   0  0  0  0  0  0  0  0  0  0  0  0
  117.8589  104.5082  107.1278 H   0  0  0  0  0  0  0  0  0  0  0  0
  121.2406  104.5274  103.4940 H   0  0  0  0  0  0  0  0  0  0  0  0
  120.2188  104.0584  107.6527 H   0  0  0  0  0  0  0  0  0  0  0  0
  123.6413  108.0476  106.7707 H   0  0  0  0  0  0  0  0  0  0  0  0
  127.5586  105.1713  108.6148 H   0  0  0  0  0  0  0  0  0  0  0  0
  126.9211  105.6130  110.2179 H   0  0  0  0  0  0  0  0  0  0  0  0
  126.1045  104.3748  109.2653 H   0  0  0  0  0  0  0  0  0  0  0  0
  114.0494  105.1376  103.1301 H   0  0  0  0  0  0  0  0  0  0  0  0
  113.6402  105.0050  104.8481 H   0  0  0  0  0  0  0  0  0  0  0  0
  122.4120  103.1301  106.6074 H   0  0  0  0  0  0  0  0  0  0  0  0
  122.8918  103.7457  105.0254 H   0  0  0  0  0  0  0  0  0  0  0  0
  114.1787  107.4081  105.1837 H   0  0  0  0  0  0  0  0  0  0  0  0
  114.5675  107.5839  103.4544 H   0  0  0  0  0  0  0  0  0  0  0  0
  126.5659  108.1213  109.5340 H   0  0  0  0  0  0  0  0  0  0  0  0
  122.3840  105.9218  106.7735 H   0  0  0  0  0  0  0  0  0  0  0  0
  112.4449  108.1944  103.9513 H   0  0  0  0  0  0  0  0  0  0  0  0
  1  2  3  0  0  0  0
  1  8  1  0  0  0  0
  2 14  1  0  0  0  0
  3  5  2  0  0  0  0
  3  8  1  0  0  0  0
  4  6  1  0  0  0  0
  4  8  2  0  0  0  0
  5 10  1  0  0  0  0
  6 10  2  0  0  0  0
  7  9  1  0  0  0  0
  7 17  2  0  0  0  0
  9 11  2  0  0  0  0
  9 12  1  0  0  0  0
 10 15  1  0  0  0  0
 11 13  1  0  0  0  0
 11 18  1  0  0  0  0
 12 19  1  0  0  0  0
 12 20  2  0  0  0  0
 14 16  1  0  0  0  0
 15 19  1  0  0  0  0
 16 21  1  0  0  0  0
 17 18  1  0  0  0  0
  3 22  1  0  0  0  0
  4 23  1  0  0  0  0
  5 24  1  0  0  0  0
  6 25  1  0  0  0  0
  7 26  1  0  0  0  0
 13 27  1  0  0  0  0
 13 28  1  0  0  0  0
 13 29  1  0  0  0  0
 14 30  1  0  0  0  0
 14 31  1  0  0  0  0
 15 32  1  0  0  0  0
 15 33  1  0  0  0  0
 16 34  1  0  0  0  0
 16 35  1  0  0  0  0
 18 36  1  0  0  0  0
 19 37  1  0  0  0  0
 21 38  1  0  0  0  0
M  END
> <FRED Chemgauss4 score>
-11.376194

$$$$
C00176323	P13238747
  -OEChem-05122015313D

 30 32  0     0  0  0  0  0  0999 V2000
  117.7660  103.3587  105.7639 C   0  0  0  0  0  0  0  0  0  0  0  0
  118.2351  104.4312  106.5223 C   0  0  0  0  0  0  0  0  0  0  0  0
  117.3229  103.5689  104.4580 C   0  0  0  0  0  0  0  0  0  0  0  0
  125.9005  105.0620  108.2216 C   0  0  0  0  0  0  0  0  0  0  0  0
  125.5634  106.2898  108.7911 C   0  0  0  0  0  0  0  0  0  0  0  0
  123.6596  104.8541  107.3431 C   0  0  0  0  0  0  0  0  0  0  0  0
  117.8179  105.9242  104.6692 C   0  0  0  0  0  0  0  0  0  0  0  0
  123.3224  106.0820  107.9126 C   0  0  0  0  0  0  0  0  0  0  0  0
  118.2611  105.7139  105.9750 C   0  0  0  0  0  0  0  0  0  0  0  0
  117.3489  104.8516  103.9107 C   0  0  0  0  0  0  0  0  0  0  0  0
  124.9486  104.3441  107.4975 C   0  0  0  0  0  0  0  0  0  0  0  0
  124.2743  106.7998  108.6367 C   0  0  0  0  0  0  0  0  0  0  0  0
  121.9640  106.5766  107.7240 C   0  0  0  0  0  0  0  0  0  0  0  0
  119.9833  106.9202  107.2377 C   0  0  0  0  0  0  0  0  0  0  0  0
  120.4320  108.0789  108.0376 C   0  0  0  0  0  0  0  0  0  0  0  0
  118.7440  106.8166  106.7555 C   0  0  0  0  0  0  0  0  0  0  0  0
  120.9996  106.0202  107.0838 N   0  0  0  0  0  0  0  0  0  0  0  0
  119.8129  109.0664  108.3769 O   0  0  0  0  0  0  0  0  0  0  0  0
  121.7330  107.7710  108.3110 O   0  0  0  0  0  0  0  0  0  0  0  0
  116.9232  105.0534  102.6569 F   0  0  0  0  0  0  0  0  0  0  0  0
  125.3650  102.8295  106.7955 Cl  0  0  0  0  0  0  0  0  0  0  0  0
  123.8984  108.3244  109.3548 Cl  0  0  0  0  0  0  0  0  0  0  0  0
  117.7455  102.3597  106.1896 H   0  0  0  0  0  0  0  0  0  0  0  0
  118.5766  104.2517  107.5391 H   0  0  0  0  0  0  0  0  0  0  0  0
  116.9584  102.7340  103.8670 H   0  0  0  0  0  0  0  0  0  0  0  0
  126.9090  104.6772  108.3497 H   0  0  0  0  0  0  0  0  0  0  0  0
  126.3168  106.8368  109.3524 H   0  0  0  0  0  0  0  0  0  0  0  0
  122.9163  104.2947  106.7789 H   0  0  0  0  0  0  0  0  0  0  0  0
  117.8319  106.9179  104.2283 H   0  0  0  0  0  0  0  0  0  0  0  0
  118.0570  107.6416  106.9458 H   0  0  0  0  0  0  0  0  0  0  0  0
  1  2  1  0  0  0  0
  1  3  2  0  0  0  0
  2  9  2  0  0  0  0
  3 10  1  0  0  0  0
  4  5  2  0  0  0  0
  4 11  1  0  0  0  0
  5 12  1  0  0  0  0
  6  8  1  0  0  0  0
  6 11  2  0  0  0  0
  7  9  1  0  0  0  0
  7 10  2  0  0  0  0
  8 12  2  0  0  0  0
  8 13  1  0  0  0  0
  9 16  1  0  0  0  0
 10 20  1  0  0  0  0
 11 21  1  0  0  0  0
 12 22  1  0  0  0  0
 13 17  2  0  0  0  0
 13 19  1  0  0  0  0
 14 15  1  0  0  0  0
 14 16  2  0  0  0  0
 14 17  1  0  0  0  0
 15 18  2  0  0  0  0
 15 19  1  0  0  0  0
  1 23  1  0  0  0  0
  2 24  1  0  0  0  0
  3 25  1  0  0  0  0
  4 26  1  0  0  0  0
  5 27  1  0  0  0  0
  6 28  1  0  0  0  0
  7 29  1  0  0  0  0
 16 30  1  0  0  0  0
M  END
> <FRED Chemgauss4 score>
-11.362492

$$$$
C80745907	P126057400
  -OEChem-05122015313D

 49 50  0     1  0  0  0  0  0999 V2000
  126.6541  106.7515  107.6994 C   0  0  0  0  0  0  0  0  0  0  0  0
  125.0425  105.2255  108.8131 C   0  0  0  0  0  0  0  0  0  0  0  0
  124.2314  107.0785  107.2600 C   0  0  0  0  0  0  0  0  0  0  0  0
  124.7877  104.2026  107.7034 C   0  0  0  0  0  0  0  0  0  0  0  0
  123.9849  106.0357  106.1670 C   0  0  0  0  0  0  0  0  0  0  0  0
  118.4256  106.8086  106.3585 C   0  0  0  0  0  0  0  0  0  0  0  0
  118.8034  104.4650  106.0031 C   0  0  0  0  0  0  0  0  0  0  0  0
  119.5861  106.8307  107.3476 C   0  0  0  0  0  0  0  0  0  0  0  0
  125.2608  106.6444  108.2983 C   0  0  0  0  0  0  0  0  0  0  0  0
  123.6899  104.6454  106.7337 C   0  0  0  0  0  0  0  0  0  0  0  0
  119.9566  104.4938  107.0142 C   0  0  1  0  0  0  0  0  0  0  0  0
  117.8111  104.6376  103.3645 C   0  0  0  0  0  0  0  0  0  0  0  0
  117.4412  107.1043  103.7175 C   0  0  0  0  0  0  0  0  0  0  0  0
  121.3361  104.5692  106.3615 C   0  0  0  0  0  0  0  0  0  0  0  0
  117.5521  105.7396  104.3815 C   0  0  0  0  0  0  0  0  0  0  0  0
  118.6511  105.7700  105.3448 N   0  0  1  0  0  0  0  0  0  0  0  0
  127.6299  107.0606  108.6173 N   0  0  0  0  0  0  0  0  0  0  0  0
  122.3891  104.6032  107.3631 N   0  0  0  0  0  0  0  0  0  0  0  0
  126.8678  106.5587  106.5051 O   0  0  0  0  0  0  0  0  0  0  0  0
  119.7655  105.5535  107.9593 O   0  0  0  0  0  0  0  0  0  0  0  0
  124.1832  105.2282  109.4957 H   0  0  0  0  0  0  0  0  0  0  0  0
  125.9048  104.8970  109.4069 H   0  0  0  0  0  0  0  0  0  0  0  0
  124.5393  108.0201  106.7885 H   0  0  0  0  0  0  0  0  0  0  0  0
  123.2828  107.2862  107.7712 H   0  0  0  0  0  0  0  0  0  0  0  0
  125.7169  104.0482  107.1401 H   0  0  0  0  0  0  0  0  0  0  0  0
  124.5380  103.2326  108.1513 H   0  0  0  0  0  0  0  0  0  0  0  0
  123.1617  106.3704  105.5233 H   0  0  0  0  0  0  0  0  0  0  0  0
  124.8691  105.9749  105.5202 H   0  0  0  0  0  0  0  0  0  0  0  0
  117.4959  106.6104  106.9055 H   0  0  0  0  0  0  0  0  0  0  0  0
  118.3341  107.7936  105.8808 H   0  0  0  0  0  0  0  0  0  0  0  0
  118.9883  103.6823  105.2480 H   0  0  0  0  0  0  0  0  0  0  0  0
  117.8719  104.1995  106.5272 H   0  0  0  0  0  0  0  0  0  0  0  0
  120.5174  107.0812  106.8235 H   0  0  0  0  0  0  0  0  0  0  0  0
  119.4386  107.5923  108.1279 H   0  0  0  0  0  0  0  0  0  0  0  0
  125.2497  107.3385  109.1302 H   0  0  0  0  0  0  0  0  0  0  0  0
  123.6763  103.9295  105.8864 H   0  0  0  0  0  0  0  0  0  0  0  0
  119.9393  103.5210  107.6039 H   0  0  0  0  0  0  0  0  0  0  0  0
  118.7315  104.8324  102.8044 H   0  0  0  0  0  0  0  0  0  0  0  0
  117.9074  103.6599  103.8499 H   0  0  0  0  0  0  0  0  0  0  0  0
  116.9858  104.5689  102.6473 H   0  0  0  0  0  0  0  0  0  0  0  0
  118.3557  107.3417  103.1629 H   0  0  0  0  0  0  0  0  0  0  0  0
  117.2841  107.8896  104.4641 H   0  0  0  0  0  0  0  0  0  0  0  0
  116.6077  107.1373  103.0069 H   0  0  0  0  0  0  0  0  0  0  0  0
  121.4239  105.4750  105.7540 H   0  0  0  0  0  0  0  0  0  0  0  0
  121.5115  103.6983  105.7231 H   0  0  0  0  0  0  0  0  0  0  0  0
  116.6281  105.5242  104.9291 H   0  0  0  0  0  0  0  0  0  0  0  0
  127.3625  107.1897  109.5875 H   0  0  0  0  0  0  0  0  0  0  0  0
  128.6070  107.1647  108.3633 H   0  0  0  0  0  0  0  0  0  0  0  0
  122.3338  103.7707  107.9445 H   0  0  0  0  0  0  0  0  0  0  0  0
  1  9  1  0  0  0  0
  1 17  1  0  0  0  0
  1 19  2  0  0  0  0
  2  4  1  0  0  0  0
  2  9  1  0  0  0  0
  3  5  1  0  0  0  0
  3  9  1  0  0  0  0
  4 10  1  0  0  0  0
  5 10  1  0  0  0  0
  6  8  1  0  0  0  0
  6 16  1  0  0  0  0
  7 11  1  0  0  0  0
  7 16  1  0  0  0  0
  8 20  1  0  0  0  0
 10 18  1  0  0  0  0
 11 14  1  0  0  0  0
 11 20  1  0  0  0  0
 12 15  1  0  0  0  0
 13 15  1  0  0  0  0
 14 18  1  0  0  0  0
 15 16  1  0  0  0  0
  2 21  1  0  0  0  0
  2 22  1  0  0  0  0
  3 23  1  0  0  0  0
  3 24  1  0  0  0  0
  4 25  1  0  0  0  0
  4 26  1  0  0  0  0
  5 27  1  0  0  0  0
  5 28  1  0  0  0  0
  6 29  1  0  0  0  0
  6 30  1  0  0  0  0
  7 31  1  0  0  0  0
  7 32  1  0  0  0  0
  8 33  1  0  0  0  0
  8 34  1  0  0  0  0
  9 35  1  0  0  0  0
 10 36  1  0  0  0  0
 11 37  1  0  0  0  0
 12 38  1  0  0  0  0
 12 39  1  0  0  0  0
 12 40  1  0  0  0  0
 13 41  1  0  0  0  0
 13 42  1  0  0  0  0
 13 43  1  0  0  0  0
 14 44  1  0  0  0  0
 14 45  1  0  0  0  0
 15 46  1  0  0  0  0
 17 47  1  0  0  0  0
 17 48  1  0  0  0  0
 18 49  1  0  0  0  0
M  END
> <FRED Chemgauss4 score>
-11.352375

$$$$
C84081042	P131595110
  -OEChem-05122015313D

 33 33  0     1  0  0  0  0  0999 V2000
  123.2605  109.2107  111.7937 C   0  0  0  0  0  0  0  0  0  0  0  0
  123.9744  111.1976  112.0636 C   0  0  0  0  0  0  0  0  0  0  0  0
  123.6828  109.6213  110.5513 C   0  0  0  0  0  0  0  0  0  0  0  0
  126.6809  106.2681  108.5413 C   0  0  0  0  0  0  0  0  0  0  0  0
  123.7029  108.9388  109.2067 C   0  0  0  0  0  0  0  0  0  0  0  0
  124.1560  104.5139  107.1150 C   0  0  0  0  0  0  0  0  0  0  0  0
  125.2395  105.5024  106.6920 C   0  0  0  0  0  0  0  0  0  0  0  0
  122.8151  105.1950  107.3583 C   0  0  0  0  0  0  0  0  0  0  0  0
  123.4444  110.1965  112.7306 N   0  0  0  0  0  0  0  0  0  0  0  0
  125.0678  108.9210  108.6996 N   0  5  0  0  0  0  0  0  0  0  0  0
  124.1371  110.8962  110.7400 N   0  0  0  0  0  0  0  0  0  0  0  0
  125.4555  106.5363  107.7405 N   0  0  2  0  0  0  0  0  0  0  0  0
  121.8317  104.1803  107.8098 N   0  3  0  0  0  0  0  0  0  0  0  0
  123.9140  108.1687  106.5204 O   0  0  0  0  0  0  0  0  0  0  0  0
  126.3392  108.5783  106.4834 O   0  0  0  0  0  0  0  0  0  0  0  0
  125.1659  108.2106  107.2734 S   0  0  0  0  0  0  0  0  0  0  0  0
  122.8328  108.2556  112.0638 H   0  0  0  0  0  0  0  0  0  0  0  0
  124.2601  112.1559  112.4735 H   0  0  0  0  0  0  0  0  0  0  0  0
  126.8107  107.0436  109.3006 H   0  0  0  0  0  0  0  0  0  0  0  0
  127.5615  106.2593  107.8932 H   0  0  0  0  0  0  0  0  0  0  0  0
  126.6023  105.2978  109.0389 H   0  0  0  0  0  0  0  0  0  0  0  0
  123.2906  107.9266  109.3005 H   0  0  0  0  0  0  0  0  0  0  0  0
  123.0290  109.4684  108.5224 H   0  0  0  0  0  0  0  0  0  0  0  0
  124.4719  103.9792  108.0198 H   0  0  0  0  0  0  0  0  0  0  0  0
  124.0431  103.7620  106.3239 H   0  0  0  0  0  0  0  0  0  0  0  0
  126.1805  104.9668  106.5298 H   0  0  0  0  0  0  0  0  0  0  0  0
  124.9692  105.9875  105.7481 H   0  0  0  0  0  0  0  0  0  0  0  0
  122.8694  105.9514  108.1464 H   0  0  0  0  0  0  0  0  0  0  0  0
  122.4117  105.6423  106.4450 H   0  0  0  0  0  0  0  0  0  0  0  0
  124.5244  111.5069  110.0326 H   0  0  0  0  0  0  0  0  0  0  0  0
  120.9303  104.6161  108.0320 H   0  0  0  0  0  0  0  0  0  0  0  0
  122.1645  103.6964  108.6509 H   0  0  0  0  0  0  0  0  0  0  0  0
  121.6713  103.4754  107.0822 H   0  0  0  0  0  0  0  0  0  0  0  0
  1  3  2  0  0  0  0
  1  9  1  0  0  0  0
  2  9  2  0  0  0  0
  2 11  1  0  0  0  0
  3  5  1  0  0  0  0
  3 11  1  0  0  0  0
  4 12  1  0  0  0  0
  5 10  1  0  0  0  0
  6  7  1  0  0  0  0
  6  8  1  0  0  0  0
  7 12  1  0  0  0  0
  8 13  1  0  0  0  0
 10 16  1  0  0  0  0
 12 16  1  0  0  0  0
 14 16  2  0  0  0  0
 15 16  2  0  0  0  0
  1 17  1  0  0  0  0
  2 18  1  0  0  0  0
  4 19  1  0  0  0  0
  4 20  1  0  0  0  0
  4 21  1  0  0  0  0
  5 22  1  0  0  0  0
  5 23  1  0  0  0  0
  6 24  1  0  0  0  0
  6 25  1  0  0  0  0
  7 26  1  0  0  0  0
  7 27  1  0  0  0  0
  8 28  1  0  0  0  0
  8 29  1  0  0  0  0
 11 30  1  0  0  0  0
 13 31  1  0  0  0  0
 13 32  1  0  0  0  0
 13 33  1  0  0  0  0
M  CHG  2  10  -1  13   1
M  END
> <FRED Chemgauss4 score>
-11.325436

$$$$
C72012622	P111774762
  -OEChem-05122015313D

 39 40  0     1  0  0  0  0  0999 V2000
  116.8559  106.5569  104.1138 C   0  0  0  0  0  0  0  0  0  0  0  0
  118.0645  106.9204  103.6688 C   0  0  0  0  0  0  0  0  0  0  0  0
  117.4445  107.0834  106.3818 C   0  0  0  0  0  0  0  0  0  0  0  0
  116.5244  106.6372  105.5158 C   0  0  0  0  0  0  0  0  0  0  0  0
  119.0980  107.4193  104.6238 C   0  0  0  0  0  0  0  0  0  0  0  0
  125.5850  108.5800  107.7497 C   0  0  0  0  0  0  0  0  0  0  0  0
  121.8708  107.5670  108.0299 C   0  0  0  0  0  0  0  0  0  0  0  0
  124.6365  105.8289  106.5786 C   0  0  0  0  0  0  0  0  0  0  0  0
  125.7873  106.0987  107.5498 C   0  0  0  0  0  0  0  0  0  0  0  0
  123.3111  105.6872  107.3182 C   0  0  0  0  0  0  0  0  0  0  0  0
  124.1143  107.1353  109.1529 C   0  0  0  0  0  0  0  0  0  0  0  0
  125.4869  107.2734  108.4867 C   0  0  2  0  0  0  0  0  0  0  0  0
  120.8995  107.0705  106.9889 C   0  0  0  0  0  0  0  0  0  0  0  0
  119.6625  107.9473  106.9621 C   0  0  0  0  0  0  0  0  0  0  0  0
  118.7171  107.4753  105.9767 N   0  0  0  0  0  0  0  0  0  0  0  0
  123.0611  106.8527  108.1671 N   0  0  0  0  0  0  0  0  0  0  0  0
  126.8554  109.1046  107.7179 N   0  0  0  0  0  0  0  0  0  0  0  0
  120.1999  107.7464  104.1862 O   0  0  0  0  0  0  0  0  0  0  0  0
  124.6096  109.1042  107.2177 O   0  0  0  0  0  0  0  0  0  0  0  0
  121.5777  108.5593  108.7019 O   0  0  0  0  0  0  0  0  0  0  0  0
  114.8189  106.1113  106.0527 Br  0  0  0  0  0  0  0  0  0  0  0  0
  116.1114  106.1969  103.4112 H   0  0  0  0  0  0  0  0  0  0  0  0
  118.3240  106.8652  102.6181 H   0  0  0  0  0  0  0  0  0  0  0  0
  117.2458  107.1629  107.4457 H   0  0  0  0  0  0  0  0  0  0  0  0
  124.5669  106.6517  105.8566 H   0  0  0  0  0  0  0  0  0  0  0  0
  124.8420  104.9174  106.0067 H   0  0  0  0  0  0  0  0  0  0  0  0
  125.9618  105.1982  108.1521 H   0  0  0  0  0  0  0  0  0  0  0  0
  126.7055  106.2853  106.9802 H   0  0  0  0  0  0  0  0  0  0  0  0
  122.4998  105.5474  106.5972 H   0  0  0  0  0  0  0  0  0  0  0  0
  123.3260  104.8048  107.9688 H   0  0  0  0  0  0  0  0  0  0  0  0
  124.1229  106.2919  109.8541 H   0  0  0  0  0  0  0  0  0  0  0  0
  123.8916  108.0328  109.7338 H   0  0  0  0  0  0  0  0  0  0  0  0
  126.2558  107.3098  109.2664 H   0  0  0  0  0  0  0  0  0  0  0  0
  120.6341  106.0506  107.2696 H   0  0  0  0  0  0  0  0  0  0  0  0
  121.4151  107.0599  106.0282 H   0  0  0  0  0  0  0  0  0  0  0  0
  119.1850  107.9174  107.9469 H   0  0  0  0  0  0  0  0  0  0  0  0
  119.9163  108.9901  106.7445 H   0  0  0  0  0  0  0  0  0  0  0  0
  127.6045  108.5946  108.1744 H   0  0  0  0  0  0  0  0  0  0  0  0
  127.0741  109.9814  107.2561 H   0  0  0  0  0  0  0  0  0  0  0  0
  1  2  2  0  0  0  0
  1  4  1  0  0  0  0
  2  5  1  0  0  0  0
  3  4  2  0  0  0  0
  3 15  1  0  0  0  0
  4 21  1  0  0  0  0
  5 15  1  0  0  0  0
  5 18  2  0  0  0  0
  6 12  1  0  0  0  0
  6 17  1  0  0  0  0
  6 19  2  0  0  0  0
  7 13  1  0  0  0  0
  7 16  1  0  0  0  0
  7 20  2  0  0  0  0
  8  9  1  0  0  0  0
  8 10  1  0  0  0  0
  9 12  1  0  0  0  0
 10 16  1  0  0  0  0
 11 12  1  0  0  0  0
 11 16  1  0  0  0  0
 13 14  1  0  0  0  0
 14 15  1  0  0  0  0
  1 22  1  0  0  0  0
  2 23  1  0  0  0  0
  3 24  1  0  0  0  0
  8 25  1  0  0  0  0
  8 26  1  0  0  0  0
  9 27  1  0  0  0  0
  9 28  1  0  0  0  0
 10 29  1  0  0  0  0
 10 30  1  0  0  0  0
 11 31  1  0  0  0  0
 11 32  1  0  0  0  0
 12 33  1  0  0  0  0
 13 34  1  0  0  0  0
 13 35  1  0  0  0  0
 14 36  1  0  0  0  0
 14 37  1  0  0  0  0
 17 38  1  0  0  0  0
 17 39  1  0  0  0  0
M  END
> <FRED Chemgauss4 score>
-11.317793

$$$$
C48248090	P128160691
  -OEChem-05122015313D

 42 44  0     0  0  0  0  0  0999 V2000
  114.7377  104.5862  106.2060 C   0  0  0  0  0  0  0  0  0  0  0  0
  115.4137  106.1914  104.5317 C   0  0  0  0  0  0  0  0  0  0  0  0
  115.7863  103.7485  105.8263 C   0  0  0  0  0  0  0  0  0  0  0  0
  116.4624  105.3537  104.1520 C   0  0  0  0  0  0  0  0  0  0  0  0
  124.4448  107.1697  106.1072 C   0  0  0  0  0  0  0  0  0  0  0  0
  125.4823  106.6804  106.9047 C   0  0  0  0  0  0  0  0  0  0  0  0
  121.8538  104.6091  106.5894 C   0  0  0  0  0  0  0  0  0  0  0  0
  124.1170  104.7967  107.5082 C   0  0  0  0  0  0  0  0  0  0  0  0
  123.0736  105.2891  106.7060 C   0  0  0  0  0  0  0  0  0  0  0  0
  114.5513  105.8077  105.5587 C   0  0  0  0  0  0  0  0  0  0  0  0
  120.8429  105.1214  105.7890 C   0  0  0  0  0  0  0  0  0  0  0  0
  116.6487  104.1322  104.7993 C   0  0  0  0  0  0  0  0  0  0  0  0
  123.2329  106.4945  105.9908 C   0  0  0  0  0  0  0  0  0  0  0  0
  125.3185  105.4924  107.6062 C   0  0  0  0  0  0  0  0  0  0  0  0
  121.0916  106.3071  105.1278 C   0  0  0  0  0  0  0  0  0  0  0  0
  113.4586  106.6822  105.9542 C   0  0  0  0  0  0  0  0  0  0  0  0
  119.5786  104.4116  105.6704 C   0  0  0  0  0  0  0  0  0  0  0  0
  120.0481  106.9156  104.2484 C   0  0  0  0  0  0  0  0  0  0  0  0
  117.7763  103.2319  104.3923 C   0  0  0  0  0  0  0  0  0  0  0  0
  122.2537  106.9942  105.2133 N   0  0  0  0  0  0  0  0  0  0  0  0
  112.6268  106.2537  106.9845 N   0  0  0  0  0  0  0  0  0  0  0  0
  119.0547  103.9437  104.5849 N   0  3  0  0  0  0  0  0  0  0  0  0
  113.2590  107.7689  105.3836 O   0  0  0  0  0  0  0  0  0  0  0  0
  118.8459  104.2300  106.7914 O   0  0  0  0  0  0  0  0  0  0  0  0
  126.5926  104.8857  108.5896 Cl  0  0  0  0  0  0  0  0  0  0  0  0
  114.0714  104.2779  107.0075 H   0  0  0  0  0  0  0  0  0  0  0  0
  115.2781  107.1408  104.0202 H   0  0  0  0  0  0  0  0  0  0  0  0
  115.9243  102.7988  106.3363 H   0  0  0  0  0  0  0  0  0  0  0  0
  117.1298  105.6608  103.3510 H   0  0  0  0  0  0  0  0  0  0  0  0
  124.5978  108.1029  105.5680 H   0  0  0  0  0  0  0  0  0  0  0  0
  126.4116  107.2410  106.9661 H   0  0  0  0  0  0  0  0  0  0  0  0
  121.6955  103.6758  107.1269 H   0  0  0  0  0  0  0  0  0  0  0  0
  123.9851  103.8655  108.0567 H   0  0  0  0  0  0  0  0  0  0  0  0
  119.4131  107.5953  104.8279 H   0  0  0  0  0  0  0  0  0  0  0  0
  120.5039  107.4788  103.4250 H   0  0  0  0  0  0  0  0  0  0  0  0
  119.4135  106.1442  103.7954 H   0  0  0  0  0  0  0  0  0  0  0  0
  117.7902  102.3156  104.9916 H   0  0  0  0  0  0  0  0  0  0  0  0
  117.6922  102.9387  103.3406 H   0  0  0  0  0  0  0  0  0  0  0  0
  112.8034  105.3569  107.4241 H   0  0  0  0  0  0  0  0  0  0  0  0
  111.8473  106.8188  107.3057 H   0  0  0  0  0  0  0  0  0  0  0  0
  119.5934  104.0693  103.7212 H   0  0  0  0  0  0  0  0  0  0  0  0
  119.2492  104.6039  107.5935 H   0  0  0  0  0  0  0  0  0  0  0  0
  1  3  2  0  0  0  0
  1 10  1  0  0  0  0
  2  4  1  0  0  0  0
  2 10  2  0  0  0  0
  3 12  1  0  0  0  0
  4 12  2  0  0  0  0
  5  6  2  0  0  0  0
  5 13  1  0  0  0  0
  6 14  1  0  0  0  0
  7  9  1  0  0  0  0
  7 11  2  0  0  0  0
  8  9  1  0  0  0  0
  8 14  2  0  0  0  0
  9 13  2  0  0  0  0
 10 16  1  0  0  0  0
 11 15  1  0  0  0  0
 11 17  1  0  0  0  0
 12 19  1  0  0  0  0
 13 20  1  0  0  0  0
 14 25  1  0  0  0  0
 15 18  1  0  0  0  0
 15 20  2  0  0  0  0
 16 21  1  0  0  0  0
 16 23  2  0  0  0  0
 17 22  2  0  0  0  0
 17 24  1  0  0  0  0
 19 22  1  0  0  0  0
  1 26  1  0  0  0  0
  2 27  1  0  0  0  0
  3 28  1  0  0  0  0
  4 29  1  0  0  0  0
  5 30  1  0  0  0  0
  6 31  1  0  0  0  0
  7 32  1  0  0  0  0
  8 33  1  0  0  0  0
 18 34  1  0  0  0  0
 18 35  1  0  0  0  0
 18 36  1  0  0  0  0
 19 37  1  0  0  0  0
 19 38  1  0  0  0  0
 21 39  1  0  0  0  0
 21 40  1  0  0  0  0
 22 41  1  0  0  0  0
 24 42  1  0  0  0  0
M  CHG  1  22   1
M  END
> <FRED Chemgauss4 score>
-11.307534

$$$$
C93756940	P146892601
  -OEChem-05122015313D

 53 54  0     1  0  0  0  0  0999 V2000
  125.7208  108.1524  107.5544 C   0  0  0  0  0  0  0  0  0  0  0  0
  126.1369  105.0551  107.5743 C   0  0  0  0  0  0  0  0  0  0  0  0
  120.5408  104.1964  106.4547 C   0  0  0  0  0  0  0  0  0  0  0  0
  124.8259  104.5963  106.9415 C   0  0  0  0  0  0  0  0  0  0  0  0
  120.0546  104.8087  105.1364 C   0  0  0  0  0  0  0  0  0  0  0  0
  125.8961  105.9748  108.7727 C   0  0  0  0  0  0  0  0  0  0  0  0
  123.6868  106.7072  107.7496 C   0  0  0  0  0  0  0  0  0  0  0  0
  121.7476  104.9260  107.0570 C   0  0  0  0  0  0  0  0  0  0  0  0
  122.1057  106.2822  105.0579 C   0  0  0  0  0  0  0  0  0  0  0  0
  123.9502  105.7886  106.5460 C   0  0  2  0  0  0  0  0  0  0  0  0
  120.5660  106.2402  104.9834 C   0  0  1  0  0  0  0  0  0  0  0  0
  124.9886  107.1650  108.4281 C   0  0  2  0  0  0  0  0  0  0  0  0
  123.5029  109.8122  110.5950 C   0  0  0  0  0  0  0  0  0  0  0  0
  118.7271  107.3074  103.8657 C   0  0  0  0  0  0  0  0  0  0  0  0
  120.2143  105.8768  102.6352 C   0  0  0  0  0  0  0  0  0  0  0  0
  123.8394  109.0569  109.3545 C   0  0  0  0  0  0  0  0  0  0  0  0
  122.6828  105.3108  106.0031 N   0  0  1  0  0  0  0  0  0  0  0  0
  126.8525  108.6740  108.1352 N   0  0  0  0  0  0  0  0  0  0  0  0
  124.6662  107.8992  109.6534 N   0  0  0  0  0  0  0  0  0  0  0  0
  120.1057  106.8387  103.7314 N   0  0  0  0  0  0  0  0  0  0  0  0
  125.3329  108.4367  106.4239 O   0  0  0  0  0  0  0  0  0  0  0  0
  126.7139  104.1805  107.8959 H   0  0  0  0  0  0  0  0  0  0  0  0
  126.7444  105.5747  106.8234 H   0  0  0  0  0  0  0  0  0  0  0  0
  119.7096  104.1979  107.1835 H   0  0  0  0  0  0  0  0  0  0  0  0
  120.7961  103.1347  106.2917 H   0  0  0  0  0  0  0  0  0  0  0  0
  125.0481  103.9808  106.0608 H   0  0  0  0  0  0  0  0  0  0  0  0
  124.2909  103.9522  107.6520 H   0  0  0  0  0  0  0  0  0  0  0  0
  120.4079  104.1821  104.3039 H   0  0  0  0  0  0  0  0  0  0  0  0
  118.9566  104.7841  105.1059 H   0  0  0  0  0  0  0  0  0  0  0  0
  125.4392  105.3811  109.5761 H   0  0  0  0  0  0  0  0  0  0  0  0
  126.8668  106.3195  109.1527 H   0  0  0  0  0  0  0  0  0  0  0  0
  123.0993  107.5765  107.4223 H   0  0  0  0  0  0  0  0  0  0  0  0
  123.0649  106.1696  108.4805 H   0  0  0  0  0  0  0  0  0  0  0  0
  121.3795  105.8150  107.5766 H   0  0  0  0  0  0  0  0  0  0  0  0
  122.2295  104.2819  107.7991 H   0  0  0  0  0  0  0  0  0  0  0  0
  122.5363  106.1301  104.0444 H   0  0  0  0  0  0  0  0  0  0  0  0
  122.4117  107.3051  105.3594 H   0  0  0  0  0  0  0  0  0  0  0  0
  124.4606  106.3596  105.7612 H   0  0  0  0  0  0  0  0  0  0  0  0
  120.1654  106.8505  105.8115 H   0  0  0  0  0  0  0  0  0  0  0  0
  122.9473  109.1818  111.2978 H   0  0  0  0  0  0  0  0  0  0  0  0
  124.4100  110.1846  111.0834 H   0  0  0  0  0  0  0  0  0  0  0  0
  122.8740  110.6752  110.3453 H   0  0  0  0  0  0  0  0  0  0  0  0
  118.3889  107.7537  102.9268 H   0  0  0  0  0  0  0  0  0  0  0  0
  118.6587  108.0587  104.6571 H   0  0  0  0  0  0  0  0  0  0  0  0
  118.0668  106.4729  104.1167 H   0  0  0  0  0  0  0  0  0  0  0  0
  119.8689  106.3299  101.7023 H   0  0  0  0  0  0  0  0  0  0  0  0
  119.6040  104.9942  102.8449 H   0  0  0  0  0  0  0  0  0  0  0  0
  121.2539  105.5623  102.5099 H   0  0  0  0  0  0  0  0  0  0  0  0
  124.3940  109.6921  108.6573 H   0  0  0  0  0  0  0  0  0  0  0  0
  122.9316  108.6992  108.8597 H   0  0  0  0  0  0  0  0  0  0  0  0
  127.1041  108.3707  109.0702 H   0  0  0  0  0  0  0  0  0  0  0  0
  127.4464  109.3502  107.6662 H   0  0  0  0  0  0  0  0  0  0  0  0
  124.1675  107.2780  110.2854 H   0  0  0  0  0  0  0  0  0  0  0  0
  1 12  1  0  0  0  0
  1 18  1  0  0  0  0
  1 21  2  0  0  0  0
  2  4  1  0  0  0  0
  2  6  1  0  0  0  0
  3  5  1  0  0  0  0
  3  8  1  0  0  0  0
  4 10  1  0  0  0  0
  5 11  1  0  0  0  0
  6 12  1  0  0  0  0
  7 10  1  0  0  0  0
  7 12  1  0  0  0  0
  8 17  1  0  0  0  0
  9 11  1  0  0  0  0
  9 17  1  0  0  0  0
 10 17  1  0  0  0  0
 11 20  1  0  0  0  0
 12 19  1  0  0  0  0
 13 16  1  0  0  0  0
 14 20  1  0  0  0  0
 15 20  1  0  0  0  0
 16 19  1  0  0  0  0
  2 22  1  0  0  0  0
  2 23  1  0  0  0  0
  3 24  1  0  0  0  0
  3 25  1  0  0  0  0
  4 26  1  0  0  0  0
  4 27  1  0  0  0  0
  5 28  1  0  0  0  0
  5 29  1  0  0  0  0
  6 30  1  0  0  0  0
  6 31  1  0  0  0  0
  7 32  1  0  0  0  0
  7 33  1  0  0  0  0
  8 34  1  0  0  0  0
  8 35  1  0  0  0  0
  9 36  1  0  0  0  0
  9 37  1  0  0  0  0
 10 38  1  0  0  0  0
 11 39  1  0  0  0  0
 13 40  1  0  0  0  0
 13 41  1  0  0  0  0
 13 42  1  0  0  0  0
 14 43  1  0  0  0  0
 14 44  1  0  0  0  0
 14 45  1  0  0  0  0
 15 46  1  0  0  0  0
 15 47  1  0  0  0  0
 15 48  1  0  0  0  0
 16 49  1  0  0  0  0
 16 50  1  0  0  0  0
 18 51  1  0  0  0  0
 18 52  1  0  0  0  0
 19 53  1  0  0  0  0
M  END
> <FRED Chemgauss4 score>
-11.305966

$$$$
C79910210	P124846163
  -OEChem-05122015313D

 35 36  0     1  0  0  0  0  0999 V2000
  116.0663  104.3290  104.8449 C   0  0  0  0  0  0  0  0  0  0  0  0
  117.0601  104.7751  104.0682 C   0  0  0  0  0  0  0  0  0  0  0  0
  117.6016  103.4034  106.4275 C   0  0  0  0  0  0  0  0  0  0  0  0
  116.3208  103.6120  106.0789 C   0  0  0  0  0  0  0  0  0  0  0  0
  118.4789  104.5412  104.4610 C   0  0  0  0  0  0  0  0  0  0  0  0
  124.5423  107.6459  106.5903 C   0  0  0  0  0  0  0  0  0  0  0  0
  120.6243  104.8135  106.7078 C   0  0  0  0  0  0  0  0  0  0  0  0
  125.4824  107.3011  107.7202 C   0  0  0  0  0  0  0  0  0  0  0  0
  124.5938  106.5159  108.6801 C   0  0  0  0  0  0  0  0  0  0  0  0
  123.5857  105.8393  107.7610 C   0  0  1  0  0  0  0  0  0  0  0  0
  120.0121  103.5579  106.1414 C   0  0  0  0  0  0  0  0  0  0  0  0
  122.2631  105.5383  108.4407 C   0  0  0  0  0  0  0  0  0  0  0  0
  123.4522  106.7865  106.6835 N   0  0  0  0  0  0  0  0  0  0  0  0
  118.6660  103.8446  105.6588 N   0  0  0  0  0  0  0  0  0  0  0  0
  115.2515  103.1895  106.8161 N   0  0  0  0  0  0  0  0  0  0  0  0
  121.5262  104.5240  107.7216 N   0  0  0  0  0  0  0  0  0  0  0  0
  119.3741  104.9616  103.7301 O   0  0  0  0  0  0  0  0  0  0  0  0
  124.7427  108.4977  105.7385 O   0  0  0  0  0  0  0  0  0  0  0  0
  120.3477  105.9408  106.3063 O   0  0  0  0  0  0  0  0  0  0  0  0
  115.0360  104.5047  104.5506 H   0  0  0  0  0  0  0  0  0  0  0  0
  116.8654  105.3109  103.1465 H   0  0  0  0  0  0  0  0  0  0  0  0
  117.8601  102.8732  107.3390 H   0  0  0  0  0  0  0  0  0  0  0  0
  126.3222  106.7017  107.3604 H   0  0  0  0  0  0  0  0  0  0  0  0
  125.8480  108.2276  108.1733 H   0  0  0  0  0  0  0  0  0  0  0  0
  125.1999  105.7533  109.1821 H   0  0  0  0  0  0  0  0  0  0  0  0
  124.1403  107.1444  109.4490 H   0  0  0  0  0  0  0  0  0  0  0  0
  123.9986  104.9000  107.3510 H   0  0  0  0  0  0  0  0  0  0  0  0
  120.6225  103.1929  105.3101 H   0  0  0  0  0  0  0  0  0  0  0  0
  119.9593  102.7884  106.9171 H   0  0  0  0  0  0  0  0  0  0  0  0
  121.6402  106.4368  108.4825 H   0  0  0  0  0  0  0  0  0  0  0  0
  122.4245  105.1736  109.4594 H   0  0  0  0  0  0  0  0  0  0  0  0
  122.6427  106.8430  106.0784 H   0  0  0  0  0  0  0  0  0  0  0  0
  114.3347  103.3881  106.4813 H   0  0  0  0  0  0  0  0  0  0  0  0
  115.4233  102.6966  107.6644 H   0  0  0  0  0  0  0  0  0  0  0  0
  121.6761  103.5507  107.9709 H   0  0  0  0  0  0  0  0  0  0  0  0
  1  2  2  0  0  0  0
  1  4  1  0  0  0  0
  2  5  1  0  0  0  0
  3  4  2  0  0  0  0
  3 14  1  0  0  0  0
  4 15  1  0  0  0  0
  5 14  1  0  0  0  0
  5 17  2  0  0  0  0
  6  8  1  0  0  0  0
  6 13  1  0  0  0  0
  6 18  2  0  0  0  0
  7 11  1  0  0  0  0
  7 16  1  0  0  0  0
  7 19  2  0  0  0  0
  8  9  1  0  0  0  0
  9 10  1  0  0  0  0
 10 12  1  0  0  0  0
 10 13  1  0  0  0  0
 11 14  1  0  0  0  0
 12 16  1  0  0  0  0
  1 20  1  0  0  0  0
  2 21  1  0  0  0  0
  3 22  1  0  0  0  0
  8 23  1  0  0  0  0
  8 24  1  0  0  0  0
  9 25  1  0  0  0  0
  9 26  1  0  0  0  0
 10 27  1  0  0  0  0
 11 28  1  0  0  0  0
 11 29  1  0  0  0  0
 12 30  1  0  0  0  0
 12 31  1  0  0  0  0
 13 32  1  0  0  0  0
 15 33  1  0  0  0  0
 15 34  1  0  0  0  0
 16 35  1  0  0  0  0
M  END
> <FRED Chemgauss4 score>
-11.281048

$$$$
C98077085	P155853031
  -OEChem-05122015313D

 51 53  0     0  0  0  0  0  0999 V2000
  117.7805  109.1688  104.7231 C   0  0  0  0  0  0  0  0  0  0  0  0
  117.6701  107.9205  104.1066 C   0  0  0  0  0  0  0  0  0  0  0  0
  116.5527  107.0015  106.0634 C   0  0  0  0  0  0  0  0  0  0  0  0
  117.2629  109.3184  105.9987 C   0  0  0  0  0  0  0  0  0  0  0  0
  116.6555  108.2457  106.6621 C   0  0  0  0  0  0  0  0  0  0  0  0
  117.0604  106.8448  104.7718 C   0  0  0  0  0  0  0  0  0  0  0  0
  121.6748  105.0622  106.2318 C   0  0  0  0  0  0  0  0  0  0  0  0
  117.2945  110.5344  106.8695 C   0  0  0  0  0  0  0  0  0  0  0  0
  116.2260  108.6447  108.0385 C   0  0  0  0  0  0  0  0  0  0  0  0
  116.2315  110.1761  107.9191 C   0  0  0  0  0  0  0  0  0  0  0  0
  119.7268  103.4748  106.2722 C   0  0  0  0  0  0  0  0  0  0  0  0
  120.8180  104.1727  104.0940 C   0  0  0  0  0  0  0  0  0  0  0  0
  118.5724  104.4259  105.9629 C   0  0  0  0  0  0  0  0  0  0  0  0
  119.6472  105.1220  103.8512 C   0  0  0  0  0  0  0  0  0  0  0  0
  121.0271  103.8552  105.5724 C   0  0  0  0  0  0  0  0  0  0  0  0
  124.1264  105.8185  108.3502 C   0  0  0  0  0  0  0  0  0  0  0  0
  122.6057  105.8938  108.3823 C   0  0  0  0  0  0  0  0  0  0  0  0
  124.7889  106.8763  109.2246 C   0  0  0  0  0  0  0  0  0  0  0  0
  118.4177  104.5685  104.4870 N   0  0  0  0  0  0  0  0  0  0  0  0
  121.9836  104.8763  107.5658 N   0  0  0  0  0  0  0  0  0  0  0  0
  121.8750  106.0758  105.5729 O   0  0  0  0  0  0  0  0  0  0  0  0
  115.8410  104.5548  104.5667 O   0  0  0  0  0  0  0  0  0  0  0  0
  117.0069  105.4988  102.5425 O   0  0  0  0  0  0  0  0  0  0  0  0
  126.1998  106.7395  109.1182 O   0  0  0  0  0  0  0  0  0  0  0  0
  116.9443  105.2763  103.9707 S   0  0  0  0  0  0  0  0  0  0  0  0
  118.2619  109.9954  104.2120 H   0  0  0  0  0  0  0  0  0  0  0  0
  118.0683  107.7879  103.1037 H   0  0  0  0  0  0  0  0  0  0  0  0
  116.0907  106.1724  106.5898 H   0  0  0  0  0  0  0  0  0  0  0  0
  118.2825  110.6440  107.3282 H   0  0  0  0  0  0  0  0  0  0  0  0
  117.0284  111.4460  106.3274 H   0  0  0  0  0  0  0  0  0  0  0  0
  115.2313  108.2683  108.2939 H   0  0  0  0  0  0  0  0  0  0  0  0
  116.9590  108.3023  108.7761 H   0  0  0  0  0  0  0  0  0  0  0  0
  116.4096  110.6696  108.8799 H   0  0  0  0  0  0  0  0  0  0  0  0
  115.2476  110.5110  107.5616 H   0  0  0  0  0  0  0  0  0  0  0  0
  119.8724  103.4255  107.3580 H   0  0  0  0  0  0  0  0  0  0  0  0
  119.4413  102.4662  105.9447 H   0  0  0  0  0  0  0  0  0  0  0  0
  120.6231  103.2331  103.5608 H   0  0  0  0  0  0  0  0  0  0  0  0
  121.7278  104.6024  103.6578 H   0  0  0  0  0  0  0  0  0  0  0  0
  117.6506  104.0122  106.3868 H   0  0  0  0  0  0  0  0  0  0  0  0
  118.7413  105.4103  106.4132 H   0  0  0  0  0  0  0  0  0  0  0  0
  119.8579  106.1183  104.2556 H   0  0  0  0  0  0  0  0  0  0  0  0
  119.4880  105.2171  102.7716 H   0  0  0  0  0  0  0  0  0  0  0  0
  121.7486  103.0504  105.6661 H   0  0  0  0  0  0  0  0  0  0  0  0
  124.4471  104.8255  108.6892 H   0  0  0  0  0  0  0  0  0  0  0  0
  124.4932  105.9165  107.3206 H   0  0  0  0  0  0  0  0  0  0  0  0
  122.2434  105.7480  109.4046 H   0  0  0  0  0  0  0  0  0  0  0  0
  122.2523  106.8681  108.0297 H   0  0  0  0  0  0  0  0  0  0  0  0
  124.5154  107.8858  108.9024 H   0  0  0  0  0  0  0  0  0  0  0  0
  124.5056  106.7476  110.2741 H   0  0  0  0  0  0  0  0  0  0  0  0
  121.7628  103.9818  107.9930 H   0  0  0  0  0  0  0  0  0  0  0  0
  126.5909  107.4245  109.6843 H   0  0  0  0  0  0  0  0  0  0  0  0
  1  2  1  0  0  0  0
  1  4  2  0  0  0  0
  2  6  2  0  0  0  0
  3  5  2  0  0  0  0
  3  6  1  0  0  0  0
  4  5  1  0  0  0  0
  4  8  1  0  0  0  0
  5  9  1  0  0  0  0
  6 25  1  0  0  0  0
  7 15  1  0  0  0  0
  7 20  1  0  0  0  0
  7 21  2  0  0  0  0
  8 10  1  0  0  0  0
  9 10  1  0  0  0  0
 11 13  1  0  0  0  0
 11 15  1  0  0  0  0
 12 14  1  0  0  0  0
 12 15  1  0  0  0  0
 13 19  1  0  0  0  0
 14 19  1  0  0  0  0
 16 17  1  0  0  0  0
 16 18  1  0  0  0  0
 17 20  1  0  0  0  0
 18 24  1  0  0  0  0
 19 25  1  0  0  0  0
 22 25  2  0  0  0  0
 23 25  2  0  0  0  0
  1 26  1  0  0  0  0
  2 27  1  0  0  0  0
  3 28  1  0  0  0  0
  8 29  1  0  0  0  0
  8 30  1  0  0  0  0
  9 31  1  0  0  0  0
  9 32  1  0  0  0  0
 10 33  1  0  0  0  0
 10 34  1  0  0  0  0
 11 35  1  0  0  0  0
 11 36  1  0  0  0  0
 12 37  1  0  0  0  0
 12 38  1  0  0  0  0
 13 39  1  0  0  0  0
 13 40  1  0  0  0  0
 14 41  1  0  0  0  0
 14 42  1  0  0  0  0
 15 43  1  0  0  0  0
 16 44  1  0  0  0  0
 16 45  1  0  0  0  0
 17 46  1  0  0  0  0
 17 47  1  0  0  0  0
 18 48  1  0  0  0  0
 18 49  1  0  0  0  0
 20 50  1  0  0  0  0
 24 51  1  0  0  0  0
M  END
> <FRED Chemgauss4 score>
-11.279158

$$$$
C94567135	P148238501
  -OEChem-05122015313D

 42 43  0     1  0  0  0  0  0999 V2000
  119.8310  103.5802  106.2597 C   0  0  0  0  0  0  0  0  0  0  0  0
  118.5312  103.7300  105.9805 C   0  0  0  0  0  0  0  0  0  0  0  0
  120.1720  105.9451  106.3573 C   0  0  0  0  0  0  0  0  0  0  0  0
  120.7076  104.7171  106.4608 C   0  0  0  0  0  0  0  0  0  0  0  0
  117.9429  105.0949  105.8678 C   0  0  0  0  0  0  0  0  0  0  0  0
  123.0378  105.3804  106.3794 C   0  0  0  0  0  0  0  0  0  0  0  0
  124.5341  104.8755  108.3244 C   0  0  0  0  0  0  0  0  0  0  0  0
  125.1073  106.2418  108.6208 C   0  0  0  0  0  0  0  0  0  0  0  0
  124.3872  104.9014  106.8142 C   0  0  2  0  0  0  0  0  0  0  0  0
  126.0021  106.4668  107.4156 C   0  0  2  0  0  0  0  0  0  0  0  0
  116.8899  107.6258  103.3226 C   0  0  0  0  0  0  0  0  0  0  0  0
  126.2542  107.9310  107.1135 C   0  0  0  0  0  0  0  0  0  0  0  0
  118.3364  107.5218  105.9763 C   0  0  0  0  0  0  0  0  0  0  0  0
  118.7619  108.1281  104.6516 C   0  0  0  0  0  0  0  0  0  0  0  0
  118.8332  106.1540  106.0703 N   0  0  0  0  0  0  0  0  0  0  0  0
  126.8788  108.5645  108.2304 N   0  0  0  0  0  0  0  0  0  0  0  0
  122.0254  104.5059  106.7422 N   0  0  0  0  0  0  0  0  0  0  0  0
  116.7453  105.2058  105.6109 O   0  0  0  0  0  0  0  0  0  0  0  0
  122.9001  106.4265  105.7492 O   0  0  0  0  0  0  0  0  0  0  0  0
  125.3315  105.8485  106.3053 O   0  0  0  0  0  0  0  0  0  0  0  0
  118.2558  107.3353  103.5852 O   0  0  0  0  0  0  0  0  0  0  0  0
  120.2524  102.5828  106.3401 H   0  0  0  0  0  0  0  0  0  0  0  0
  117.8795  102.8773  105.8304 H   0  0  0  0  0  0  0  0  0  0  0  0
  120.7733  106.8386  106.4956 H   0  0  0  0  0  0  0  0  0  0  0  0
  125.2606  104.1057  108.6115 H   0  0  0  0  0  0  0  0  0  0  0  0
  123.6006  104.6790  108.8597 H   0  0  0  0  0  0  0  0  0  0  0  0
  124.2995  106.9825  108.6568 H   0  0  0  0  0  0  0  0  0  0  0  0
  125.6520  106.2852  109.5681 H   0  0  0  0  0  0  0  0  0  0  0  0
  124.5686  103.9200  106.3626 H   0  0  0  0  0  0  0  0  0  0  0  0
  126.9580  105.9461  107.5496 H   0  0  0  0  0  0  0  0  0  0  0  0
  116.5351  107.0002  102.4999 H   0  0  0  0  0  0  0  0  0  0  0  0
  116.7845  108.6822  103.0628 H   0  0  0  0  0  0  0  0  0  0  0  0
  116.3025  107.4127  104.2188 H   0  0  0  0  0  0  0  0  0  0  0  0
  125.3076  108.4237  106.9141 H   0  0  0  0  0  0  0  0  0  0  0  0
  126.9075  108.0162  106.2511 H   0  0  0  0  0  0  0  0  0  0  0  0
  118.7379  108.0913  106.8205 H   0  0  0  0  0  0  0  0  0  0  0  0
  117.2450  107.4941  106.0495 H   0  0  0  0  0  0  0  0  0  0  0  0
  119.8537  108.1372  104.5770 H   0  0  0  0  0  0  0  0  0  0  0  0
  118.3878  109.1508  104.5383 H   0  0  0  0  0  0  0  0  0  0  0  0
  126.6159  108.2963  109.1707 H   0  0  0  0  0  0  0  0  0  0  0  0
  127.4220  109.4075  108.0894 H   0  0  0  0  0  0  0  0  0  0  0  0
  122.2791  103.6603  107.2458 H   0  0  0  0  0  0  0  0  0  0  0  0
  1  2  2  0  0  0  0
  1  4  1  0  0  0  0
  2  5  1  0  0  0  0
  3  4  2  0  0  0  0
  3 15  1  0  0  0  0
  4 17  1  0  0  0  0
  5 15  1  0  0  0  0
  5 18  2  0  0  0  0
  6  9  1  0  0  0  0
  6 17  1  0  0  0  0
  6 19  2  0  0  0  0
  7  8  1  0  0  0  0
  7  9  1  0  0  0  0
  8 10  1  0  0  0  0
  9 20  1  0  0  0  0
 10 12  1  0  0  0  0
 10 20  1  0  0  0  0
 11 21  1  0  0  0  0
 12 16  1  0  0  0  0
 13 14  1  0  0  0  0
 13 15  1  0  0  0  0
 14 21  1  0  0  0  0
  1 22  1  0  0  0  0
  2 23  1  0  0  0  0
  3 24  1  0  0  0  0
  7 25  1  0  0  0  0
  7 26  1  0  0  0  0
  8 27  1  0  0  0  0
  8 28  1  0  0  0  0
  9 29  1  0  0  0  0
 10 30  1  0  0  0  0
 11 31  1  0  0  0  0
 11 32  1  0  0  0  0
 11 33  1  0  0  0  0
 12 34  1  0  0  0  0
 12 35  1  0  0  0  0
 13 36  1  0  0  0  0
 13 37  1  0  0  0  0
 14 38  1  0  0  0  0
 14 39  1  0  0  0  0
 16 40  1  0  0  0  0
 16 41  1  0  0  0  0
 17 42  1  0  0  0  0
M  END
> <FRED Chemgauss4 score>
-11.268444

$$$$
C80443901	P125616329
  -OEChem-05122015313D

 35 36  0     1  0  0  0  0  0999 V2000
  125.2916  109.0333  108.3440 C   0  0  0  0  0  0  0  0  0  0  0  0
  126.4747  108.7425  107.5471 C   0  0  0  0  0  0  0  0  0  0  0  0
  124.3544  108.1019  108.5885 C   0  0  0  0  0  0  0  0  0  0  0  0
  126.7200  107.5388  107.0009 C   0  0  0  0  0  0  0  0  0  0  0  0
  124.5352  106.7913  108.0450 C   0  0  0  0  0  0  0  0  0  0  0  0
  123.8432  105.6430  108.0722 C   0  0  0  0  0  0  0  0  0  0  0  0
  125.7282  106.4799  107.2349 C   0  0  0  0  0  0  0  0  0  0  0  0
  121.4097  105.6947  107.8005 C   0  0  0  0  0  0  0  0  0  0  0  0
  121.2165  105.4177  103.8741 C   0  0  0  0  0  0  0  0  0  0  0  0
  118.8847  103.7378  106.4920 C   0  0  0  0  0  0  0  0  0  0  0  0
  124.5486  104.5613  107.2940 C   0  0  0  0  0  0  0  0  0  0  0  0
  122.5480  105.3595  108.7450 C   0  0  0  0  0  0  0  0  0  0  0  0
  120.4520  104.3300  104.6390 C   0  0  0  0  0  0  0  0  0  0  0  0
  119.9666  104.6972  106.0359 C   0  0  2  0  0  0  0  0  0  0  0  0
  125.7490  105.2728  106.8203 N   0  3  0  0  0  0  0  0  0  0  0  0
  121.0313  104.6214  107.0105 N   0  0  0  0  0  0  0  0  0  0  0  0
  121.5583  105.0817  102.7032 O   0  5  0  0  0  0  0  0  0  0  0  0
  120.8984  106.8129  107.7684 O   0  0  0  0  0  0  0  0  0  0  0  0
  121.4225  106.5009  104.4865 O   0  0  0  0  0  0  0  0  0  0  0  0
  119.0816  102.6619  107.0419 O   0  0  0  0  0  0  0  0  0  0  0  0
  117.6395  104.2326  106.2652 O   0  0  0  0  0  0  0  0  0  0  0  0
  125.1887  110.0381  108.7396 H   0  0  0  0  0  0  0  0  0  0  0  0
  127.1783  109.5562  107.4020 H   0  0  0  0  0  0  0  0  0  0  0  0
  123.4782  108.3297  109.1831 H   0  0  0  0  0  0  0  0  0  0  0  0
  127.6048  107.3379  106.4106 H   0  0  0  0  0  0  0  0  0  0  0  0
  124.8677  103.7254  107.9215 H   0  0  0  0  0  0  0  0  0  0  0  0
  123.9806  104.2240  106.4234 H   0  0  0  0  0  0  0  0  0  0  0  0
  122.4375  105.9826  109.6385 H   0  0  0  0  0  0  0  0  0  0  0  0
  122.5201  104.3119  109.0593 H   0  0  0  0  0  0  0  0  0  0  0  0
  121.1230  103.4632  104.7014 H   0  0  0  0  0  0  0  0  0  0  0  0
  119.5990  104.0198  104.0202 H   0  0  0  0  0  0  0  0  0  0  0  0
  119.5831  105.7219  106.0868 H   0  0  0  0  0  0  0  0  0  0  0  0
  126.5082  104.9026  106.2474 H   0  0  0  0  0  0  0  0  0  0  0  0
  121.5245  103.7409  107.1214 H   0  0  0  0  0  0  0  0  0  0  0  0
  116.9013  103.6651  106.5743 H   0  0  0  0  0  0  0  0  0  0  0  0
  1  2  1  0  0  0  0
  1  3  2  0  0  0  0
  2  4  2  0  0  0  0
  3  5  1  0  0  0  0
  4  7  1  0  0  0  0
  5  6  2  0  0  0  0
  5  7  1  0  0  0  0
  6 11  1  0  0  0  0
  6 12  1  0  0  0  0
  7 15  2  0  0  0  0
  8 12  1  0  0  0  0
  8 16  1  0  0  0  0
  8 18  2  0  0  0  0
  9 13  1  0  0  0  0
  9 17  1  0  0  0  0
  9 19  2  0  0  0  0
 10 14  1  0  0  0  0
 10 20  2  0  0  0  0
 10 21  1  0  0  0  0
 11 15  1  0  0  0  0
 13 14  1  0  0  0  0
 14 16  1  0  0  0  0
  1 22  1  0  0  0  0
  2 23  1  0  0  0  0
  3 24  1  0  0  0  0
  4 25  1  0  0  0  0
 11 26  1  0  0  0  0
 11 27  1  0  0  0  0
 12 28  1  0  0  0  0
 12 29  1  0  0  0  0
 13 30  1  0  0  0  0
 13 31  1  0  0  0  0
 14 32  1  0  0  0  0
 15 33  1  0  0  0  0
 16 34  1  0  0  0  0
 21 35  1  0  0  0  0
M  CHG  2  15   1  17  -1
M  END
> <FRED Chemgauss4 score>
-11.267097

$$$$
C62701028	P96198372
  -OEChem-05122015313D

 33 34  0     0  0  0  0  0  0999 V2000
  117.9043  103.5358  106.3700 C   0  0  0  0  0  0  0  0  0  0  0  0
  124.3490  104.3589  107.4397 C   0  0  0  0  0  0  0  0  0  0  0  0
  119.2388  103.5357  106.7756 C   0  0  0  0  0  0  0  0  0  0  0  0
  125.4831  104.5022  108.2389 C   0  0  0  0  0  0  0  0  0  0  0  0
  117.4160  104.5753  105.5782 C   0  0  0  0  0  0  0  0  0  0  0  0
  124.1083  106.7613  107.3504 C   0  0  0  0  0  0  0  0  0  0  0  0
  119.5970  105.6145  105.5976 C   0  0  0  0  0  0  0  0  0  0  0  0
  123.6616  105.4885  106.9954 C   0  0  0  0  0  0  0  0  0  0  0  0
  120.0852  104.5750  106.3894 C   0  0  0  0  0  0  0  0  0  0  0  0
  125.9299  105.7750  108.5939 C   0  0  0  0  0  0  0  0  0  0  0  0
  118.2624  105.6146  105.1921 C   0  0  0  0  0  0  0  0  0  0  0  0
  125.2425  106.9046  108.1497 C   0  0  0  0  0  0  0  0  0  0  0  0
  122.4491  105.3340  106.1412 C   0  0  0  0  0  0  0  0  0  0  0  0
  119.0523  107.8787  104.0281 N   0  0  0  0  0  0  0  0  0  0  0  0
  121.4124  104.5749  106.7934 N   0  0  0  0  0  0  0  0  0  0  0  0
  117.2966  106.3684  102.8959 O   0  0  0  0  0  0  0  0  0  0  0  0
  116.6629  107.6578  104.9656 O   0  0  0  0  0  0  0  0  0  0  0  0
  127.0405  105.8809  109.3774 O   0  0  0  0  0  0  0  0  0  0  0  0
  117.6522  106.9142  104.1982 S   0  0  0  0  0  0  0  0  0  0  0  0
  125.8201  108.6491  108.6140 Br  0  0  0  0  0  0  0  0  0  0  0  0
  117.2452  102.7267  106.6704 H   0  0  0  0  0  0  0  0  0  0  0  0
  124.0089  103.3628  107.1687 H   0  0  0  0  0  0  0  0  0  0  0  0
  119.6084  102.7208  107.3927 H   0  0  0  0  0  0  0  0  0  0  0  0
  126.0135  103.6175  108.5812 H   0  0  0  0  0  0  0  0  0  0  0  0
  116.3748  104.5651  105.2670 H   0  0  0  0  0  0  0  0  0  0  0  0
  123.5662  107.6366  106.9989 H   0  0  0  0  0  0  0  0  0  0  0  0
  120.2570  106.4252  105.2965 H   0  0  0  0  0  0  0  0  0  0  0  0
  122.0242  106.3123  105.8757 H   0  0  0  0  0  0  0  0  0  0  0  0
  122.6836  104.8237  105.1968 H   0  0  0  0  0  0  0  0  0  0  0  0
  119.5164  107.8971  103.1117 H   0  0  0  0  0  0  0  0  0  0  0  0
  119.0829  108.7761  104.5271 H   0  0  0  0  0  0  0  0  0  0  0  0
  121.6661  104.0054  107.5946 H   0  0  0  0  0  0  0  0  0  0  0  0
  127.3844  104.9995  109.5904 H   0  0  0  0  0  0  0  0  0  0  0  0
  1  3  1  0  0  0  0
  1  5  2  0  0  0  0
  2  4  2  0  0  0  0
  2  8  1  0  0  0  0
  3  9  2  0  0  0  0
  4 10  1  0  0  0  0
  5 11  1  0  0  0  0
  6  8  2  0  0  0  0
  6 12  1  0  0  0  0
  7  9  1  0  0  0  0
  7 11  2  0  0  0  0
  8 13  1  0  0  0  0
  9 15  1  0  0  0  0
 10 12  2  0  0  0  0
 10 18  1  0  0  0  0
 11 19  1  0  0  0  0
 12 20  1  0  0  0  0
 13 15  1  0  0  0  0
 14 19  1  0  0  0  0
 16 19  2  0  0  0  0
 17 19  2  0  0  0  0
  1 21  1  0  0  0  0
  2 22  1  0  0  0  0
  3 23  1  0  0  0  0
  4 24  1  0  0  0  0
  5 25  1  0  0  0  0
  6 26  1  0  0  0  0
  7 27  1  0  0  0  0
 13 28  1  0  0  0  0
 13 29  1  0  0  0  0
 14 30  1  0  0  0  0
 14 31  1  0  0  0  0
 15 32  1  0  0  0  0
 18 33  1  0  0  0  0
M  END
> <FRED Chemgauss4 score>
-11.264321

$$$$
C37052890	P55080318
  -OEChem-05122015313D

 32 33  0     0  0  0  0  0  0999 V2000
  125.9649  107.5860  107.0524 C   0  0  0  0  0  0  0  0  0  0  0  0
  117.2605  105.5927  105.4143 C   0  0  0  0  0  0  0  0  0  0  0  0
  124.9010  106.7550  106.7016 C   0  0  0  0  0  0  0  0  0  0  0  0
  126.8448  107.2030  108.0648 C   0  0  0  0  0  0  0  0  0  0  0  0
  118.1596  105.1002  106.3902 C   0  0  0  0  0  0  0  0  0  0  0  0
  125.5967  105.1579  108.3757 C   0  0  0  0  0  0  0  0  0  0  0  0
  117.7663  105.2012  104.1966 C   0  0  0  0  0  0  0  0  0  0  0  0
  124.7169  105.5409  107.3633 C   0  0  0  0  0  0  0  0  0  0  0  0
  126.6606  105.9889  108.7264 C   0  0  0  0  0  0  0  0  0  0  0  0
  119.1507  104.4427  105.6992 C   0  0  0  0  0  0  0  0  0  0  0  0
  123.5740  104.6492  106.9869 C   0  0  0  0  0  0  0  0  0  0  0  0
  120.3869  103.7069  106.1286 C   0  0  0  0  0  0  0  0  0  0  0  0
  127.5506  105.6015  109.7498 N   0  0  0  0  0  0  0  0  0  0  0  0
  120.9503  104.2555  107.3753 N   0  0  0  0  0  0  0  0  0  0  0  0
  122.1803  106.1844  108.5841 O   0  0  0  0  0  0  0  0  0  0  0  0
  121.7802  106.3221  106.0986 O   0  0  0  0  0  0  0  0  0  0  0  0
  118.9184  104.4997  104.3615 O   0  0  0  0  0  0  0  0  0  0  0  0
  122.0671  105.5439  107.2884 S   0  0  0  0  0  0  0  0  0  0  0  0
  126.1083  108.5314  106.5370 H   0  0  0  0  0  0  0  0  0  0  0  0
  116.3570  106.1621  105.5780 H   0  0  0  0  0  0  0  0  0  0  0  0
  124.2203  107.0615  105.9115 H   0  0  0  0  0  0  0  0  0  0  0  0
  127.6707  107.8581  108.3299 H   0  0  0  0  0  0  0  0  0  0  0  0
  118.0911  105.2127  107.4628 H   0  0  0  0  0  0  0  0  0  0  0  0
  125.4518  104.2108  108.8904 H   0  0  0  0  0  0  0  0  0  0  0  0
  117.4426  105.3353  103.1749 H   0  0  0  0  0  0  0  0  0  0  0  0
  123.5531  103.7347  107.5862 H   0  0  0  0  0  0  0  0  0  0  0  0
  123.6006  104.3735  105.9289 H   0  0  0  0  0  0  0  0  0  0  0  0
  120.1668  102.6469  106.2959 H   0  0  0  0  0  0  0  0  0  0  0  0
  121.1635  103.7602  105.3584 H   0  0  0  0  0  0  0  0  0  0  0  0
  128.3363  106.1835  109.9592 H   0  0  0  0  0  0  0  0  0  0  0  0
  127.4354  104.7080  110.1837 H   0  0  0  0  0  0  0  0  0  0  0  0
  121.1096  103.5507  108.1068 H   0  0  0  0  0  0  0  0  0  0  0  0
  1  3  1  0  0  0  0
  1  4  2  0  0  0  0
  2  5  1  0  0  0  0
  2  7  2  0  0  0  0
  3  8  2  0  0  0  0
  4  9  1  0  0  0  0
  5 10  2  0  0  0  0
  6  8  1  0  0  0  0
  6  9  2  0  0  0  0
  7 17  1  0  0  0  0
  8 11  1  0  0  0  0
  9 13  1  0  0  0  0
 10 12  1  0  0  0  0
 10 17  1  0  0  0  0
 11 18  1  0  0  0  0
 12 14  1  0  0  0  0
 14 18  1  0  0  0  0
 15 18  2  0  0  0  0
 16 18  2  0  0  0  0
  1 19  1  0  0  0  0
  2 20  1  0  0  0  0
  3 21  1  0  0  0  0
  4 22  1  0  0  0  0
  5 23  1  0  0  0  0
  6 24  1  0  0  0  0
  7 25  1  0  0  0  0
 11 26  1  0  0  0  0
 11 27  1  0  0  0  0
 12 28  1  0  0  0  0
 12 29  1  0  0  0  0
 13 30  1  0  0  0  0
 13 31  1  0  0  0  0
 14 32  1  0  0  0  0
M  END
> <FRED Chemgauss4 score>
-11.255326

$$$$
C65150707	P100121503
  -OEChem-05122015313D

 45 46  0     1  0  0  0  0  0999 V2000
  124.6392  107.4826  109.8745 C   0  0  0  0  0  0  0  0  0  0  0  0
  124.0105  108.5169  110.6600 C   0  0  0  0  0  0  0  0  0  0  0  0
  125.2247  107.7638  108.7033 C   0  0  0  0  0  0  0  0  0  0  0  0
  124.0043  109.7858  110.2225 C   0  0  0  0  0  0  0  0  0  0  0  0
  125.2287  109.1699  108.1990 C   0  0  0  0  0  0  0  0  0  0  0  0
  125.8440  106.6462  107.9638 C   0  0  0  0  0  0  0  0  0  0  0  0
  121.3742  105.2507  106.5570 C   0  0  0  0  0  0  0  0  0  0  0  0
  124.8144  103.5577  106.5378 C   0  0  0  0  0  0  0  0  0  0  0  0
  123.3331  103.7781  106.2275 C   0  0  0  0  0  0  0  0  0  0  0  0
  125.6275  104.8301  106.3083 C   0  0  0  0  0  0  0  0  0  0  0  0
  123.6469  106.2298  106.7249 C   0  0  0  0  0  0  0  0  0  0  0  0
  122.7856  104.9932  106.9842 C   0  0  1  0  0  0  0  0  0  0  0  0
  117.3698  103.7940  104.6437 C   0  0  0  0  0  0  0  0  0  0  0  0
  118.8449  103.7392  105.0149 C   0  0  0  0  0  0  0  0  0  0  0  0
  119.1133  104.2230  106.4349 C   0  0  0  0  0  0  0  0  0  0  0  0
  123.3747  110.9167  110.9711 C   0  0  0  0  0  0  0  0  0  0  0  0
  124.6021  110.0969  109.0183 N   0  0  0  0  0  0  0  0  0  0  0  0
  125.0510  105.9497  107.0569 N   0  0  0  0  0  0  0  0  0  0  0  0
  120.5183  104.1874  106.7722 N   0  0  0  0  0  0  0  0  0  0  0  0
  125.7577  109.4591  107.1286 O   0  0  0  0  0  0  0  0  0  0  0  0
  127.0271  106.3939  108.1986 O   0  0  0  0  0  0  0  0  0  0  0  0
  121.0791  106.3352  106.0685 O   0  0  0  0  0  0  0  0  0  0  0  0
  122.8249  110.4870  112.1261 F   0  0  0  0  0  0  0  0  0  0  0  0
  124.2852  111.8648  111.2765 F   0  0  0  0  0  0  0  0  0  0  0  0
  122.4000  111.5019  110.2440 F   0  0  0  0  0  0  0  0  0  0  0  0
  124.6138  106.4764  110.2812 H   0  0  0  0  0  0  0  0  0  0  0  0
  123.5503  108.2329  111.5998 H   0  0  0  0  0  0  0  0  0  0  0  0
  124.9284  103.2277  107.5779 H   0  0  0  0  0  0  0  0  0  0  0  0
  125.2075  102.7527  105.9023 H   0  0  0  0  0  0  0  0  0  0  0  0
  123.2003  103.8987  105.1522 H   0  0  0  0  0  0  0  0  0  0  0  0
  122.7743  102.8920  106.5340 H   0  0  0  0  0  0  0  0  0  0  0  0
  126.6548  104.6914  106.6714 H   0  0  0  0  0  0  0  0  0  0  0  0
  125.7070  105.0354  105.2389 H   0  0  0  0  0  0  0  0  0  0  0  0
  123.5539  106.5496  105.6883 H   0  0  0  0  0  0  0  0  0  0  0  0
  123.3266  107.0530  107.3650 H   0  0  0  0  0  0  0  0  0  0  0  0
  122.7614  104.7797  108.0426 H   0  0  0  0  0  0  0  0  0  0  0  0
  116.7717  103.1764  105.3214 H   0  0  0  0  0  0  0  0  0  0  0  0
  117.0025  104.8231  104.7110 H   0  0  0  0  0  0  0  0  0  0  0  0
  117.2025  103.4445  103.6203 H   0  0  0  0  0  0  0  0  0  0  0  0
  119.4059  104.3686  104.3144 H   0  0  0  0  0  0  0  0  0  0  0  0
  119.2093  102.7124  104.8919 H   0  0  0  0  0  0  0  0  0  0  0  0
  118.7840  105.2610  106.5453 H   0  0  0  0  0  0  0  0  0  0  0  0
  118.5765  103.6152  107.1700 H   0  0  0  0  0  0  0  0  0  0  0  0
  124.5783  111.0671  108.7172 H   0  0  0  0  0  0  0  0  0  0  0  0
  120.8945  103.3404  107.1874 H   0  0  0  0  0  0  0  0  0  0  0  0
  1  2  1  0  0  0  0
  1  3  2  0  0  0  0
  2  4  2  0  0  0  0
  3  5  1  0  0  0  0
  3  6  1  0  0  0  0
  4 16  1  0  0  0  0
  4 17  1  0  0  0  0
  5 17  1  0  0  0  0
  5 20  2  0  0  0  0
  6 18  1  0  0  0  0
  6 21  2  0  0  0  0
  7 12  1  0  0  0  0
  7 19  1  0  0  0  0
  7 22  2  0  0  0  0
  8  9  1  0  0  0  0
  8 10  1  0  0  0  0
  9 12  1  0  0  0  0
 10 18  1  0  0  0  0
 11 12  1  0  0  0  0
 11 18  1  0  0  0  0
 13 14  1  0  0  0  0
 14 15  1  0  0  0  0
 15 19  1  0  0  0  0
 16 23  1  0  0  0  0
 16 24  1  0  0  0  0
 16 25  1  0  0  0  0
  1 26  1  0  0  0  0
  2 27  1  0  0  0  0
  8 28  1  0  0  0  0
  8 29  1  0  0  0  0
  9 30  1  0  0  0  0
  9 31  1  0  0  0  0
 10 32  1  0  0  0  0
 10 33  1  0  0  0  0
 11 34  1  0  0  0  0
 11 35  1  0  0  0  0
 12 36  1  0  0  0  0
 13 37  1  0  0  0  0
 13 38  1  0  0  0  0
 13 39  1  0  0  0  0
 14 40  1  0  0  0  0
 14 41  1  0  0  0  0
 15 42  1  0  0  0  0
 15 43  1  0  0  0  0
 17 44  1  0  0  0  0
 19 45  1  0  0  0  0
M  END
> <FRED Chemgauss4 score>
-11.238415

$$$$
C94763834	P148525057
  -OEChem-05122015313D

 42 43  0     1  0  0  0  0  0999 V2000
  124.4258  106.4047  108.2793 C   0  0  0  0  0  0  0  0  0  0  0  0
  123.0839  106.6058  107.9754 C   0  0  0  0  0  0  0  0  0  0  0  0
  124.9930  107.3945  106.1924 C   0  0  0  0  0  0  0  0  0  0  0  0
  125.4047  106.8037  107.3761 C   0  0  0  0  0  0  0  0  0  0  0  0
  122.7761  107.2056  106.7650 C   0  0  0  0  0  0  0  0  0  0  0  0
  126.8146  106.6085  107.6641 C   0  0  0  0  0  0  0  0  0  0  0  0
  118.6751  104.9335  105.7831 C   0  0  0  0  0  0  0  0  0  0  0  0
  115.9907  104.2533  103.3639 C   0  0  0  0  0  0  0  0  0  0  0  0
  116.5416  105.5665  102.8226 C   0  0  0  0  0  0  0  0  0  0  0  0
  117.1239  103.7485  104.2437 C   0  0  0  0  0  0  0  0  0  0  0  0
  117.3034  106.1334  104.0124 C   0  0  0  0  0  0  0  0  0  0  0  0
  121.0142  105.8938  104.5902 C   0  0  0  0  0  0  0  0  0  0  0  0
  121.3373  107.4367  106.4034 C   0  0  0  0  0  0  0  0  0  0  0  0
  119.2484  106.2718  106.1750 C   0  0  0  0  0  0  0  0  0  0  0  0
  123.6992  107.6065  105.8624 N   0  0  0  0  0  0  0  0  0  0  0  0
  117.7623  104.9569  104.7444 N   0  0  0  0  0  0  0  0  0  0  0  0
  128.4892  106.3637  109.3718 N   0  0  0  0  0  0  0  0  0  0  0  0
  127.1690  106.5718  109.0163 N   0  0  0  0  0  0  0  0  0  0  0  0
  120.6657  106.1917  105.9906 N   0  0  1  0  0  0  0  0  0  0  0  0
  127.6694  106.4567  106.7747 O   0  0  0  0  0  0  0  0  0  0  0  0
  119.0260  103.9084  106.3696 O   0  0  0  0  0  0  0  0  0  0  0  0
  124.6978  105.9369  109.2217 H   0  0  0  0  0  0  0  0  0  0  0  0
  122.3099  106.3002  108.6713 H   0  0  0  0  0  0  0  0  0  0  0  0
  125.7105  107.7264  105.4478 H   0  0  0  0  0  0  0  0  0  0  0  0
  115.0999  104.4487  103.9731 H   0  0  0  0  0  0  0  0  0  0  0  0
  115.7201  103.5448  102.5765 H   0  0  0  0  0  0  0  0  0  0  0  0
  117.2332  105.3646  101.9957 H   0  0  0  0  0  0  0  0  0  0  0  0
  115.7618  106.2421  102.4607 H   0  0  0  0  0  0  0  0  0  0  0  0
  116.7801  103.1179  105.0689 H   0  0  0  0  0  0  0  0  0  0  0  0
  117.8693  103.1952  103.6617 H   0  0  0  0  0  0  0  0  0  0  0  0
  118.1440  106.7648  103.7126 H   0  0  0  0  0  0  0  0  0  0  0  0
  116.6436  106.7036  104.6752 H   0  0  0  0  0  0  0  0  0  0  0  0
  120.5229  104.9718  104.2688 H   0  0  0  0  0  0  0  0  0  0  0  0
  122.0957  105.7704  104.4879 H   0  0  0  0  0  0  0  0  0  0  0  0
  120.6914  106.7102  103.9385 H   0  0  0  0  0  0  0  0  0  0  0  0
  120.7868  107.8505  107.2553 H   0  0  0  0  0  0  0  0  0  0  0  0
  121.2492  108.1534  105.5801 H   0  0  0  0  0  0  0  0  0  0  0  0
  118.9964  106.4571  107.2150 H   0  0  0  0  0  0  0  0  0  0  0  0
  118.8098  107.0299  105.5328 H   0  0  0  0  0  0  0  0  0  0  0  0
  128.4796  105.8333  110.2420 H   0  0  0  0  0  0  0  0  0  0  0  0
  128.8889  105.7431  108.6692 H   0  0  0  0  0  0  0  0  0  0  0  0
  126.4617  106.6972  109.7325 H   0  0  0  0  0  0  0  0  0  0  0  0
  1  2  2  0  0  0  0
  1  4  1  0  0  0  0
  2  5  1  0  0  0  0
  3  4  2  0  0  0  0
  3 15  1  0  0  0  0
  4  6  1  0  0  0  0
  5 13  1  0  0  0  0
  5 15  2  0  0  0  0
  6 18  1  0  0  0  0
  6 20  2  0  0  0  0
  7 14  1  0  0  0  0
  7 16  1  0  0  0  0
  7 21  2  0  0  0  0
  8  9  1  0  0  0  0
  8 10  1  0  0  0  0
  9 11  1  0  0  0  0
 10 16  1  0  0  0  0
 11 16  1  0  0  0  0
 12 19  1  0  0  0  0
 13 19  1  0  0  0  0
 14 19  1  0  0  0  0
 17 18  1  0  0  0  0
  1 22  1  0  0  0  0
  2 23  1  0  0  0  0
  3 24  1  0  0  0  0
  8 25  1  0  0  0  0
  8 26  1  0  0  0  0
  9 27  1  0  0  0  0
  9 28  1  0  0  0  0
 10 29  1  0  0  0  0
 10 30  1  0  0  0  0
 11 31  1  0  0  0  0
 11 32  1  0  0  0  0
 12 33  1  0  0  0  0
 12 34  1  0  0  0  0
 12 35  1  0  0  0  0
 13 36  1  0  0  0  0
 13 37  1  0  0  0  0
 14 38  1  0  0  0  0
 14 39  1  0  0  0  0
 17 40  1  0  0  0  0
 17 41  1  0  0  0  0
 18 42  1  0  0  0  0
M  END
> <FRED Chemgauss4 score>
-11.213699

$$$$
C89491263	P139889590
  -OEChem-05122015313D

 40 41  0     1  0  0  0  0  0999 V2000
  119.7663  106.0673  106.2108 C   0  0  0  0  0  0  0  0  0  0  0  0
  118.1714  103.7988  105.9059 C   0  0  0  0  0  0  0  0  0  0  0  0
  120.3335  104.7971  106.3133 C   0  0  0  0  0  0  0  0  0  0  0  0
  119.5360  103.6628  106.1609 C   0  0  0  0  0  0  0  0  0  0  0  0
  118.4016  106.2032  105.9559 C   0  0  0  0  0  0  0  0  0  0  0  0
  117.6042  105.0690  105.8034 C   0  0  0  0  0  0  0  0  0  0  0  0
  125.5717  104.5038  108.6644 C   0  0  0  0  0  0  0  0  0  0  0  0
  124.1010  104.4387  108.2542 C   0  0  0  0  0  0  0  0  0  0  0  0
  126.1910  105.6534  107.8698 C   0  0  0  0  0  0  0  0  0  0  0  0
  123.9971  105.2989  106.9943 C   0  0  2  0  0  0  0  0  0  0  0  0
  125.0074  106.4176  107.2746 C   0  0  2  0  0  0  0  0  0  0  0  0
  122.5812  105.7927  106.7403 C   0  0  0  0  0  0  0  0  0  0  0  0
  125.3937  107.2255  106.0453 C   0  0  0  0  0  0  0  0  0  0  0  0
  117.8160  108.0421  104.5657 C   0  0  0  0  0  0  0  0  0  0  0  0
  120.0902  102.3670  106.2596 N   0  0  0  0  0  0  0  0  0  0  0  0
  121.7004  104.6838  106.5705 N   0  0  0  0  0  0  0  0  0  0  0  0
  124.4118  108.2248  105.8301 O   0  0  0  0  0  0  0  0  0  0  0  0
  117.8492  107.4432  105.8556 O   0  0  0  0  0  0  0  0  0  0  0  0
  116.2923  105.1931  105.5598 F   0  0  0  0  0  0  0  0  0  0  0  0
  116.6460  107.6826  103.9772 F   0  0  0  0  0  0  0  0  0  0  0  0
  117.7805  109.3905  104.7020 F   0  0  0  0  0  0  0  0  0  0  0  0
  120.3834  106.9550  106.3292 H   0  0  0  0  0  0  0  0  0  0  0  0
  117.5396  102.9226  105.7852 H   0  0  0  0  0  0  0  0  0  0  0  0
  125.6606  104.6742  109.7430 H   0  0  0  0  0  0  0  0  0  0  0  0
  126.0867  103.5638  108.4383 H   0  0  0  0  0  0  0  0  0  0  0  0
  123.7730  103.4094  108.0760 H   0  0  0  0  0  0  0  0  0  0  0  0
  123.4791  104.8480  109.0599 H   0  0  0  0  0  0  0  0  0  0  0  0
  126.8151  106.2942  108.5008 H   0  0  0  0  0  0  0  0  0  0  0  0
  126.8324  105.2459  107.0784 H   0  0  0  0  0  0  0  0  0  0  0  0
  124.3264  104.7062  106.1300 H   0  0  0  0  0  0  0  0  0  0  0  0
  124.6062  107.1007  108.0358 H   0  0  0  0  0  0  0  0  0  0  0  0
  122.5730  106.3935  105.8381 H   0  0  0  0  0  0  0  0  0  0  0  0
  122.2500  106.3816  107.5876 H   0  0  0  0  0  0  0  0  0  0  0  0
  125.4418  106.5773  105.1684 H   0  0  0  0  0  0  0  0  0  0  0  0
  126.3629  107.7041  106.1981 H   0  0  0  0  0  0  0  0  0  0  0  0
  118.6429  107.7297  103.9190 H   0  0  0  0  0  0  0  0  0  0  0  0
  119.4863  101.5743  106.1919 H   0  0  0  0  0  0  0  0  0  0  0  0
  121.0574  102.2691  106.4887 H   0  0  0  0  0  0  0  0  0  0  0  0
  122.0788  103.7365  106.6373 H   0  0  0  0  0  0  0  0  0  0  0  0
  124.6828  108.7241  105.0414 H   0  0  0  0  0  0  0  0  0  0  0  0
  1  3  1  0  0  0  0
  1  5  2  0  0  0  0
  2  4  1  0  0  0  0
  2  6  2  0  0  0  0
  3  4  2  0  0  0  0
  3 16  1  0  0  0  0
  4 15  1  0  0  0  0
  5  6  1  0  0  0  0
  5 18  1  0  0  0  0
  6 19  1  0  0  0  0
  7  8  1  0  0  0  0
  7  9  1  0  0  0  0
  8 10  1  0  0  0  0
  9 11  1  0  0  0  0
 10 11  1  0  0  0  0
 10 12  1  0  0  0  0
 11 13  1  0  0  0  0
 12 16  1  0  0  0  0
 13 17  1  0  0  0  0
 14 18  1  0  0  0  0
 14 20  1  0  0  0  0
 14 21  1  0  0  0  0
  1 22  1  0  0  0  0
  2 23  1  0  0  0  0
  7 24  1  0  0  0  0
  7 25  1  0  0  0  0
  8 26  1  0  0  0  0
  8 27  1  0  0  0  0
  9 28  1  0  0  0  0
  9 29  1  0  0  0  0
 10 30  1  0  0  0  0
 11 31  1  0  0  0  0
 12 32  1  0  0  0  0
 12 33  1  0  0  0  0
 13 34  1  0  0  0  0
 13 35  1  0  0  0  0
 14 36  1  0  0  0  0
 15 37  1  0  0  0  0
 15 38  1  0  0  0  0
 16 39  1  0  0  0  0
 17 40  1  0  0  0  0
M  END
> <FRED Chemgauss4 score>
-11.204381

$$$$
C69369003	P106728978
  -OEChem-05122015313D

 43 44  0     1  0  0  0  0  0999 V2000
  117.6541  106.1487  106.0221 C   0  0  0  0  0  0  0  0  0  0  0  0
  118.2488  107.2631  106.6436 C   0  0  0  0  0  0  0  0  0  0  0  0
  118.5407  105.1219  106.2370 C   0  0  0  0  0  0  0  0  0  0  0  0
  126.1258  108.3351  107.2544 C   0  0  0  0  0  0  0  0  0  0  0  0
  125.8109  107.5878  105.9705 C   0  0  0  0  0  0  0  0  0  0  0  0
  124.7269  106.5087  106.1048 C   0  0  0  0  0  0  0  0  0  0  0  0
  126.9238  106.1393  108.1370 C   0  0  0  0  0  0  0  0  0  0  0  0
  125.6365  105.3129  108.0655 C   0  0  0  0  0  0  0  0  0  0  0  0
  117.7295  108.6404  106.7229 C   0  0  0  0  0  0  0  0  0  0  0  0
  118.5036  103.7009  105.8404 C   0  0  0  0  0  0  0  0  0  0  0  0
  120.7713  104.9708  107.4223 C   0  0  0  0  0  0  0  0  0  0  0  0
  123.3170  105.1055  107.4631 C   0  0  0  0  0  0  0  0  0  0  0  0
  121.9997  105.8887  107.4527 C   0  0  2  0  0  0  0  0  0  0  0  0
  119.4223  106.9718  107.2109 N   0  0  0  0  0  0  0  0  0  0  0  0
  119.5722  105.6626  106.9469 N   0  0  0  0  0  0  0  0  0  0  0  0
  126.6708  107.5628  108.2632 N   0  0  0  0  0  0  0  0  0  0  0  0
  124.4845  105.9896  107.4552 N   0  0  2  0  0  0  0  0  0  0  0  0
  116.4799  106.0930  105.3626 N   0  0  0  0  0  0  0  0  0  0  0  0
  125.9183  109.5423  107.3669 O   0  0  0  0  0  0  0  0  0  0  0  0
  121.9429  106.6715  108.6475 O   0  0  0  0  0  0  0  0  0  0  0  0
  125.5710  108.3112  105.1706 H   0  0  0  0  0  0  0  0  0  0  0  0
  126.7488  107.1002  105.6480 H   0  0  0  0  0  0  0  0  0  0  0  0
  123.7880  106.9770  105.7394 H   0  0  0  0  0  0  0  0  0  0  0  0
  124.9266  105.6755  105.3937 H   0  0  0  0  0  0  0  0  0  0  0  0
  127.5666  105.8153  108.9618 H   0  0  0  0  0  0  0  0  0  0  0  0
  127.4882  106.0086  107.2080 H   0  0  0  0  0  0  0  0  0  0  0  0
  125.8353  104.3434  107.5664 H   0  0  0  0  0  0  0  0  0  0  0  0
  125.3735  105.0629  109.1108 H   0  0  0  0  0  0  0  0  0  0  0  0
  117.1067  108.7811  107.6223 H   0  0  0  0  0  0  0  0  0  0  0  0
  118.5403  109.3891  106.7582 H   0  0  0  0  0  0  0  0  0  0  0  0
  117.1126  108.9032  105.8455 H   0  0  0  0  0  0  0  0  0  0  0  0
  118.9758  103.5506  104.8556 H   0  0  0  0  0  0  0  0  0  0  0  0
  119.0280  103.0549  106.5653 H   0  0  0  0  0  0  0  0  0  0  0  0
  117.4715  103.3149  105.7795 H   0  0  0  0  0  0  0  0  0  0  0  0
  120.5468  104.5800  108.4223 H   0  0  0  0  0  0  0  0  0  0  0  0
  120.9184  104.1128  106.7563 H   0  0  0  0  0  0  0  0  0  0  0  0
  123.3562  104.4621  108.3502 H   0  0  0  0  0  0  0  0  0  0  0  0
  123.3592  104.4330  106.5983 H   0  0  0  0  0  0  0  0  0  0  0  0
  121.9819  106.5844  106.6048 H   0  0  0  0  0  0  0  0  0  0  0  0
  126.9028  108.0113  109.1265 H   0  0  0  0  0  0  0  0  0  0  0  0
  115.8510  106.9077  105.2887 H   0  0  0  0  0  0  0  0  0  0  0  0
  116.1054  105.2111  104.9794 H   0  0  0  0  0  0  0  0  0  0  0  0
  122.7280  107.2386  108.6386 H   0  0  0  0  0  0  0  0  0  0  0  0
  1  2  1  0  0  0  0
  1  3  2  0  0  0  0
  1 18  1  0  0  0  0
  2  9  1  0  0  0  0
  2 14  2  0  0  0  0
  3 10  1  0  0  0  0
  3 15  1  0  0  0  0
  4  5  1  0  0  0  0
  4 16  1  0  0  0  0
  4 19  2  0  0  0  0
  5  6  1  0  0  0  0
  6 17  1  0  0  0  0
  7  8  1  0  0  0  0
  7 16  1  0  0  0  0
  8 17  1  0  0  0  0
 11 13  1  0  0  0  0
 11 15  1  0  0  0  0
 12 13  1  0  0  0  0
 12 17  1  0  0  0  0
 13 20  1  0  0  0  0
 14 15  1  0  0  0  0
  5 21  1  0  0  0  0
  5 22  1  0  0  0  0
  6 23  1  0  0  0  0
  6 24  1  0  0  0  0
  7 25  1  0  0  0  0
  7 26  1  0  0  0  0
  8 27  1  0  0  0  0
  8 28  1  0  0  0  0
  9 29  1  0  0  0  0
  9 30  1  0  0  0  0
  9 31  1  0  0  0  0
 10 32  1  0  0  0  0
 10 33  1  0  0  0  0
 10 34  1  0  0  0  0
 11 35  1  0  0  0  0
 11 36  1  0  0  0  0
 12 37  1  0  0  0  0
 12 38  1  0  0  0  0
 13 39  1  0  0  0  0
 16 40  1  0  0  0  0
 18 41  1  0  0  0  0
 18 42  1  0  0  0  0
 20 43  1  0  0  0  0
M  END
> <FRED Chemgauss4 score>
-11.194904

$$$$
C69189165	P106351442
  -OEChem-05122015313D

 38 40  0     1  0  0  0  0  0999 V2000
  118.7302  107.3631  106.5876 C   0  0  0  0  0  0  0  0  0  0  0  0
  119.1836  103.1269  105.8186 C   0  0  0  0  0  0  0  0  0  0  0  0
  119.8892  105.0158  106.7105 C   0  0  0  0  0  0  0  0  0  0  0  0
  118.6920  105.1861  106.0284 C   0  0  0  0  0  0  0  0  0  0  0  0
  120.5008  106.0805  107.3426 C   0  0  0  0  0  0  0  0  0  0  0  0
  125.0671  108.7096  107.3269 C   0  0  0  0  0  0  0  0  0  0  0  0
  124.2742  108.8439  110.4962 C   0  0  0  0  0  0  0  0  0  0  0  0
  123.0475  107.9752  110.4872 C   0  0  0  0  0  0  0  0  0  0  0  0
  123.5350  108.6007  109.2096 C   0  0  0  0  0  0  0  0  0  0  0  0
  126.4974  104.7792  108.7246 C   0  0  0  0  0  0  0  0  0  0  0  0
  125.7549  105.8173  107.9120 C   0  0  0  0  0  0  0  0  0  0  0  0
  123.0550  107.0726  107.2712 C   0  0  0  0  0  0  0  0  0  0  0  0
  124.1605  107.7295  108.1121 C   0  0  1  0  0  0  0  0  0  0  0  0
  118.0624  106.3826  105.9423 N   0  0  0  0  0  0  0  0  0  0  0  0
  119.8954  107.2875  107.2737 N   0  0  0  0  0  0  0  0  0  0  0  0
  118.2640  104.0047  105.4786 N   0  0  0  0  0  0  0  0  0  0  0  0
  120.1857  103.6906  106.5634 N   0  0  0  0  0  0  0  0  0  0  0  0
  124.9195  106.6382  108.8165 N   0  3  0  0  0  0  0  0  0  0  0  0
  125.7076  108.1984  106.3636 O   0  5  0  0  0  0  0  0  0  0  0  0
  125.0771  109.9031  107.7431 O   0  0  0  0  0  0  0  0  0  0  0  0
  122.0224  105.9060  108.2197 S   0  0  0  0  0  0  0  0  0  0  0  0
  118.2717  108.3456  106.5519 H   0  0  0  0  0  0  0  0  0  0  0  0
  119.1857  102.0774  105.5609 H   0  0  0  0  0  0  0  0  0  0  0  0
  124.1974  109.8182  110.9628 H   0  0  0  0  0  0  0  0  0  0  0  0
  125.2341  108.3591  110.6251 H   0  0  0  0  0  0  0  0  0  0  0  0
  123.1850  106.9080  110.6104 H   0  0  0  0  0  0  0  0  0  0  0  0
  122.1493  108.3680  110.9475 H   0  0  0  0  0  0  0  0  0  0  0  0
  122.9576  109.4201  108.7988 H   0  0  0  0  0  0  0  0  0  0  0  0
  127.1623  105.2670  109.4440 H   0  0  0  0  0  0  0  0  0  0  0  0
  125.8030  104.1428  109.2830 H   0  0  0  0  0  0  0  0  0  0  0  0
  127.1075  104.1357  108.0822 H   0  0  0  0  0  0  0  0  0  0  0  0
  125.0822  105.3558  107.1839 H   0  0  0  0  0  0  0  0  0  0  0  0
  126.4416  106.4987  107.4022 H   0  0  0  0  0  0  0  0  0  0  0  0
  122.3888  107.8323  106.8460 H   0  0  0  0  0  0  0  0  0  0  0  0
  123.4823  106.5181  106.4281 H   0  0  0  0  0  0  0  0  0  0  0  0
  120.9955  103.2111  106.9340 H   0  0  0  0  0  0  0  0  0  0  0  0
  124.2444  106.0436  109.3049 H   0  0  0  0  0  0  0  0  0  0  0  0
  125.5046  107.0697  109.5373 H   0  0  0  0  0  0  0  0  0  0  0  0
  1 14  2  0  0  0  0
  1 15  1  0  0  0  0
  2 16  2  0  0  0  0
  2 17  1  0  0  0  0
  3  4  2  0  0  0  0
  3  5  1  0  0  0  0
  3 17  1  0  0  0  0
  4 14  1  0  0  0  0
  4 16  1  0  0  0  0
  5 15  2  0  0  0  0
  5 21  1  0  0  0  0
  6 13  1  0  0  0  0
  6 19  1  0  0  0  0
  6 20  2  0  0  0  0
  7  8  1  0  0  0  0
  7  9  1  0  0  0  0
  8  9  1  0  0  0  0
  9 13  1  0  0  0  0
 10 11  1  0  0  0  0
 11 18  1  0  0  0  0
 12 13  1  0  0  0  0
 12 21  1  0  0  0  0
 13 18  1  0  0  0  0
  1 22  1  0  0  0  0
  2 23  1  0  0  0  0
  7 24  1  0  0  0  0
  7 25  1  0  0  0  0
  8 26  1  0  0  0  0
  8 27  1  0  0  0  0
  9 28  1  0  0  0  0
 10 29  1  0  0  0  0
 10 30  1  0  0  0  0
 10 31  1  0  0  0  0
 11 32  1  0  0  0  0
 11 33  1  0  0  0  0
 12 34  1  0  0  0  0
 12 35  1  0  0  0  0
 17 36  1  0  0  0  0
 18 37  1  0  0  0  0
 18 38  1  0  0  0  0
M  CHG  2  18   1  19  -1
M  END
> <FRED Chemgauss4 score>
-11.192309

$$$$
C49351888	P73718031
  -OEChem-05122015313D

 38 38  0     1  0  0  0  0  0999 V2000
  125.8578  104.8631  108.5342 C   0  0  0  0  0  0  0  0  0  0  0  0
  124.7077  105.2826  107.7717 C   0  0  0  0  0  0  0  0  0  0  0  0
  126.6476  105.7833  109.0961 C   0  0  0  0  0  0  0  0  0  0  0  0
  124.4109  106.5819  107.6127 C   0  0  0  0  0  0  0  0  0  0  0  0
  125.2954  107.6207  108.2429 C   0  0  0  0  0  0  0  0  0  0  0  0
  123.2057  106.8658  106.8123 C   0  0  0  0  0  0  0  0  0  0  0  0
  120.1431  105.8772  106.5966 C   0  0  0  0  0  0  0  0  0  0  0  0
  119.8629  107.9223  108.0203 C   0  0  0  0  0  0  0  0  0  0  0  0
  116.8878  105.4719  104.7620 C   0  0  0  0  0  0  0  0  0  0  0  0
  119.0249  104.2403  104.3098 C   0  0  0  0  0  0  0  0  0  0  0  0
  117.8531  103.9580  106.5088 C   0  0  0  0  0  0  0  0  0  0  0  0
  120.7567  107.2050  107.0207 C   0  0  1  0  0  0  0  0  0  0  0  0
  118.1862  104.9431  105.3824 C   0  0  0  0  0  0  0  0  0  0  0  0
  126.3768  107.1211  108.9557 N   0  0  0  0  0  0  0  0  0  0  0  0
  122.0557  106.9363  107.5790 N   0  0  0  0  0  0  0  0  0  0  0  0
  118.9418  106.0489  105.9231 N   0  0  0  0  0  0  0  0  0  0  0  0
  123.2832  107.0154  105.5978 O   0  0  0  0  0  0  0  0  0  0  0  0
  120.6834  104.7924  106.8023 O   0  0  0  0  0  0  0  0  0  0  0  0
  125.0809  109.2855  108.1511 S   0  0  0  0  0  0  0  0  0  0  0  0
  126.0603  103.8037  108.6367 H   0  0  0  0  0  0  0  0  0  0  0  0
  124.1016  104.4920  107.3398 H   0  0  0  0  0  0  0  0  0  0  0  0
  127.5240  105.5304  109.6791 H   0  0  0  0  0  0  0  0  0  0  0  0
  119.6922  107.3082  108.9121 H   0  0  0  0  0  0  0  0  0  0  0  0
  120.3123  108.8650  108.3493 H   0  0  0  0  0  0  0  0  0  0  0  0
  118.8857  108.1460  107.5789 H   0  0  0  0  0  0  0  0  0  0  0  0
  116.2691  105.9799  105.5109 H   0  0  0  0  0  0  0  0  0  0  0  0
  117.0925  106.1845  103.9554 H   0  0  0  0  0  0  0  0  0  0  0  0
  116.2872  104.6545  104.3463 H   0  0  0  0  0  0  0  0  0  0  0  0
  119.9602  103.8529  104.7303 H   0  0  0  0  0  0  0  0  0  0  0  0
  119.2946  104.9317  103.5030 H   0  0  0  0  0  0  0  0  0  0  0  0
  118.4810  103.3993  103.8656 H   0  0  0  0  0  0  0  0  0  0  0  0
  118.7654  103.5634  106.9711 H   0  0  0  0  0  0  0  0  0  0  0  0
  117.2566  104.4362  107.2935 H   0  0  0  0  0  0  0  0  0  0  0  0
  117.2851  103.1004  106.1298 H   0  0  0  0  0  0  0  0  0  0  0  0
  120.9157  107.8332  106.1375 H   0  0  0  0  0  0  0  0  0  0  0  0
  127.0117  107.7758  109.4033 H   0  0  0  0  0  0  0  0  0  0  0  0
  122.1322  106.7914  108.5845 H   0  0  0  0  0  0  0  0  0  0  0  0
  118.5481  106.9809  105.8332 H   0  0  0  0  0  0  0  0  0  0  0  0
  1  2  1  0  0  0  0
  1  3  2  0  0  0  0
  2  4  2  0  0  0  0
  3 14  1  0  0  0  0
  4  5  1  0  0  0  0
  4  6  1  0  0  0  0
  5 14  1  0  0  0  0
  5 19  2  0  0  0  0
  6 15  1  0  0  0  0
  6 17  2  0  0  0  0
  7 12  1  0  0  0  0
  7 16  1  0  0  0  0
  7 18  2  0  0  0  0
  8 12  1  0  0  0  0
  9 13  1  0  0  0  0
 10 13  1  0  0  0  0
 11 13  1  0  0  0  0
 12 15  1  0  0  0  0
 13 16  1  0  0  0  0
  1 20  1  0  0  0  0
  2 21  1  0  0  0  0
  3 22  1  0  0  0  0
  8 23  1  0  0  0  0
  8 24  1  0  0  0  0
  8 25  1  0  0  0  0
  9 26  1  0  0  0  0
  9 27  1  0  0  0  0
  9 28  1  0  0  0  0
 10 29  1  0  0  0  0
 10 30  1  0  0  0  0
 10 31  1  0  0  0  0
 11 32  1  0  0  0  0
 11 33  1  0  0  0  0
 11 34  1  0  0  0  0
 12 35  1  0  0  0  0
 14 36  1  0  0  0  0
 15 37  1  0  0  0  0
 16 38  1  0  0  0  0
M  END
> <FRED Chemgauss4 score>
-11.188690

$$$$
C36736142	P54592016
  -OEChem-05122015313D

 30 31  0     0  0  0  0  0  0999 V2000
  121.3347  104.4616  106.4589 C   0  0  0  0  0  0  0  0  0  0  0  0
  120.2864  103.6823  105.9696 C   0  0  0  0  0  0  0  0  0  0  0  0
  118.7813  105.5571  106.2086 C   0  0  0  0  0  0  0  0  0  0  0  0
  121.1063  105.7886  106.8231 C   0  0  0  0  0  0  0  0  0  0  0  0
  124.6238  106.0579  107.9233 C   0  0  0  0  0  0  0  0  0  0  0  0
  119.0097  104.2301  105.8444 C   0  0  0  0  0  0  0  0  0  0  0  0
  119.8296  106.3363  106.6979 C   0  0  0  0  0  0  0  0  0  0  0  0
  125.5449  105.0522  108.2727 C   0  0  0  0  0  0  0  0  0  0  0  0
  125.0579  107.1713  108.6005 C   0  0  0  0  0  0  0  0  0  0  0  0
  125.5608  103.6457  107.8313 C   0  0  0  0  0  0  0  0  0  0  0  0
  124.5449  108.5504  108.6716 C   0  0  0  0  0  0  0  0  0  0  0  0
  122.2554  106.5891  107.3456 C   0  0  0  0  0  0  0  0  0  0  0  0
  126.4925  105.4881  109.1069 N   0  0  0  0  0  0  0  0  0  0  0  0
  126.1694  106.7801  109.2873 N   0  0  0  0  0  0  0  0  0  0  0  0
  123.5224  105.9573  107.0847 N   0  0  0  0  0  0  0  0  0  0  0  0
  117.7169  103.2689  105.2390 Cl  0  0  0  0  0  0  0  0  0  0  0  0
  119.5088  107.9739  107.1399 Cl  0  0  0  0  0  0  0  0  0  0  0  0
  122.3253  104.0245  106.5543 H   0  0  0  0  0  0  0  0  0  0  0  0
  120.4790  102.6500  105.6890 H   0  0  0  0  0  0  0  0  0  0  0  0
  117.7847  105.9826  106.1110 H   0  0  0  0  0  0  0  0  0  0  0  0
  126.1524  103.5237  106.9085 H   0  0  0  0  0  0  0  0  0  0  0  0
  125.9921  102.9752  108.5951 H   0  0  0  0  0  0  0  0  0  0  0  0
  124.5453  103.2619  107.6297 H   0  0  0  0  0  0  0  0  0  0  0  0
  123.8186  108.6653  109.4941 H   0  0  0  0  0  0  0  0  0  0  0  0
  125.3515  109.2871  108.8347 H   0  0  0  0  0  0  0  0  0  0  0  0
  124.0409  108.8561  107.7374 H   0  0  0  0  0  0  0  0  0  0  0  0
  122.2804  107.5861  106.8865 H   0  0  0  0  0  0  0  0  0  0  0  0
  122.1782  106.7383  108.4301 H   0  0  0  0  0  0  0  0  0  0  0  0
  126.7545  107.3384  109.8966 H   0  0  0  0  0  0  0  0  0  0  0  0
  123.6191  105.4034  106.2387 H   0  0  0  0  0  0  0  0  0  0  0  0
  1  2  2  0  0  0  0
  1  4  1  0  0  0  0
  2  6  1  0  0  0  0
  3  6  2  0  0  0  0
  3  7  1  0  0  0  0
  4  7  2  0  0  0  0
  4 12  1  0  0  0  0
  5  8  1  0  0  0  0
  5  9  2  0  0  0  0
  5 15  1  0  0  0  0
  6 16  1  0  0  0  0
  7 17  1  0  0  0  0
  8 10  1  0  0  0  0
  8 13  2  0  0  0  0
  9 11  1  0  0  0  0
  9 14  1  0  0  0  0
 12 15  1  0  0  0  0
 13 14  1  0  0  0  0
  1 18  1  0  0  0  0
  2 19  1  0  0  0  0
  3 20  1  0  0  0  0
 10 21  1  0  0  0  0
 10 22  1  0  0  0  0
 10 23  1  0  0  0  0
 11 24  1  0  0  0  0
 11 25  1  0  0  0  0
 11 26  1  0  0  0  0
 12 27  1  0  0  0  0
 12 28  1  0  0  0  0
 14 29  1  0  0  0  0
 15 30  1  0  0  0  0
M  END
> <FRED Chemgauss4 score>
-11.187625

$$$$
C98093000	P155917681
  -OEChem-05122015313D

 44 45  0     0  0  0  0  0  0999 V2000
  114.8180  106.8594  103.6357 C   0  0  0  0  0  0  0  0  0  0  0  0
  115.7794  106.1506  103.5136 C   0  0  0  0  0  0  0  0  0  0  0  0
  125.1390  104.3408  107.8844 C   0  0  0  0  0  0  0  0  0  0  0  0
  125.7887  105.5181  108.3555 C   0  0  0  0  0  0  0  0  0  0  0  0
  124.2294  104.6155  106.8871 C   0  0  0  0  0  0  0  0  0  0  0  0
  125.3510  106.6480  107.7000 C   0  0  0  0  0  0  0  0  0  0  0  0
  121.0323  104.5520  105.9942 C   0  0  0  0  0  0  0  0  0  0  0  0
  118.9319  105.7947  106.5338 C   0  0  0  0  0  0  0  0  0  0  0  0
  118.8652  103.3352  105.9607 C   0  0  0  0  0  0  0  0  0  0  0  0
  118.3639  106.0807  105.1404 C   0  0  0  0  0  0  0  0  0  0  0  0
  118.3148  103.7263  104.5867 C   0  0  0  0  0  0  0  0  0  0  0  0
  119.6688  104.4583  106.6151 C   0  0  0  0  0  0  0  0  0  0  0  0
  123.8834  108.5380  109.8349 C   0  0  0  0  0  0  0  0  0  0  0  0
  116.9521  105.2863  103.3593 C   0  0  0  0  0  0  0  0  0  0  0  0
  123.3487  103.6593  106.1360 C   0  0  0  0  0  0  0  0  0  0  0  0
  117.5338  104.9674  104.6632 N   0  0  0  0  0  0  0  0  0  0  0  0
  121.9746  103.7276  106.5790 N   0  0  0  0  0  0  0  0  0  0  0  0
  124.3497  109.0094  108.5230 N   0  0  0  0  0  0  0  0  0  0  0  0
  121.2164  105.3145  105.0527 O   0  0  0  0  0  0  0  0  0  0  0  0
  126.8587  108.4844  108.7791 O   0  0  0  0  0  0  0  0  0  0  0  0
  125.9122  108.8665  106.4807 O   0  0  0  0  0  0  0  0  0  0  0  0
  124.1613  106.2873  106.5223 S   0  0  0  0  0  0  0  0  0  0  0  0
  125.7644  108.3512  107.8316 S   0  0  0  0  0  0  0  0  0  0  0  0
  113.9656  107.4884  103.7443 H   0  0  0  0  0  0  0  0  0  0  0  0
  125.3323  103.3442  108.2608 H   0  0  0  0  0  0  0  0  0  0  0  0
  126.5390  105.5337  109.1354 H   0  0  0  0  0  0  0  0  0  0  0  0
  119.5939  106.6180  106.8289 H   0  0  0  0  0  0  0  0  0  0  0  0
  118.1034  105.7826  107.2545 H   0  0  0  0  0  0  0  0  0  0  0  0
  118.0248  103.0734  106.6170 H   0  0  0  0  0  0  0  0  0  0  0  0
  119.4807  102.4331  105.8590 H   0  0  0  0  0  0  0  0  0  0  0  0
  117.7596  106.9941  105.2025 H   0  0  0  0  0  0  0  0  0  0  0  0
  119.1845  106.2849  104.4402 H   0  0  0  0  0  0  0  0  0  0  0  0
  119.1348  103.8212  103.8637 H   0  0  0  0  0  0  0  0  0  0  0  0
  117.6737  102.9078  104.2362 H   0  0  0  0  0  0  0  0  0  0  0  0
  119.8386  104.2038  107.6684 H   0  0  0  0  0  0  0  0  0  0  0  0
  124.7243  108.1488  110.4148 H   0  0  0  0  0  0  0  0  0  0  0  0
  123.1439  107.7424  109.7097 H   0  0  0  0  0  0  0  0  0  0  0  0
  123.4234  109.3599  110.3901 H   0  0  0  0  0  0  0  0  0  0  0  0
  117.7088  105.7788  102.7408 H   0  0  0  0  0  0  0  0  0  0  0  0
  116.6698  104.3569  102.8545 H   0  0  0  0  0  0  0  0  0  0  0  0
  123.3683  103.8781  105.0627 H   0  0  0  0  0  0  0  0  0  0  0  0
  123.6907  102.6269  106.2638 H   0  0  0  0  0  0  0  0  0  0  0  0
  121.6879  103.1417  107.3574 H   0  0  0  0  0  0  0  0  0  0  0  0
  123.6292  109.3956  107.9008 H   0  0  0  0  0  0  0  0  0  0  0  0
  1  2  3  0  0  0  0
  2 14  1  0  0  0  0
  3  4  1  0  0  0  0
  3  5  2  0  0  0  0
  4  6  2  0  0  0  0
  5 15  1  0  0  0  0
  5 22  1  0  0  0  0
  6 22  1  0  0  0  0
  6 23  1  0  0  0  0
  7 12  1  0  0  0  0
  7 17  1  0  0  0  0
  7 19  2  0  0  0  0
  8 10  1  0  0  0  0
  8 12  1  0  0  0  0
  9 11  1  0  0  0  0
  9 12  1  0  0  0  0
 10 16  1  0  0  0  0
 11 16  1  0  0  0  0
 13 18  1  0  0  0  0
 14 16  1  0  0  0  0
 15 17  1  0  0  0  0
 18 23  1  0  0  0  0
 20 23  2  0  0  0  0
 21 23  2  0  0  0  0
  1 24  1  0  0  0  0
  3 25  1  0  0  0  0
  4 26  1  0  0  0  0
  8 27  1  0  0  0  0
  8 28  1  0  0  0  0
  9 29  1  0  0  0  0
  9 30  1  0  0  0  0
 10 31  1  0  0  0  0
 10 32  1  0  0  0  0
 11 33  1  0  0  0  0
 11 34  1  0  0  0  0
 12 35  1  0  0  0  0
 13 36  1  0  0  0  0
 13 37  1  0  0  0  0
 13 38  1  0  0  0  0
 14 39  1  0  0  0  0
 14 40  1  0  0  0  0
 15 41  1  0  0  0  0
 15 42  1  0  0  0  0
 17 43  1  0  0  0  0
 18 44  1  0  0  0  0
M  END
> <FRED Chemgauss4 score>
-11.184956

$$$$
C90893558	P142179225
  -OEChem-05122015313D

 37 39  0     1  0  0  0  0  0999 V2000
  124.0380  108.7722  108.9135 C   0  0  0  0  0  0  0  0  0  0  0  0
  125.0914  109.2659  108.1441 C   0  0  0  0  0  0  0  0  0  0  0  0
  123.7383  107.4100  108.8936 C   0  0  0  0  0  0  0  0  0  0  0  0
  118.4524  104.3345  106.9007 C   0  0  0  0  0  0  0  0  0  0  0  0
  117.8523  104.2112  105.6463 C   0  0  0  0  0  0  0  0  0  0  0  0
  119.9907  104.5752  104.5406 C   0  0  0  0  0  0  0  0  0  0  0  0
  125.5457  107.0353  107.3347 C   0  0  0  0  0  0  0  0  0  0  0  0
  120.5704  104.7050  105.7892 C   0  0  0  0  0  0  0  0  0  0  0  0
  125.8453  108.3975  107.3547 C   0  0  0  0  0  0  0  0  0  0  0  0
  124.4922  106.5416  108.1041 C   0  0  0  0  0  0  0  0  0  0  0  0
  119.8098  104.5874  106.9423 C   0  0  0  0  0  0  0  0  0  0  0  0
  118.6162  104.3321  104.4734 C   0  0  0  0  0  0  0  0  0  0  0  0
  121.9911  104.9026  106.1527 C   0  0  0  0  0  0  0  0  0  0  0  0
  121.8176  105.2447  107.6407 C   0  0  2  0  0  0  0  0  0  0  0  0
  125.2215  104.2170  107.6300 C   0  0  0  0  0  0  0  0  0  0  0  0
  122.9228  104.6611  108.5058 C   0  0  0  0  0  0  0  0  0  0  0  0
  126.9101  108.8970  106.5765 N   0  0  0  0  0  0  0  0  0  0  0  0
  124.1901  105.1635  108.0853 N   0  0  3  0  0  0  0  0  0  0  0  0
  120.5402  104.7244  108.0947 O   0  0  0  0  0  0  0  0  0  0  0  0
  118.0214  104.2040  103.2798 F   0  0  0  0  0  0  0  0  0  0  0  0
  123.4508  109.4482  109.5284 H   0  0  0  0  0  0  0  0  0  0  0  0
  125.3157  110.3294  108.1674 H   0  0  0  0  0  0  0  0  0  0  0  0
  122.9158  107.0355  109.4977 H   0  0  0  0  0  0  0  0  0  0  0  0
  117.8669  104.2366  107.8079 H   0  0  0  0  0  0  0  0  0  0  0  0
  116.7859  104.0163  105.5742 H   0  0  0  0  0  0  0  0  0  0  0  0
  120.5820  104.6528  103.6349 H   0  0  0  0  0  0  0  0  0  0  0  0
  126.1330  106.3577  106.7188 H   0  0  0  0  0  0  0  0  0  0  0  0
  122.5515  103.9742  106.0009 H   0  0  0  0  0  0  0  0  0  0  0  0
  122.4697  105.7196  105.6058 H   0  0  0  0  0  0  0  0  0  0  0  0
  121.7878  106.3347  107.7771 H   0  0  0  0  0  0  0  0  0  0  0  0
  124.8382  103.1943  107.6729 H   0  0  0  0  0  0  0  0  0  0  0  0
  126.1073  104.2879  108.2671 H   0  0  0  0  0  0  0  0  0  0  0  0
  125.5119  104.4411  106.6000 H   0  0  0  0  0  0  0  0  0  0  0  0
  122.9188  103.5816  108.4052 H   0  0  0  0  0  0  0  0  0  0  0  0
  122.7561  104.9427  109.5393 H   0  0  0  0  0  0  0  0  0  0  0  0
  127.0846  109.8816  106.5628 H   0  0  0  0  0  0  0  0  0  0  0  0
  127.4125  108.2720  105.9790 H   0  0  0  0  0  0  0  0  0  0  0  0
  1  2  1  0  0  0  0
  1  3  2  0  0  0  0
  2  9  2  0  0  0  0
  3 10  1  0  0  0  0
  4  5  2  0  0  0  0
  4 11  1  0  0  0  0
  5 12  1  0  0  0  0
  6  8  1  0  0  0  0
  6 12  2  0  0  0  0
  7  9  1  0  0  0  0
  7 10  2  0  0  0  0
  8 11  2  0  0  0  0
  8 13  1  0  0  0  0
  9 17  1  0  0  0  0
 10 18  1  0  0  0  0
 11 19  1  0  0  0  0
 12 20  1  0  0  0  0
 13 14  1  0  0  0  0
 14 16  1  0  0  0  0
 14 19  1  0  0  0  0
 15 18  1  0  0  0  0
 16 18  1  0  0  0  0
  1 21  1  0  0  0  0
  2 22  1  0  0  0  0
  3 23  1  0  0  0  0
  4 24  1  0  0  0  0
  5 25  1  0  0  0  0
  6 26  1  0  0  0  0
  7 27  1  0  0  0  0
 13 28  1  0  0  0  0
 13 29  1  0  0  0  0
 14 30  1  0  0  0  0
 15 31  1  0  0  0  0
 15 32  1  0  0  0  0
 15 33  1  0  0  0  0
 16 34  1  0  0  0  0
 16 35  1  0  0  0  0
 17 36  1  0  0  0  0
 17 37  1  0  0  0  0
M  END
> <FRED Chemgauss4 score>
-11.173792

$$$$
C71322065	P110268428
  -OEChem-05122015313D

 35 36  0     0  0  0  0  0  0999 V2000
  117.4549  106.7442  105.2352 C   0  0  0  0  0  0  0  0  0  0  0  0
  116.3880  107.2623  105.4250 C   0  0  0  0  0  0  0  0  0  0  0  0
  119.9370  106.8254  104.7535 C   0  0  0  0  0  0  0  0  0  0  0  0
  118.9024  104.7608  105.0164 C   0  0  0  0  0  0  0  0  0  0  0  0
  118.7220  106.1264  105.0091 C   0  0  0  0  0  0  0  0  0  0  0  0
  120.9999  105.9673  104.5754 C   0  0  0  0  0  0  0  0  0  0  0  0
  125.8078  104.5988  108.5193 C   0  0  0  0  0  0  0  0  0  0  0  0
  125.2100  104.9252  107.2470 C   0  0  0  0  0  0  0  0  0  0  0  0
  126.4222  105.5541  109.2250 C   0  0  0  0  0  0  0  0  0  0  0  0
  125.2595  106.1740  106.7573 C   0  0  0  0  0  0  0  0  0  0  0  0
  125.9476  107.2471  107.5448 C   0  0  0  0  0  0  0  0  0  0  0  0
  124.6276  106.4212  105.4590 C   0  0  0  0  0  0  0  0  0  0  0  0
  115.0822  107.8972  105.6581 C   0  0  0  0  0  0  0  0  0  0  0  0
  122.4347  106.3035  104.2884 C   0  0  0  0  0  0  0  0  0  0  0  0
  113.9489  106.8834  105.5834 C   0  0  0  0  0  0  0  0  0  0  0  0
  126.4919  106.8411  108.7543 N   0  0  0  0  0  0  0  0  0  0  0  0
  123.2730  106.1363  105.4538 N   0  0  0  0  0  0  0  0  0  0  0  0
  126.0122  108.3997  107.1241 O   0  0  0  0  0  0  0  0  0  0  0  0
  125.2821  106.8416  104.5049 O   0  0  0  0  0  0  0  0  0  0  0  0
  114.1216  105.8990  106.5954 O   0  0  0  0  0  0  0  0  0  0  0  0
  120.5313  104.3263  104.7161 S   0  0  0  0  0  0  0  0  0  0  0  0
  120.0308  107.9035  104.7018 H   0  0  0  0  0  0  0  0  0  0  0  0
  118.1616  103.9902  105.1832 H   0  0  0  0  0  0  0  0  0  0  0  0
  125.7463  103.5789  108.8796 H   0  0  0  0  0  0  0  0  0  0  0  0
  124.7220  104.1153  106.7139 H   0  0  0  0  0  0  0  0  0  0  0  0
  126.8884  105.3690  110.1842 H   0  0  0  0  0  0  0  0  0  0  0  0
  115.0876  108.3806  106.6418 H   0  0  0  0  0  0  0  0  0  0  0  0
  114.9221  108.6753  104.9034 H   0  0  0  0  0  0  0  0  0  0  0  0
  122.8302  105.6617  103.4935 H   0  0  0  0  0  0  0  0  0  0  0  0
  122.5352  107.3400  103.9496 H   0  0  0  0  0  0  0  0  0  0  0  0
  112.9908  107.3825  105.7604 H   0  0  0  0  0  0  0  0  0  0  0  0
  113.9136  106.3852  104.6086 H   0  0  0  0  0  0  0  0  0  0  0  0
  126.9699  107.5270  109.3313 H   0  0  0  0  0  0  0  0  0  0  0  0
  122.8477  105.7932  106.3103 H   0  0  0  0  0  0  0  0  0  0  0  0
  113.3807  105.2779  106.5099 H   0  0  0  0  0  0  0  0  0  0  0  0
  1  2  3  0  0  0  0
  1  5  1  0  0  0  0
  2 13  1  0  0  0  0
  3  5  1  0  0  0  0
  3  6  2  0  0  0  0
  4  5  2  0  0  0  0
  4 21  1  0  0  0  0
  6 14  1  0  0  0  0
  6 21  1  0  0  0  0
  7  8  1  0  0  0  0
  7  9  2  0  0  0  0
  8 10  2  0  0  0  0
  9 16  1  0  0  0  0
 10 11  1  0  0  0  0
 10 12  1  0  0  0  0
 11 16  1  0  0  0  0
 11 18  2  0  0  0  0
 12 17  1  0  0  0  0
 12 19  2  0  0  0  0
 13 15  1  0  0  0  0
 14 17  1  0  0  0  0
 15 20  1  0  0  0  0
  3 22  1  0  0  0  0
  4 23  1  0  0  0  0
  7 24  1  0  0  0  0
  8 25  1  0  0  0  0
  9 26  1  0  0  0  0
 13 27  1  0  0  0  0
 13 28  1  0  0  0  0
 14 29  1  0  0  0  0
 14 30  1  0  0  0  0
 15 31  1  0  0  0  0
 15 32  1  0  0  0  0
 16 33  1  0  0  0  0
 17 34  1  0  0  0  0
 20 35  1  0  0  0  0
M  END
> <FRED Chemgauss4 score>
-11.172593

$$$$
C49350690	P84543526
  -OEChem-05122015313D

 29 29  0     1  0  0  0  0  0999 V2000
  123.4725  109.0071  111.3486 C   0  0  0  0  0  0  0  0  0  0  0  0
  123.1146  108.1185  113.2862 C   0  0  0  0  0  0  0  0  0  0  0  0
  123.2914  109.2486  109.9054 C   0  0  0  0  0  0  0  0  0  0  0  0
  125.4561  108.0924  107.1930 C   0  0  0  0  0  0  0  0  0  0  0  0
  124.9511  110.5430  107.3595 C   0  0  0  0  0  0  0  0  0  0  0  0
  125.7841  105.6313  107.0866 C   0  0  0  0  0  0  0  0  0  0  0  0
  124.4977  109.1421  107.7399 C   0  0  2  0  0  0  0  0  0  0  0  0
  125.1412  104.3628  107.5881 C   0  0  0  0  0  0  0  0  0  0  0  0
  124.3462  109.6179  112.0851 N   0  0  0  0  0  0  0  0  0  0  0  0
  122.6941  108.0974  111.9747 N   0  0  0  0  0  0  0  0  0  0  0  0
  124.1438  109.0743  113.3242 N   0  0  0  0  0  0  0  0  0  0  0  0
  124.4324  108.9829  109.1689 N   0  0  0  0  0  0  0  0  0  0  0  0
  125.0627  106.8034  107.5245 N   0  0  0  0  0  0  0  0  0  0  0  0
  122.6900  107.4540  114.2192 O   0  0  0  0  0  0  0  0  0  0  0  0
  122.2155  109.6415  109.4679 O   0  0  0  0  0  0  0  0  0  0  0  0
  126.4372  108.3722  106.5073 O   0  0  0  0  0  0  0  0  0  0  0  0
  125.8328  103.2824  107.1629 F   0  0  0  0  0  0  0  0  0  0  0  0
  125.1121  104.3247  108.9374 F   0  0  0  0  0  0  0  0  0  0  0  0
  123.8745  104.2406  107.1376 F   0  0  0  0  0  0  0  0  0  0  0  0
  125.9590  110.7502  107.7372 H   0  0  0  0  0  0  0  0  0  0  0  0
  124.9728  110.6714  106.2722 H   0  0  0  0  0  0  0  0  0  0  0  0
  124.2773  111.2980  107.7787 H   0  0  0  0  0  0  0  0  0  0  0  0
  125.8078  105.6461  105.9930 H   0  0  0  0  0  0  0  0  0  0  0  0
  126.8100  105.7165  107.4564 H   0  0  0  0  0  0  0  0  0  0  0  0
  123.4898  108.9536  107.3544 H   0  0  0  0  0  0  0  0  0  0  0  0
  121.9611  107.5221  111.5778 H   0  0  0  0  0  0  0  0  0  0  0  0
  124.7005  109.3717  114.1153 H   0  0  0  0  0  0  0  0  0  0  0  0
  125.2642  108.6598  109.6605 H   0  0  0  0  0  0  0  0  0  0  0  0
  124.2590  106.6664  108.1303 H   0  0  0  0  0  0  0  0  0  0  0  0
  1  3  1  0  0  0  0
  1  9  2  0  0  0  0
  1 10  1  0  0  0  0
  2 10  1  0  0  0  0
  2 11  1  0  0  0  0
  2 14  2  0  0  0  0
  3 12  1  0  0  0  0
  3 15  2  0  0  0  0
  4  7  1  0  0  0  0
  4 13  1  0  0  0  0
  4 16  2  0  0  0  0
  5  7  1  0  0  0  0
  6  8  1  0  0  0  0
  6 13  1  0  0  0  0
  7 12  1  0  0  0  0
  8 17  1  0  0  0  0
  8 18  1  0  0  0  0
  8 19  1  0  0  0  0
  9 11  1  0  0  0  0
  5 20  1  0  0  0  0
  5 21  1  0  0  0  0
  5 22  1  0  0  0  0
  6 23  1  0  0  0  0
  6 24  1  0  0  0  0
  7 25  1  0  0  0  0
 10 26  1  0  0  0  0
 11 27  1  0  0  0  0
 12 28  1  0  0  0  0
 13 29  1  0  0  0  0
M  END
> <FRED Chemgauss4 score>
-11.162252

$$$$
C76956266	P120080704
  -OEChem-05122015313D

 39 40  0     0  0  0  0  0  0999 V2000
  118.5718  103.8316  104.6191 C   0  0  0  0  0  0  0  0  0  0  0  0
  118.1572  105.0998  104.5688 C   0  0  0  0  0  0  0  0  0  0  0  0
  120.4908  105.2434  106.9139 C   0  0  0  0  0  0  0  0  0  0  0  0
  126.5731  108.2850  107.6642 C   0  0  0  0  0  0  0  0  0  0  0  0
  119.0486  103.4505  105.9817 C   0  0  0  0  0  0  0  0  0  0  0  0
  118.2852  105.7848  105.8892 C   0  0  0  0  0  0  0  0  0  0  0  0
  122.6137  106.6455  108.6068 C   0  0  0  0  0  0  0  0  0  0  0  0
  123.4248  104.5819  107.4358 C   0  0  0  0  0  0  0  0  0  0  0  0
  124.0722  107.0030  108.8985 C   0  0  0  0  0  0  0  0  0  0  0  0
  124.8565  105.0080  107.7652 C   0  0  0  0  0  0  0  0  0  0  0  0
  119.0817  104.7848  106.7336 C   0  0  0  0  0  0  0  0  0  0  0  0
  122.4320  105.1348  108.4581 C   0  0  0  0  0  0  0  0  0  0  0  0
  126.3495  106.8635  108.1261 C   0  0  0  0  0  0  0  0  0  0  0  0
  124.9658  106.4703  107.8607 N   0  0  0  0  0  0  0  0  0  0  0  0
  127.5193  108.9396  108.4233 N   0  0  0  0  0  0  0  0  0  0  0  0
  121.0776  104.8089  108.0869 N   0  0  0  0  0  0  0  0  0  0  0  0
  121.0141  105.9407  106.0528 O   0  0  0  0  0  0  0  0  0  0  0  0
  126.0110  108.7871  106.6948 O   0  0  0  0  0  0  0  0  0  0  0  0
  118.5450  103.1503  103.7810 H   0  0  0  0  0  0  0  0  0  0  0  0
  117.7530  105.5722  103.6851 H   0  0  0  0  0  0  0  0  0  0  0  0
  118.3368  102.7537  106.4373 H   0  0  0  0  0  0  0  0  0  0  0  0
  120.0299  102.9677  105.9338 H   0  0  0  0  0  0  0  0  0  0  0  0
  118.7931  106.7489  105.7848 H   0  0  0  0  0  0  0  0  0  0  0  0
  117.2890  105.9577  106.3105 H   0  0  0  0  0  0  0  0  0  0  0  0
  121.9876  107.0014  109.4314 H   0  0  0  0  0  0  0  0  0  0  0  0
  122.2843  107.1640  107.7024 H   0  0  0  0  0  0  0  0  0  0  0  0
  123.1667  104.9171  106.4275 H   0  0  0  0  0  0  0  0  0  0  0  0
  123.3689  103.4884  107.4384 H   0  0  0  0  0  0  0  0  0  0  0  0
  124.1802  108.0920  108.9871 H   0  0  0  0  0  0  0  0  0  0  0  0
  124.3393  106.5721  109.8714 H   0  0  0  0  0  0  0  0  0  0  0  0
  125.1338  104.5543  108.7248 H   0  0  0  0  0  0  0  0  0  0  0  0
  125.5479  104.6122  107.0095 H   0  0  0  0  0  0  0  0  0  0  0  0
  118.6447  104.6804  107.7361 H   0  0  0  0  0  0  0  0  0  0  0  0
  122.5981  104.6501  109.4259 H   0  0  0  0  0  0  0  0  0  0  0  0
  126.5283  106.7693  109.2006 H   0  0  0  0  0  0  0  0  0  0  0  0
  127.0147  106.1916  107.5768 H   0  0  0  0  0  0  0  0  0  0  0  0
  127.9839  108.4717  109.1944 H   0  0  0  0  0  0  0  0  0  0  0  0
  127.7885  109.9020  108.2453 H   0  0  0  0  0  0  0  0  0  0  0  0
  120.5288  104.2326  108.7175 H   0  0  0  0  0  0  0  0  0  0  0  0
  1  2  2  0  0  0  0
  1  5  1  0  0  0  0
  2  6  1  0  0  0  0
  3 11  1  0  0  0  0
  3 16  1  0  0  0  0
  3 17  2  0  0  0  0
  4 13  1  0  0  0  0
  4 15  1  0  0  0  0
  4 18  2  0  0  0  0
  5 11  1  0  0  0  0
  6 11  1  0  0  0  0
  7  9  1  0  0  0  0
  7 12  1  0  0  0  0
  8 10  1  0  0  0  0
  8 12  1  0  0  0  0
  9 14  1  0  0  0  0
 10 14  1  0  0  0  0
 12 16  1  0  0  0  0
 13 14  1  0  0  0  0
  1 19  1  0  0  0  0
  2 20  1  0  0  0  0
  5 21  1  0  0  0  0
  5 22  1  0  0  0  0
  6 23  1  0  0  0  0
  6 24  1  0  0  0  0
  7 25  1  0  0  0  0
  7 26  1  0  0  0  0
  8 27  1  0  0  0  0
  8 28  1  0  0  0  0
  9 29  1  0  0  0  0
  9 30  1  0  0  0  0
 10 31  1  0  0  0  0
 10 32  1  0  0  0  0
 11 33  1  0  0  0  0
 12 34  1  0  0  0  0
 13 35  1  0  0  0  0
 13 36  1  0  0  0  0
 15 37  1  0  0  0  0
 15 38  1  0  0  0  0
 16 39  1  0  0  0  0
M  END
> <FRED Chemgauss4 score>
-11.152962

$$$$
C87968908	P137595317
  -OEChem-05122015313D

 47 48  0     1  0  0  0  0  0999 V2000
  121.9774  105.8971  105.4693 C   0  0  0  0  0  0  0  0  0  0  0  0
  123.8587  106.5716  106.0036 C   0  0  0  0  0  0  0  0  0  0  0  0
  119.9436  107.0935  104.6789 C   0  0  0  0  0  0  0  0  0  0  0  0
  119.8256  104.6527  105.3475 C   0  0  0  0  0  0  0  0  0  0  0  0
  118.6084  106.9548  103.9481 C   0  0  0  0  0  0  0  0  0  0  0  0
  118.4906  104.5198  104.6151 C   0  0  0  0  0  0  0  0  0  0  0  0
  120.7000  105.7554  104.7274 C   0  0  0  0  0  0  0  0  0  0  0  0
  117.7355  105.8544  104.5655 C   0  0  0  0  0  0  0  0  0  0  0  0
  125.2990  106.9752  108.7823 C   0  0  0  0  0  0  0  0  0  0  0  0
  115.6694  107.0421  103.7862 C   0  0  0  0  0  0  0  0  0  0  0  0
  115.5528  104.6265  104.4476 C   0  0  0  0  0  0  0  0  0  0  0  0
  116.7318  105.2929  102.3376 C   0  0  0  0  0  0  0  0  0  0  0  0
  125.1689  107.2138  106.1750 C   0  0  2  0  0  0  0  0  0  0  0  0
  125.3401  107.9060  107.5720 C   0  0  2  0  0  0  0  0  0  0  0  0
  116.4288  105.7047  103.7881 C   0  0  0  0  0  0  0  0  0  0  0  0
  122.9427  106.7852  105.0931 N   0  0  0  0  0  0  0  0  0  0  0  0
  122.2541  105.1616  106.5502 N   0  0  0  0  0  0  0  0  0  0  0  0
  125.4616  108.1895  105.0924 N   0  0  0  0  0  0  0  0  0  0  0  0
  123.5278  105.6174  106.9128 O   0  0  0  0  0  0  0  0  0  0  0  0
  126.6121  108.5630  107.5864 O   0  0  0  0  0  0  0  0  0  0  0  0
  120.5547  107.8538  104.1765 H   0  0  0  0  0  0  0  0  0  0  0  0
  119.7635  107.4619  105.6977 H   0  0  0  0  0  0  0  0  0  0  0  0
  119.6378  104.8717  106.4072 H   0  0  0  0  0  0  0  0  0  0  0  0
  120.3530  103.6910  105.3174 H   0  0  0  0  0  0  0  0  0  0  0  0
  118.0783  107.9141  103.9807 H   0  0  0  0  0  0  0  0  0  0  0  0
  118.7976  106.7327  102.8900 H   0  0  0  0  0  0  0  0  0  0  0  0
  118.6736  104.1551  103.5962 H   0  0  0  0  0  0  0  0  0  0  0  0
  117.8777  103.7622  105.1181 H   0  0  0  0  0  0  0  0  0  0  0  0
  120.9509  105.4617  103.6996 H   0  0  0  0  0  0  0  0  0  0  0  0
  117.4846  106.1480  105.5936 H   0  0  0  0  0  0  0  0  0  0  0  0
  126.0400  106.1744  108.7072 H   0  0  0  0  0  0  0  0  0  0  0  0
  124.3061  106.5271  108.8984 H   0  0  0  0  0  0  0  0  0  0  0  0
  125.4984  107.5377  109.7013 H   0  0  0  0  0  0  0  0  0  0  0  0
  114.7256  106.9661  103.2348 H   0  0  0  0  0  0  0  0  0  0  0  0
  116.2662  107.8331  103.3180 H   0  0  0  0  0  0  0  0  0  0  0  0
  115.4340  107.3624  104.8073 H   0  0  0  0  0  0  0  0  0  0  0  0
  114.6083  104.5013  103.9062 H   0  0  0  0  0  0  0  0  0  0  0  0
  116.0626  103.6566  104.4569 H   0  0  0  0  0  0  0  0  0  0  0  0
  115.3108  104.8858  105.4844 H   0  0  0  0  0  0  0  0  0  0  0  0
  115.8077  105.1793  101.7595 H   0  0  0  0  0  0  0  0  0  0  0  0
  117.2703  104.3395  102.2960 H   0  0  0  0  0  0  0  0  0  0  0  0
  117.3486  106.0466  101.8351 H   0  0  0  0  0  0  0  0  0  0  0  0
  125.9874  106.4580  106.1125 H   0  0  0  0  0  0  0  0  0  0  0  0
  124.5790  108.6833  107.7052 H   0  0  0  0  0  0  0  0  0  0  0  0
  125.1529  107.9530  104.1876 H   0  0  0  0  0  0  0  0  0  0  0  0
  126.1118  108.8996  105.3002 H   0  0  0  0  0  0  0  0  0  0  0  0
  126.6548  109.0497  108.4220 H   0  0  0  0  0  0  0  0  0  0  0  0
  1  7  1  0  0  0  0
  1 16  1  0  0  0  0
  1 17  2  0  0  0  0
  2 13  1  0  0  0  0
  2 16  2  0  0  0  0
  2 19  1  0  0  0  0
  3  5  1  0  0  0  0
  3  7  1  0  0  0  0
  4  6  1  0  0  0  0
  4  7  1  0  0  0  0
  5  8  1  0  0  0  0
  6  8  1  0  0  0  0
  8 15  1  0  0  0  0
  9 14  1  0  0  0  0
 10 15  1  0  0  0  0
 11 15  1  0  0  0  0
 12 15  1  0  0  0  0
 13 14  1  0  0  0  0
 13 18  1  0  0  0  0
 14 20  1  0  0  0  0
 17 19  1  0  0  0  0
  3 21  1  0  0  0  0
  3 22  1  0  0  0  0
  4 23  1  0  0  0  0
  4 24  1  0  0  0  0
  5 25  1  0  0  0  0
  5 26  1  0  0  0  0
  6 27  1  0  0  0  0
  6 28  1  0  0  0  0
  7 29  1  0  0  0  0
  8 30  1  0  0  0  0
  9 31  1  0  0  0  0
  9 32  1  0  0  0  0
  9 33  1  0  0  0  0
 10 34  1  0  0  0  0
 10 35  1  0  0  0  0
 10 36  1  0  0  0  0
 11 37  1  0  0  0  0
 11 38  1  0  0  0  0
 11 39  1  0  0  0  0
 12 40  1  0  0  0  0
 12 41  1  0  0  0  0
 12 42  1  0  0  0  0
 13 43  1  0  0  0  0
 14 44  1  0  0  0  0
 18 45  1  0  0  0  0
 18 46  1  0  0  0  0
 20 47  1  0  0  0  0
M  END
> <FRED Chemgauss4 score>
-11.152721

$$$$
C87213202	P136472540
  -OEChem-05122015313D

 41 43  0     1  0  0  0  0  0999 V2000
  125.0127  107.4325  107.2377 C   0  0  0  0  0  0  0  0  0  0  0  0
  124.9941  108.7129  107.7995 C   0  0  0  0  0  0  0  0  0  0  0  0
  123.4250  106.5952  108.9016 C   0  0  0  0  0  0  0  0  0  0  0  0
  124.2369  106.3855  107.7824 C   0  0  0  0  0  0  0  0  0  0  0  0
  124.1876  108.8949  108.9000 C   0  0  0  0  0  0  0  0  0  0  0  0
  123.4233  107.8632  109.4369 C   0  0  0  0  0  0  0  0  0  0  0  0
  123.0492  109.7363  110.6995 C   0  0  0  0  0  0  0  0  0  0  0  0
  118.5359  104.6025  104.9163 C   0  0  0  0  0  0  0  0  0  0  0  0
  119.4012  104.0620  106.0269 C   0  0  0  0  0  0  0  0  0  0  0  0
  119.2738  105.8675  104.5323 C   0  0  0  0  0  0  0  0  0  0  0  0
  120.7920  104.3999  105.5185 C   0  0  2  0  0  0  0  0  0  0  0  0
  125.4482  103.8045  108.8545 C   0  0  0  0  0  0  0  0  0  0  0  0
  121.8200  104.5497  106.6231 C   0  0  0  0  0  0  0  0  0  0  0  0
  123.2119  104.8460  106.0553 C   0  0  0  0  0  0  0  0  0  0  0  0
  124.2863  105.0330  107.1512 C   0  0  2  0  0  0  0  0  0  0  0  0
  123.9706  110.0449  109.6591 N   0  0  0  0  0  0  0  0  0  0  0  0
  122.7226  108.3602  110.5359 N   0  0  0  0  0  0  0  0  0  0  0  0
  124.1734  104.0123  108.1775 N   0  0  0  0  0  0  0  0  0  0  0  0
  122.6252  110.4970  111.5576 O   0  0  0  0  0  0  0  0  0  0  0  0
  120.6654  105.6376  104.7984 O   0  0  0  0  0  0  0  0  0  0  0  0
  125.6369  107.2462  106.3664 H   0  0  0  0  0  0  0  0  0  0  0  0
  125.5891  109.5165  107.3824 H   0  0  0  0  0  0  0  0  0  0  0  0
  122.8265  105.7978  109.3271 H   0  0  0  0  0  0  0  0  0  0  0  0
  118.5312  103.9013  104.0734 H   0  0  0  0  0  0  0  0  0  0  0  0
  117.5003  104.7859  105.2140 H   0  0  0  0  0  0  0  0  0  0  0  0
  119.1809  104.5976  106.9583 H   0  0  0  0  0  0  0  0  0  0  0  0
  119.2617  102.9921  106.2049 H   0  0  0  0  0  0  0  0  0  0  0  0
  119.1379  106.1295  103.4793 H   0  0  0  0  0  0  0  0  0  0  0  0
  118.9533  106.7151  105.1475 H   0  0  0  0  0  0  0  0  0  0  0  0
  121.1269  103.6414  104.8001 H   0  0  0  0  0  0  0  0  0  0  0  0
  125.7839  104.7360  109.3176 H   0  0  0  0  0  0  0  0  0  0  0  0
  126.2064  103.4737  108.1395 H   0  0  0  0  0  0  0  0  0  0  0  0
  125.3436  103.0428  109.6318 H   0  0  0  0  0  0  0  0  0  0  0  0
  121.5049  105.3567  107.2942 H   0  0  0  0  0  0  0  0  0  0  0  0
  121.8481  103.6268  107.2141 H   0  0  0  0  0  0  0  0  0  0  0  0
  123.5119  104.0160  105.4020 H   0  0  0  0  0  0  0  0  0  0  0  0
  123.1568  105.7416  105.4228 H   0  0  0  0  0  0  0  0  0  0  0  0
  125.2729  104.8546  106.6868 H   0  0  0  0  0  0  0  0  0  0  0  0
  124.4038  110.9438  109.4872 H   0  0  0  0  0  0  0  0  0  0  0  0
  122.0874  107.8305  111.1201 H   0  0  0  0  0  0  0  0  0  0  0  0
  123.8760  103.1330  107.7516 H   0  0  0  0  0  0  0  0  0  0  0  0
  1  2  2  0  0  0  0
  1  4  1  0  0  0  0
  2  5  1  0  0  0  0
  3  4  2  0  0  0  0
  3  6  1  0  0  0  0
  4 15  1  0  0  0  0
  5  6  2  0  0  0  0
  5 16  1  0  0  0  0
  6 17  1  0  0  0  0
  7 16  1  0  0  0  0
  7 17  1  0  0  0  0
  7 19  2  0  0  0  0
  8  9  1  0  0  0  0
  8 10  1  0  0  0  0
  9 11  1  0  0  0  0
 10 20  1  0  0  0  0
 11 13  1  0  0  0  0
 11 20  1  0  0  0  0
 12 18  1  0  0  0  0
 13 14  1  0  0  0  0
 14 15  1  0  0  0  0
 15 18  1  0  0  0  0
  1 21  1  0  0  0  0
  2 22  1  0  0  0  0
  3 23  1  0  0  0  0
  8 24  1  0  0  0  0
  8 25  1  0  0  0  0
  9 26  1  0  0  0  0
  9 27  1  0  0  0  0
 10 28  1  0  0  0  0
 10 29  1  0  0  0  0
 11 30  1  0  0  0  0
 12 31  1  0  0  0  0
 12 32  1  0  0  0  0
 12 33  1  0  0  0  0
 13 34  1  0  0  0  0
 13 35  1  0  0  0  0
 14 36  1  0  0  0  0
 14 37  1  0  0  0  0
 15 38  1  0  0  0  0
 16 39  1  0  0  0  0
 17 40  1  0  0  0  0
 18 41  1  0  0  0  0
M  END
> <FRED Chemgauss4 score>
-11.150668

$$$$
C39860161	P60482376
  -OEChem-05122015313D

 37 39  0     0  0  0  0  0  0999 V2000
  125.0289  105.5284  108.9359 C   0  0  0  0  0  0  0  0  0  0  0  0
  124.1337  106.0376  107.9951 C   0  0  0  0  0  0  0  0  0  0  0  0
  116.1630  106.7468  102.6436 C   0  0  0  0  0  0  0  0  0  0  0  0
  116.8787  107.7333  103.3219 C   0  0  0  0  0  0  0  0  0  0  0  0
  125.7467  104.3652  108.6574 C   0  0  0  0  0  0  0  0  0  0  0  0
  124.6739  104.2204  106.4974 C   0  0  0  0  0  0  0  0  0  0  0  0
  117.6455  105.0593  103.5333 C   0  0  0  0  0  0  0  0  0  0  0  0
  123.9562  105.3836  106.7759 C   0  0  0  0  0  0  0  0  0  0  0  0
  116.5464  105.4098  102.7493 C   0  0  0  0  0  0  0  0  0  0  0  0
  117.9779  107.3828  104.1059 C   0  0  0  0  0  0  0  0  0  0  0  0
  118.3613  106.0458  104.2117 C   0  0  0  0  0  0  0  0  0  0  0  0
  125.5692  103.7112  107.4382 C   0  0  0  0  0  0  0  0  0  0  0  0
  121.7261  105.6028  105.7612 C   0  0  0  0  0  0  0  0  0  0  0  0
  120.7815  106.1511  104.7579 C   0  0  0  0  0  0  0  0  0  0  0  0
  119.3619  104.7916  106.0968 C   0  0  0  0  0  0  0  0  0  0  0  0
  123.0229  105.9153  105.7952 C   0  0  0  0  0  0  0  0  0  0  0  0
  115.7804  104.3556  102.0238 C   0  0  0  0  0  0  0  0  0  0  0  0
  118.7265  108.4607  104.8206 C   0  0  0  0  0  0  0  0  0  0  0  0
  119.4922  105.6639  105.0163 N   0  0  0  0  0  0  0  0  0  0  0  0
  121.1630  106.8671  103.8407 O   0  0  0  0  0  0  0  0  0  0  0  0
  118.3603  104.2830  106.5775 O   0  0  0  0  0  0  0  0  0  0  0  0
  126.2584  102.5942  107.1710 F   0  0  0  0  0  0  0  0  0  0  0  0
  120.9400  104.5260  106.8326 S   0  0  0  0  0  0  0  0  0  0  0  0
  125.1674  106.0373  109.8853 H   0  0  0  0  0  0  0  0  0  0  0  0
  123.5809  106.9449  108.2269 H   0  0  0  0  0  0  0  0  0  0  0  0
  115.3080  107.0291  102.0350 H   0  0  0  0  0  0  0  0  0  0  0  0
  116.5714  108.7720  103.2331 H   0  0  0  0  0  0  0  0  0  0  0  0
  126.4444  103.9690  109.3892 H   0  0  0  0  0  0  0  0  0  0  0  0
  124.5469  103.6991  105.5518 H   0  0  0  0  0  0  0  0  0  0  0  0
  117.9423  104.0158  103.6140 H   0  0  0  0  0  0  0  0  0  0  0  0
  123.4136  106.6207  105.0803 H   0  0  0  0  0  0  0  0  0  0  0  0
  116.2013  104.1981  101.0232 H   0  0  0  0  0  0  0  0  0  0  0  0
  115.8048  103.4012  102.5657 H   0  0  0  0  0  0  0  0  0  0  0  0
  114.7236  104.6333  101.9172 H   0  0  0  0  0  0  0  0  0  0  0  0
  118.2994  108.6222  105.8168 H   0  0  0  0  0  0  0  0  0  0  0  0
  119.7858  108.1997  104.9317 H   0  0  0  0  0  0  0  0  0  0  0  0
  118.6863  109.4054  104.2648 H   0  0  0  0  0  0  0  0  0  0  0  0
  1  2  2  0  0  0  0
  1  5  1  0  0  0  0
  2  8  1  0  0  0  0
  3  4  2  0  0  0  0
  3  9  1  0  0  0  0
  4 10  1  0  0  0  0
  5 12  2  0  0  0  0
  6  8  2  0  0  0  0
  6 12  1  0  0  0  0
  7  9  2  0  0  0  0
  7 11  1  0  0  0  0
  8 16  1  0  0  0  0
  9 17  1  0  0  0  0
 10 11  2  0  0  0  0
 10 18  1  0  0  0  0
 11 19  1  0  0  0  0
 12 22  1  0  0  0  0
 13 14  1  0  0  0  0
 13 16  2  0  0  0  0
 13 23  1  0  0  0  0
 14 19  1  0  0  0  0
 14 20  2  0  0  0  0
 15 19  1  0  0  0  0
 15 21  2  0  0  0  0
 15 23  1  0  0  0  0
  1 24  1  0  0  0  0
  2 25  1  0  0  0  0
  3 26  1  0  0  0  0
  4 27  1  0  0  0  0
  5 28  1  0  0  0  0
  6 29  1  0  0  0  0
  7 30  1  0  0  0  0
 16 31  1  0  0  0  0
 17 32  1  0  0  0  0
 17 33  1  0  0  0  0
 17 34  1  0  0  0  0
 18 35  1  0  0  0  0
 18 36  1  0  0  0  0
 18 37  1  0  0  0  0
M  END
> <FRED Chemgauss4 score>
-11.130579

$$$$
C89021442	P139237345
  -OEChem-05122015313D

 40 41  0     1  0  0  0  0  0999 V2000
  118.5919  103.7250  105.4234 C   0  0  0  0  0  0  0  0  0  0  0  0
  119.6239  104.2278  106.2675 C   0  0  0  0  0  0  0  0  0  0  0  0
  117.6868  104.7029  105.0741 C   0  0  0  0  0  0  0  0  0  0  0  0
  119.4682  105.5710  106.5309 C   0  0  0  0  0  0  0  0  0  0  0  0
  124.6232  108.5012  108.6918 C   0  0  0  0  0  0  0  0  0  0  0  0
  125.8946  107.6588  108.7600 C   0  0  0  0  0  0  0  0  0  0  0  0
  123.8917  108.2945  107.3706 C   0  0  0  0  0  0  0  0  0  0  0  0
  124.8335  106.0127  107.1708 C   0  0  0  0  0  0  0  0  0  0  0  0
  125.5831  106.1792  108.4979 C   0  0  1  0  0  0  0  0  0  0  0  0
  116.4857  104.5826  104.2194 C   0  0  0  0  0  0  0  0  0  0  0  0
  120.3392  106.4695  107.3727 C   0  0  0  0  0  0  0  0  0  0  0  0
  126.8645  105.3488  108.5019 C   0  0  0  0  0  0  0  0  0  0  0  0
  121.1784  107.2777  106.4989 N   0  5  0  0  0  0  0  0  0  0  0  0
  123.5928  106.8444  107.1875 N   0  0  2  0  0  0  0  0  0  0  0  0
  127.5338  105.5163  109.8080 N   0  3  0  0  0  0  0  0  0  0  0  0
  122.3225  105.0222  105.9833 O   0  0  0  0  0  0  0  0  0  0  0  0
  123.0381  107.0217  104.7292 O   0  0  0  0  0  0  0  0  0  0  0  0
  118.0824  106.2201  105.7625 S   0  0  0  0  0  0  0  0  0  0  0  0
  122.4526  106.4820  105.9598 S   0  0  0  0  0  0  0  0  0  0  0  0
  118.5217  102.6972  105.0905 H   0  0  0  0  0  0  0  0  0  0  0  0
  120.4383  103.6311  106.6581 H   0  0  0  0  0  0  0  0  0  0  0  0
  123.9630  108.2269  109.5241 H   0  0  0  0  0  0  0  0  0  0  0  0
  124.8744  109.5607  108.8143 H   0  0  0  0  0  0  0  0  0  0  0  0
  126.6161  108.0286  108.0203 H   0  0  0  0  0  0  0  0  0  0  0  0
  126.3584  107.7773  109.7464 H   0  0  0  0  0  0  0  0  0  0  0  0
  122.9542  108.8608  107.3903 H   0  0  0  0  0  0  0  0  0  0  0  0
  124.4969  108.6557  106.5312 H   0  0  0  0  0  0  0  0  0  0  0  0
  125.4613  106.3091  106.3218 H   0  0  0  0  0  0  0  0  0  0  0  0
  124.5565  104.9599  107.0415 H   0  0  0  0  0  0  0  0  0  0  0  0
  124.9384  105.8160  109.3098 H   0  0  0  0  0  0  0  0  0  0  0  0
  115.5995  104.3222  104.8191 H   0  0  0  0  0  0  0  0  0  0  0  0
  116.2671  105.5207  103.6836 H   0  0  0  0  0  0  0  0  0  0  0  0
  116.6087  103.8080  103.4447 H   0  0  0  0  0  0  0  0  0  0  0  0
  119.7099  107.0913  108.0213 H   0  0  0  0  0  0  0  0  0  0  0  0
  120.9434  105.8549  108.0510 H   0  0  0  0  0  0  0  0  0  0  0  0
  127.5534  105.6898  107.7314 H   0  0  0  0  0  0  0  0  0  0  0  0
  126.6442  104.2903  108.3768 H   0  0  0  0  0  0  0  0  0  0  0  0
  128.4522  105.0549  109.8188 H   0  0  0  0  0  0  0  0  0  0  0  0
  126.9735  105.1109  110.5687 H   0  0  0  0  0  0  0  0  0  0  0  0
  127.6824  106.5097  110.0267 H   0  0  0  0  0  0  0  0  0  0  0  0
  1  2  1  0  0  0  0
  1  3  2  0  0  0  0
  2  4  2  0  0  0  0
  3 10  1  0  0  0  0
  3 18  1  0  0  0  0
  4 11  1  0  0  0  0
  4 18  1  0  0  0  0
  5  6  1  0  0  0  0
  5  7  1  0  0  0  0
  6  9  1  0  0  0  0
  7 14  1  0  0  0  0
  8  9  1  0  0  0  0
  8 14  1  0  0  0  0
  9 12  1  0  0  0  0
 11 13  1  0  0  0  0
 12 15  1  0  0  0  0
 13 19  1  0  0  0  0
 14 19  1  0  0  0  0
 16 19  2  0  0  0  0
 17 19  2  0  0  0  0
  1 20  1  0  0  0  0
  2 21  1  0  0  0  0
  5 22  1  0  0  0  0
  5 23  1  0  0  0  0
  6 24  1  0  0  0  0
  6 25  1  0  0  0  0
  7 26  1  0  0  0  0
  7 27  1  0  0  0  0
  8 28  1  0  0  0  0
  8 29  1  0  0  0  0
  9 30  1  0  0  0  0
 10 31  1  0  0  0  0
 10 32  1  0  0  0  0
 10 33  1  0  0  0  0
 11 34  1  0  0  0  0
 11 35  1  0  0  0  0
 12 36  1  0  0  0  0
 12 37  1  0  0  0  0
 15 38  1  0  0  0  0
 15 39  1  0  0  0  0
 15 40  1  0  0  0  0
M  CHG  2  13  -1  15   1
M  END
> <FRED Chemgauss4 score>
-11.128736

$$$$
C51113447	P76540543
  -OEChem-05122015313D

 35 36  0     0  0  0  0  0  0999 V2000
  118.3634  105.6248  103.9817 C   0  0  0  0  0  0  0  0  0  0  0  0
  117.3214  104.5232  105.8627 C   0  0  0  0  0  0  0  0  0  0  0  0
  117.1858  105.4850  103.2475 C   0  0  0  0  0  0  0  0  0  0  0  0
  116.1437  104.3835  105.1284 C   0  0  0  0  0  0  0  0  0  0  0  0
  125.9378  104.4105  108.2441 C   0  0  0  0  0  0  0  0  0  0  0  0
  126.0836  105.5271  109.0598 C   0  0  0  0  0  0  0  0  0  0  0  0
  118.4313  105.1438  105.2894 C   0  0  0  0  0  0  0  0  0  0  0  0
  116.0759  104.8644  103.8208 C   0  0  0  0  0  0  0  0  0  0  0  0
  124.8406  104.3149  107.3955 C   0  0  0  0  0  0  0  0  0  0  0  0
  123.9248  105.3546  107.3999 C   0  0  0  0  0  0  0  0  0  0  0  0
  125.1122  106.5126  108.9896 C   0  0  0  0  0  0  0  0  0  0  0  0
  122.7214  105.3439  106.5288 C   0  0  0  0  0  0  0  0  0  0  0  0
  119.6898  105.2945  106.0754 C   0  0  0  0  0  0  0  0  0  0  0  0
  120.6550  104.1129  105.9197 C   0  0  0  0  0  0  0  0  0  0  0  0
  124.0326  106.4549  108.1779 N   0  0  0  0  0  0  0  0  0  0  0  0
  124.2470  108.5281  110.0439 N   0  0  0  0  0  0  0  0  0  0  0  0
  125.2729  107.6434  109.8283 N   0  0  0  0  0  0  0  0  0  0  0  0
  121.8497  104.2761  106.7040 N   0  0  0  0  0  0  0  0  0  0  0  0
  122.5691  106.2420  105.7049 O   0  0  0  0  0  0  0  0  0  0  0  0
  114.6232  104.6923  102.9148 Cl  0  0  0  0  0  0  0  0  0  0  0  0
  124.6636  102.9307  106.3886 Cl  0  0  0  0  0  0  0  0  0  0  0  0
  119.2239  106.1093  103.5279 H   0  0  0  0  0  0  0  0  0  0  0  0
  117.3660  104.1460  106.8810 H   0  0  0  0  0  0  0  0  0  0  0  0
  117.1476  105.8649  102.2298 H   0  0  0  0  0  0  0  0  0  0  0  0
  115.2869  103.8977  105.5881 H   0  0  0  0  0  0  0  0  0  0  0  0
  126.6868  103.6237  108.2808 H   0  0  0  0  0  0  0  0  0  0  0  0
  126.9363  105.6096  109.7257 H   0  0  0  0  0  0  0  0  0  0  0  0
  119.4419  105.4053  107.1445 H   0  0  0  0  0  0  0  0  0  0  0  0
  120.2096  106.2286  105.8014 H   0  0  0  0  0  0  0  0  0  0  0  0
  120.1820  103.1844  106.2545 H   0  0  0  0  0  0  0  0  0  0  0  0
  120.9601  103.9836  104.8761 H   0  0  0  0  0  0  0  0  0  0  0  0
  124.6265  109.4719  109.9867 H   0  0  0  0  0  0  0  0  0  0  0  0
  123.9178  108.4151  111.0018 H   0  0  0  0  0  0  0  0  0  0  0  0
  126.0813  107.6703  110.4281 H   0  0  0  0  0  0  0  0  0  0  0  0
  122.0799  103.5379  107.3660 H   0  0  0  0  0  0  0  0  0  0  0  0
  1  3  1  0  0  0  0
  1  7  2  0  0  0  0
  2  4  2  0  0  0  0
  2  7  1  0  0  0  0
  3  8  2  0  0  0  0
  4  8  1  0  0  0  0
  5  6  1  0  0  0  0
  5  9  2  0  0  0  0
  6 11  2  0  0  0  0
  7 13  1  0  0  0  0
  8 20  1  0  0  0  0
  9 10  1  0  0  0  0
  9 21  1  0  0  0  0
 10 12  1  0  0  0  0
 10 15  2  0  0  0  0
 11 15  1  0  0  0  0
 11 17  1  0  0  0  0
 12 18  1  0  0  0  0
 12 19  2  0  0  0  0
 13 14  1  0  0  0  0
 14 18  1  0  0  0  0
 16 17  1  0  0  0  0
  1 22  1  0  0  0  0
  2 23  1  0  0  0  0
  3 24  1  0  0  0  0
  4 25  1  0  0  0  0
  5 26  1  0  0  0  0
  6 27  1  0  0  0  0
 13 28  1  0  0  0  0
 13 29  1  0  0  0  0
 14 30  1  0  0  0  0
 14 31  1  0  0  0  0
 16 32  1  0  0  0  0
 16 33  1  0  0  0  0
 17 34  1  0  0  0  0
 18 35  1  0  0  0  0
M  END
> <FRED Chemgauss4 score>
-11.105530

$$$$
C88171488	P137890117
  -OEChem-05122015313D

 35 35  0     0  0  0  0  0  0999 V2000
  118.8067  104.2915  103.8895 C   0  0  0  0  0  0  0  0  0  0  0  0
  117.7174  104.1050  106.0380 C   0  0  0  0  0  0  0  0  0  0  0  0
  120.1277  104.2106  105.9107 C   0  0  0  0  0  0  0  0  0  0  0  0
  120.0504  104.2998  104.5208 C   0  0  0  0  0  0  0  0  0  0  0  0
  118.9612  104.1132  106.6693 C   0  0  0  0  0  0  0  0  0  0  0  0
  117.6401  104.1941  104.6481 C   0  0  0  0  0  0  0  0  0  0  0  0
  124.9553  107.1287  108.3286 C   0  0  0  0  0  0  0  0  0  0  0  0
  124.1113  107.3903  105.9826 C   0  0  0  0  0  0  0  0  0  0  0  0
  125.6808  105.5236  106.4660 C   0  0  0  0  0  0  0  0  0  0  0  0
  123.3050  105.4391  107.3539 C   0  0  0  0  0  0  0  0  0  0  0  0
  122.4612  105.0658  106.1324 C   0  0  0  0  0  0  0  0  0  0  0  0
  124.5206  106.3550  107.0502 C   0  0  0  0  0  0  0  0  0  0  0  0
  124.0730  107.9038  108.8941 N   0  0  0  0  0  0  0  0  0  0  0  0
  126.2474  106.9307  108.7691 N   0  0  0  0  0  0  0  0  0  0  0  0
  121.3624  104.2189  106.5378 N   0  0  0  0  0  0  0  0  0  0  0  0
  124.6186  108.5215  110.0231 O   0  0  0  0  0  0  0  0  0  0  0  0
  121.1653  104.3936  103.7822 F   0  0  0  0  0  0  0  0  0  0  0  0
  119.0237  104.0280  108.0057 F   0  0  0  0  0  0  0  0  0  0  0  0
  115.9552  104.1844  103.7929 Br  0  0  0  0  0  0  0  0  0  0  0  0
  118.7639  104.3624  102.8058 H   0  0  0  0  0  0  0  0  0  0  0  0
  116.8184  104.0289  106.6440 H   0  0  0  0  0  0  0  0  0  0  0  0
  123.7942  106.8994  105.0555 H   0  0  0  0  0  0  0  0  0  0  0  0
  123.2806  108.0192  106.3209 H   0  0  0  0  0  0  0  0  0  0  0  0
  124.9465  108.0584  105.7420 H   0  0  0  0  0  0  0  0  0  0  0  0
  125.3833  104.9757  105.5657 H   0  0  0  0  0  0  0  0  0  0  0  0
  126.5314  106.1625  106.2028 H   0  0  0  0  0  0  0  0  0  0  0  0
  126.0379  104.7803  107.1889 H   0  0  0  0  0  0  0  0  0  0  0  0
  123.6453  104.5159  107.8414 H   0  0  0  0  0  0  0  0  0  0  0  0
  122.6557  105.9332  108.0903 H   0  0  0  0  0  0  0  0  0  0  0  0
  123.0596  104.5305  105.3894 H   0  0  0  0  0  0  0  0  0  0  0  0
  122.0509  105.9598  105.6543 H   0  0  0  0  0  0  0  0  0  0  0  0
  126.8953  106.3112  108.2956 H   0  0  0  0  0  0  0  0  0  0  0  0
  126.5891  107.4045  109.5983 H   0  0  0  0  0  0  0  0  0  0  0  0
  121.5064  103.5965  107.3242 H   0  0  0  0  0  0  0  0  0  0  0  0
  123.8684  109.0553  110.3350 H   0  0  0  0  0  0  0  0  0  0  0  0
  1  4  2  0  0  0  0
  1  6  1  0  0  0  0
  2  5  1  0  0  0  0
  2  6  2  0  0  0  0
  3  4  1  0  0  0  0
  3  5  2  0  0  0  0
  3 15  1  0  0  0  0
  4 17  1  0  0  0  0
  5 18  1  0  0  0  0
  6 19  1  0  0  0  0
  7 12  1  0  0  0  0
  7 13  2  0  0  0  0
  7 14  1  0  0  0  0
  8 12  1  0  0  0  0
  9 12  1  0  0  0  0
 10 11  1  0  0  0  0
 10 12  1  0  0  0  0
 11 15  1  0  0  0  0
 13 16  1  0  0  0  0
  1 20  1  0  0  0  0
  2 21  1  0  0  0  0
  8 22  1  0  0  0  0
  8 23  1  0  0  0  0
  8 24  1  0  0  0  0
  9 25  1  0  0  0  0
  9 26  1  0  0  0  0
  9 27  1  0  0  0  0
 10 28  1  0  0  0  0
 10 29  1  0  0  0  0
 11 30  1  0  0  0  0
 11 31  1  0  0  0  0
 14 32  1  0  0  0  0
 14 33  1  0  0  0  0
 15 34  1  0  0  0  0
 16 35  1  0  0  0  0
M  END
> <FRED Chemgauss4 score>
-11.099950

$$$$
C92782003	P145256586
  -OEChem-05122015313D

 35 36  0     1  0  0  0  0  0999 V2000
  127.2667  107.7726  107.2373 C   0  0  0  0  0  0  0  0  0  0  0  0
  126.0057  106.1068  106.8673 C   0  0  0  0  0  0  0  0  0  0  0  0
  125.8791  106.3818  108.2066 C   0  0  0  0  0  0  0  0  0  0  0  0
  122.8547  105.2711  107.9536 C   0  0  0  0  0  0  0  0  0  0  0  0
  118.9070  105.0637  105.5342 C   0  0  0  0  0  0  0  0  0  0  0  0
  125.2636  105.0229  106.1887 C   0  0  0  0  0  0  0  0  0  0  0  0
  125.0417  105.6296  109.1658 C   0  0  0  0  0  0  0  0  0  0  0  0
  124.1449  104.6373  108.3835 C   0  0  2  0  0  0  0  0  0  0  0  0
  117.5619  105.2425  103.4483 C   0  0  0  0  0  0  0  0  0  0  0  0
  120.2854  104.6427  106.0114 C   0  0  0  0  0  0  0  0  0  0  0  0
  120.4533  104.7967  107.5168 C   0  0  0  0  0  0  0  0  0  0  0  0
  126.8680  106.9792  106.2624 N   0  0  0  0  0  0  0  0  0  0  0  0
  126.6919  107.4480  108.4408 N   0  0  0  0  0  0  0  0  0  0  0  0
  124.7813  104.0404  107.1867 N   0  0  0  0  0  0  0  0  0  0  0  0
  121.7869  104.3956  107.9038 N   0  0  0  0  0  0  0  0  0  0  0  0
  118.7753  104.9156  104.1613 N   0  0  0  0  0  0  0  0  0  0  0  0
  122.8283  106.4671  107.6878 O   0  0  0  0  0  0  0  0  0  0  0  0
  118.0323  105.4792  106.2892 O   0  0  0  0  0  0  0  0  0  0  0  0
  127.9630  108.5935  107.1424 H   0  0  0  0  0  0  0  0  0  0  0  0
  124.4047  105.4267  105.6399 H   0  0  0  0  0  0  0  0  0  0  0  0
  125.9123  104.5186  105.4617 H   0  0  0  0  0  0  0  0  0  0  0  0
  125.6677  105.0801  109.8853 H   0  0  0  0  0  0  0  0  0  0  0  0
  124.4311  106.3378  109.7485 H   0  0  0  0  0  0  0  0  0  0  0  0
  123.8542  103.7908  109.0710 H   0  0  0  0  0  0  0  0  0  0  0  0
  116.9080  104.3679  103.3989 H   0  0  0  0  0  0  0  0  0  0  0  0
  117.7968  105.5642  102.4301 H   0  0  0  0  0  0  0  0  0  0  0  0
  117.0305  106.0510  103.9575 H   0  0  0  0  0  0  0  0  0  0  0  0
  120.4472  103.5973  105.7202 H   0  0  0  0  0  0  0  0  0  0  0  0
  121.0334  105.2493  105.4857 H   0  0  0  0  0  0  0  0  0  0  0  0
  119.7211  104.1814  108.0506 H   0  0  0  0  0  0  0  0  0  0  0  0
  120.2864  105.8365  107.8182 H   0  0  0  0  0  0  0  0  0  0  0  0
  126.8444  107.9149  109.3255 H   0  0  0  0  0  0  0  0  0  0  0  0
  124.0987  103.4194  106.7264 H   0  0  0  0  0  0  0  0  0  0  0  0
  121.9467  103.4236  108.1509 H   0  0  0  0  0  0  0  0  0  0  0  0
  119.5675  104.5614  103.6335 H   0  0  0  0  0  0  0  0  0  0  0  0
  1 12  2  0  0  0  0
  1 13  1  0  0  0  0
  2  3  2  0  0  0  0
  2  6  1  0  0  0  0
  2 12  1  0  0  0  0
  3  7  1  0  0  0  0
  3 13  1  0  0  0  0
  4  8  1  0  0  0  0
  4 15  1  0  0  0  0
  4 17  2  0  0  0  0
  5 10  1  0  0  0  0
  5 16  1  0  0  0  0
  5 18  2  0  0  0  0
  6 14  1  0  0  0  0
  7  8  1  0  0  0  0
  8 14  1  0  0  0  0
  9 16  1  0  0  0  0
 10 11  1  0  0  0  0
 11 15  1  0  0  0  0
  1 19  1  0  0  0  0
  6 20  1  0  0  0  0
  6 21  1  0  0  0  0
  7 22  1  0  0  0  0
  7 23  1  0  0  0  0
  8 24  1  0  0  0  0
  9 25  1  0  0  0  0
  9 26  1  0  0  0  0
  9 27  1  0  0  0  0
 10 28  1  0  0  0  0
 10 29  1  0  0  0  0
 11 30  1  0  0  0  0
 11 31  1  0  0  0  0
 13 32  1  0  0  0  0
 14 33  1  0  0  0  0
 15 34  1  0  0  0  0
 16 35  1  0  0  0  0
M  END
> <FRED Chemgauss4 score>
-11.098243

$$$$
C98340352	P156414816
  -OEChem-05122015313D

 36 38  0     1  0  0  0  0  0999 V2000
  125.5683  105.5382  108.5754 C   0  0  0  0  0  0  0  0  0  0  0  0
  116.4934  106.1754  104.9217 C   0  0  0  0  0  0  0  0  0  0  0  0
  118.4185  105.3365  104.6214 C   0  0  0  0  0  0  0  0  0  0  0  0
  117.9752  104.8278  105.8192 C   0  0  0  0  0  0  0  0  0  0  0  0
  124.6453  106.5612  108.6364 C   0  0  0  0  0  0  0  0  0  0  0  0
  123.3776  105.0278  107.7136 C   0  0  0  0  0  0  0  0  0  0  0  0
  121.0129  104.7924  106.8906 C   0  0  0  0  0  0  0  0  0  0  0  0
  125.3917  108.9205  108.1449 C   0  0  0  0  0  0  0  0  0  0  0  0
  119.7427  105.0227  104.0415 C   0  0  0  0  0  0  0  0  0  0  0  0
  118.6854  103.8752  106.7040 C   0  0  0  0  0  0  0  0  0  0  0  0
  120.3461  103.7707  104.7175 C   0  0  0  0  0  0  0  0  0  0  0  0
  120.1590  103.7321  106.2546 C   0  0  1  0  0  0  0  0  0  0  0  0
  124.8911  107.9132  109.1763 C   0  0  0  0  0  0  0  0  0  0  0  0
  117.4958  106.1797  104.0661 N   0  0  0  0  0  0  0  0  0  0  0  0
  123.3887  106.2705  108.1423 N   0  0  0  0  0  0  0  0  0  0  0  0
  116.7375  105.3682  106.0038 N   0  0  0  0  0  0  0  0  0  0  0  0
  126.7609  108.8989  107.9830 N   0  0  0  0  0  0  0  0  0  0  0  0
  122.2973  104.3220  107.1329 N   0  0  0  0  0  0  0  0  0  0  0  0
  120.5576  105.9064  107.1287 O   0  0  0  0  0  0  0  0  0  0  0  0
  124.6463  109.6745  107.5258 O   0  0  0  0  0  0  0  0  0  0  0  0
  124.8438  104.1507  107.8746 S   0  0  0  0  0  0  0  0  0  0  0  0
  126.5999  105.5358  108.8982 H   0  0  0  0  0  0  0  0  0  0  0  0
  115.5706  106.7287  104.8206 H   0  0  0  0  0  0  0  0  0  0  0  0
  119.6606  104.8555  102.9622 H   0  0  0  0  0  0  0  0  0  0  0  0
  120.4097  105.8795  104.1920 H   0  0  0  0  0  0  0  0  0  0  0  0
  118.6147  104.1940  107.7501 H   0  0  0  0  0  0  0  0  0  0  0  0
  118.1945  102.8973  106.6242 H   0  0  0  0  0  0  0  0  0  0  0  0
  119.8618  102.8796  104.2959 H   0  0  0  0  0  0  0  0  0  0  0  0
  121.4092  103.7025  104.4567 H   0  0  0  0  0  0  0  0  0  0  0  0
  120.5480  102.7797  106.6348 H   0  0  0  0  0  0  0  0  0  0  0  0
  123.9732  108.3364  109.6292 H   0  0  0  0  0  0  0  0  0  0  0  0
  125.6320  107.8845  109.9991 H   0  0  0  0  0  0  0  0  0  0  0  0
  116.1150  105.2065  106.7844 H   0  0  0  0  0  0  0  0  0  0  0  0
  127.3191  108.2506  108.5293 H   0  0  0  0  0  0  0  0  0  0  0  0
  127.2184  109.5218  107.3256 H   0  0  0  0  0  0  0  0  0  0  0  0
  122.4980  103.3604  106.8660 H   0  0  0  0  0  0  0  0  0  0  0  0
  1  5  2  0  0  0  0
  1 21  1  0  0  0  0
  2 14  2  0  0  0  0
  2 16  1  0  0  0  0
  3  4  2  0  0  0  0
  3  9  1  0  0  0  0
  3 14  1  0  0  0  0
  4 10  1  0  0  0  0
  4 16  1  0  0  0  0
  5 13  1  0  0  0  0
  5 15  1  0  0  0  0
  6 15  2  0  0  0  0
  6 18  1  0  0  0  0
  6 21  1  0  0  0  0
  7 12  1  0  0  0  0
  7 18  1  0  0  0  0
  7 19  2  0  0  0  0
  8 13  1  0  0  0  0
  8 17  1  0  0  0  0
  8 20  2  0  0  0  0
  9 11  1  0  0  0  0
 10 12  1  0  0  0  0
 11 12  1  0  0  0  0
  1 22  1  0  0  0  0
  2 23  1  0  0  0  0
  9 24  1  0  0  0  0
  9 25  1  0  0  0  0
 10 26  1  0  0  0  0
 10 27  1  0  0  0  0
 11 28  1  0  0  0  0
 11 29  1  0  0  0  0
 12 30  1  0  0  0  0
 13 31  1  0  0  0  0
 13 32  1  0  0  0  0
 16 33  1  0  0  0  0
 17 34  1  0  0  0  0
 17 35  1  0  0  0  0
 18 36  1  0  0  0  0
M  END
> <FRED Chemgauss4 score>
-11.093937

$$$$
C97776773	P155157615
  -OEChem-05122015313D

 42 43  0     1  0  0  0  0  0999 V2000
  121.8337  104.3531  106.2874 C   0  0  0  0  0  0  0  0  0  0  0  0
  121.2202  105.9074  104.5949 C   0  0  0  0  0  0  0  0  0  0  0  0
  123.0075  106.3944  105.9537 C   0  0  0  0  0  0  0  0  0  0  0  0
  120.9921  104.7007  105.2365 C   0  0  0  0  0  0  0  0  0  0  0  0
  122.8631  105.2107  106.6592 C   0  0  0  0  0  0  0  0  0  0  0  0
  116.7139  105.7372  105.9203 C   0  0  0  0  0  0  0  0  0  0  0  0
  115.7344  104.6344  105.5350 C   0  0  0  0  0  0  0  0  0  0  0  0
  118.0727  105.4986  105.2688 C   0  0  0  0  0  0  0  0  0  0  0  0
  116.3426  103.2613  105.7868 C   0  0  0  0  0  0  0  0  0  0  0  0
  118.5607  104.0746  105.5449 C   0  0  2  0  0  0  0  0  0  0  0  0
  125.8624  105.8242  108.1795 C   0  0  0  0  0  0  0  0  0  0  0  0
  125.5600  103.3732  107.6766 C   0  0  0  0  0  0  0  0  0  0  0  0
  119.8611  103.7883  104.8068 C   0  0  1  0  0  0  0  0  0  0  0  0
  125.0912  104.7886  107.3754 C   0  0  0  0  0  0  0  0  0  0  0  0
  122.2097  106.7663  104.9276 N   0  0  0  0  0  0  0  0  0  0  0  0
  120.6140  103.0118  102.7340 N   0  0  0  0  0  0  0  0  0  0  0  0
  119.6506  103.8519  103.3769 N   0  0  0  0  0  0  0  0  0  0  0  0
  117.5867  103.1241  105.1003 O   0  0  0  0  0  0  0  0  0  0  0  0
  123.6992  104.8980  107.6798 O   0  0  0  0  0  0  0  0  0  0  0  0
  121.6896  103.4154  106.8180 H   0  0  0  0  0  0  0  0  0  0  0  0
  120.5959  106.2315  103.7679 H   0  0  0  0  0  0  0  0  0  0  0  0
  123.7941  107.1008  106.2000 H   0  0  0  0  0  0  0  0  0  0  0  0
  116.3185  106.7140  105.6208 H   0  0  0  0  0  0  0  0  0  0  0  0
  116.8309  105.7568  107.0108 H   0  0  0  0  0  0  0  0  0  0  0  0
  114.7980  104.7448  106.0916 H   0  0  0  0  0  0  0  0  0  0  0  0
  115.5000  104.7324  104.4678 H   0  0  0  0  0  0  0  0  0  0  0  0
  117.9676  105.6493  104.1867 H   0  0  0  0  0  0  0  0  0  0  0  0
  118.7984  106.2334  105.6346 H   0  0  0  0  0  0  0  0  0  0  0  0
  116.4956  103.0831  106.8577 H   0  0  0  0  0  0  0  0  0  0  0  0
  115.6693  102.4823  105.4155 H   0  0  0  0  0  0  0  0  0  0  0  0
  118.7282  103.9312  106.6199 H   0  0  0  0  0  0  0  0  0  0  0  0
  125.7632  105.6466  109.2546 H   0  0  0  0  0  0  0  0  0  0  0  0
  126.9253  105.7963  107.9166 H   0  0  0  0  0  0  0  0  0  0  0  0
  125.5105  106.8378  107.9577 H   0  0  0  0  0  0  0  0  0  0  0  0
  125.4537  103.1372  108.7398 H   0  0  0  0  0  0  0  0  0  0  0  0
  126.6114  103.2518  107.3946 H   0  0  0  0  0  0  0  0  0  0  0  0
  124.9919  102.6380  107.0961 H   0  0  0  0  0  0  0  0  0  0  0  0
  120.1459  102.7474  105.0118 H   0  0  0  0  0  0  0  0  0  0  0  0
  125.2102  104.9932  106.3064 H   0  0  0  0  0  0  0  0  0  0  0  0
  121.2104  103.5802  102.1333 H   0  0  0  0  0  0  0  0  0  0  0  0
  121.2309  102.6103  103.4390 H   0  0  0  0  0  0  0  0  0  0  0  0
  118.7136  103.5141  103.1453 H   0  0  0  0  0  0  0  0  0  0  0  0
  1  4  2  0  0  0  0
  1  5  1  0  0  0  0
  2  4  1  0  0  0  0
  2 15  2  0  0  0  0
  3  5  2  0  0  0  0
  3 15  1  0  0  0  0
  4 13  1  0  0  0  0
  5 19  1  0  0  0  0
  6  7  1  0  0  0  0
  6  8  1  0  0  0  0
  7  9  1  0  0  0  0
  8 10  1  0  0  0  0
  9 18  1  0  0  0  0
 10 13  1  0  0  0  0
 10 18  1  0  0  0  0
 11 14  1  0  0  0  0
 12 14  1  0  0  0  0
 13 17  1  0  0  0  0
 14 19  1  0  0  0  0
 16 17  1  0  0  0  0
  1 20  1  0  0  0  0
  2 21  1  0  0  0  0
  3 22  1  0  0  0  0
  6 23  1  0  0  0  0
  6 24  1  0  0  0  0
  7 25  1  0  0  0  0
  7 26  1  0  0  0  0
  8 27  1  0  0  0  0
  8 28  1  0  0  0  0
  9 29  1  0  0  0  0
  9 30  1  0  0  0  0
 10 31  1  0  0  0  0
 11 32  1  0  0  0  0
 11 33  1  0  0  0  0
 11 34  1  0  0  0  0
 12 35  1  0  0  0  0
 12 36  1  0  0  0  0
 12 37  1  0  0  0  0
 13 38  1  0  0  0  0
 14 39  1  0  0  0  0
 16 40  1  0  0  0  0
 16 41  1  0  0  0  0
 17 42  1  0  0  0  0
M  END
> <FRED Chemgauss4 score>
-11.083618

$$$$
C97693754	P154923233
  -OEChem-05122015313D

 40 41  0     1  0  0  0  0  0999 V2000
  124.0466  106.9605  109.9476 C   0  0  0  0  0  0  0  0  0  0  0  0
  123.4027  108.0002  110.6093 C   0  0  0  0  0  0  0  0  0  0  0  0
  124.8668  103.7118  107.3898 C   0  0  0  0  0  0  0  0  0  0  0  0
  123.3813  105.2933  107.0334 C   0  0  0  0  0  0  0  0  0  0  0  0
  124.8814  107.2401  108.8714 C   0  0  0  0  0  0  0  0  0  0  0  0
  124.6384  105.0918  107.5487 C   0  0  0  0  0  0  0  0  0  0  0  0
  123.6252  109.2916  110.1593 C   0  0  0  0  0  0  0  0  0  0  0  0
  125.0375  108.5655  108.4991 C   0  0  0  0  0  0  0  0  0  0  0  0
  122.9515  110.4317  110.8474 C   0  0  0  0  0  0  0  0  0  0  0  0
  125.9244  108.9256  107.3525 C   0  0  0  0  0  0  0  0  0  0  0  0
  119.2311  104.3483  105.8698 C   0  0  0  0  0  0  0  0  0  0  0  0
  120.5643  104.6806  106.5194 C   0  0  0  0  0  0  0  0  0  0  0  0
  121.6778  103.7745  105.9990 C   0  0  0  0  0  0  0  0  0  0  0  0
  125.5729  106.1304  108.1579 C   0  0  2  0  0  0  0  0  0  0  0  0
  123.8373  103.0811  106.8185 N   0  0  0  0  0  0  0  0  0  0  0  0
  124.4288  109.6022  109.1176 N   0  0  0  0  0  0  0  0  0  0  0  0
  122.9498  104.0694  106.6139 N   0  0  0  0  0  0  0  0  0  0  0  0
  127.5207  106.4347  109.4155 N   0  0  0  0  0  0  0  0  0  0  0  0
  126.5546  105.4635  109.0343 N   0  0  0  0  0  0  0  0  0  0  0  0
  123.8922  105.9370  110.2774 H   0  0  0  0  0  0  0  0  0  0  0  0
  122.7477  107.7951  111.4494 H   0  0  0  0  0  0  0  0  0  0  0  0
  125.7393  103.1369  107.6666 H   0  0  0  0  0  0  0  0  0  0  0  0
  122.7716  106.1811  106.9332 H   0  0  0  0  0  0  0  0  0  0  0  0
  123.5790  110.8084  111.6639 H   0  0  0  0  0  0  0  0  0  0  0  0
  122.7542  111.2561  110.1504 H   0  0  0  0  0  0  0  0  0  0  0  0
  121.9825  110.1281  111.2637 H   0  0  0  0  0  0  0  0  0  0  0  0
  125.3528  108.9301  106.4172 H   0  0  0  0  0  0  0  0  0  0  0  0
  126.3719  109.9171  107.4938 H   0  0  0  0  0  0  0  0  0  0  0  0
  126.7524  108.2128  107.2530 H   0  0  0  0  0  0  0  0  0  0  0  0
  118.9571  103.3038  106.0492 H   0  0  0  0  0  0  0  0  0  0  0  0
  119.2872  104.5039  104.7878 H   0  0  0  0  0  0  0  0  0  0  0  0
  118.4332  104.9858  106.2639 H   0  0  0  0  0  0  0  0  0  0  0  0
  120.8103  105.7309  106.3222 H   0  0  0  0  0  0  0  0  0  0  0  0
  120.4721  104.5774  107.6073 H   0  0  0  0  0  0  0  0  0  0  0  0
  121.7990  103.8833  104.9146 H   0  0  0  0  0  0  0  0  0  0  0  0
  121.4502  102.7197  106.1941 H   0  0  0  0  0  0  0  0  0  0  0  0
  126.1927  106.5299  107.3335 H   0  0  0  0  0  0  0  0  0  0  0  0
  127.2370  107.3539  109.0772 H   0  0  0  0  0  0  0  0  0  0  0  0
  127.5191  106.4997  110.4326 H   0  0  0  0  0  0  0  0  0  0  0  0
  126.9995  104.7187  108.5110 H   0  0  0  0  0  0  0  0  0  0  0  0
  1  2  2  0  0  0  0
  1  5  1  0  0  0  0
  2  7  1  0  0  0  0
  3  6  1  0  0  0  0
  3 15  2  0  0  0  0
  4  6  2  0  0  0  0
  4 17  1  0  0  0  0
  5  8  2  0  0  0  0
  5 14  1  0  0  0  0
  6 14  1  0  0  0  0
  7  9  1  0  0  0  0
  7 16  2  0  0  0  0
  8 10  1  0  0  0  0
  8 16  1  0  0  0  0
 11 12  1  0  0  0  0
 12 13  1  0  0  0  0
 13 17  1  0  0  0  0
 14 19  1  0  0  0  0
 15 17  1  0  0  0  0
 18 19  1  0  0  0  0
  1 20  1  0  0  0  0
  2 21  1  0  0  0  0
  3 22  1  0  0  0  0
  4 23  1  0  0  0  0
  9 24  1  0  0  0  0
  9 25  1  0  0  0  0
  9 26  1  0  0  0  0
 10 27  1  0  0  0  0
 10 28  1  0  0  0  0
 10 29  1  0  0  0  0
 11 30  1  0  0  0  0
 11 31  1  0  0  0  0
 11 32  1  0  0  0  0
 12 33  1  0  0  0  0
 12 34  1  0  0  0  0
 13 35  1  0  0  0  0
 13 36  1  0  0  0  0
 14 37  1  0  0  0  0
 18 38  1  0  0  0  0
 18 39  1  0  0  0  0
 19 40  1  0  0  0  0
M  END
> <FRED Chemgauss4 score>
-11.083432

$$$$
C87593473	P137019368
  -OEChem-05122015313D

 38 38  0     0  0  0  0  0  0999 V2000
  118.0870  103.8079  105.3528 C   0  0  0  0  0  0  0  0  0  0  0  0
  119.0803  104.1120  106.2836 C   0  0  0  0  0  0  0  0  0  0  0  0
  117.3992  104.8348  104.7061 C   0  0  0  0  0  0  0  0  0  0  0  0
  118.6981  106.4699  105.9211 C   0  0  0  0  0  0  0  0  0  0  0  0
  119.3859  105.4430  106.5677 C   0  0  0  0  0  0  0  0  0  0  0  0
  117.7048  106.1658  104.9902 C   0  0  0  0  0  0  0  0  0  0  0  0
  125.8256  106.0428  108.7594 C   0  0  0  0  0  0  0  0  0  0  0  0
  124.5909  108.1329  109.3853 C   0  0  0  0  0  0  0  0  0  0  0  0
  126.1849  108.2349  107.4798 C   0  0  0  0  0  0  0  0  0  0  0  0
  120.4551  105.7697  107.5698 C   0  0  0  0  0  0  0  0  0  0  0  0
  123.9973  106.9702  107.2317 C   0  0  0  0  0  0  0  0  0  0  0  0
  122.7026  106.5328  107.9261 C   0  0  0  0  0  0  0  0  0  0  0  0
  125.1600  107.3317  108.1961 C   0  0  0  0  0  0  0  0  0  0  0  0
  125.3579  104.8957  108.3538 N   0  0  0  0  0  0  0  0  0  0  0  0
  126.8675  106.2145  109.6470 N   0  0  0  0  0  0  0  0  0  0  0  0
  121.6830  106.2175  106.9296 N   0  0  0  0  0  0  0  0  0  0  0  0
  126.0604  103.8441  108.9493 O   0  0  0  0  0  0  0  0  0  0  0  0
  116.7725  107.5566  104.1136 Br  0  0  0  0  0  0  0  0  0  0  0  0
  117.8490  102.7715  105.1316 H   0  0  0  0  0  0  0  0  0  0  0  0
  119.6109  103.3054  106.7825 H   0  0  0  0  0  0  0  0  0  0  0  0
  116.6280  104.5806  103.9835 H   0  0  0  0  0  0  0  0  0  0  0  0
  118.9418  107.5054  106.1478 H   0  0  0  0  0  0  0  0  0  0  0  0
  124.1077  109.0561  109.0462 H   0  0  0  0  0  0  0  0  0  0  0  0
  123.8437  107.5586  109.9440 H   0  0  0  0  0  0  0  0  0  0  0  0
  125.3839  108.4065  110.0909 H   0  0  0  0  0  0  0  0  0  0  0  0
  125.7072  109.1402  107.0864 H   0  0  0  0  0  0  0  0  0  0  0  0
  126.6487  107.7132  106.6349 H   0  0  0  0  0  0  0  0  0  0  0  0
  126.9859  108.5625  108.1506 H   0  0  0  0  0  0  0  0  0  0  0  0
  120.1198  106.5621  108.2477 H   0  0  0  0  0  0  0  0  0  0  0  0
  120.6974  104.8965  108.1847 H   0  0  0  0  0  0  0  0  0  0  0  0
  123.7761  107.8269  106.5813 H   0  0  0  0  0  0  0  0  0  0  0  0
  124.3292  106.1647  106.5617 H   0  0  0  0  0  0  0  0  0  0  0  0
  122.3230  107.3284  108.5742 H   0  0  0  0  0  0  0  0  0  0  0  0
  122.8725  105.6460  108.5440 H   0  0  0  0  0  0  0  0  0  0  0  0
  127.1982  107.1307  109.9280 H   0  0  0  0  0  0  0  0  0  0  0  0
  127.3431  105.4128  110.0471 H   0  0  0  0  0  0  0  0  0  0  0  0
  122.0328  105.4820  106.3180 H   0  0  0  0  0  0  0  0  0  0  0  0
  125.6154  103.0702  108.5649 H   0  0  0  0  0  0  0  0  0  0  0  0
  1  2  2  0  0  0  0
  1  3  1  0  0  0  0
  2  5  1  0  0  0  0
  3  6  2  0  0  0  0
  4  5  2  0  0  0  0
  4  6  1  0  0  0  0
  5 10  1  0  0  0  0
  6 18  1  0  0  0  0
  7 13  1  0  0  0  0
  7 14  2  0  0  0  0
  7 15  1  0  0  0  0
  8 13  1  0  0  0  0
  9 13  1  0  0  0  0
 10 16  1  0  0  0  0
 11 12  1  0  0  0  0
 11 13  1  0  0  0  0
 12 16  1  0  0  0  0
 14 17  1  0  0  0  0
  1 19  1  0  0  0  0
  2 20  1  0  0  0  0
  3 21  1  0  0  0  0
  4 22  1  0  0  0  0
  8 23  1  0  0  0  0
  8 24  1  0  0  0  0
  8 25  1  0  0  0  0
  9 26  1  0  0  0  0
  9 27  1  0  0  0  0
  9 28  1  0  0  0  0
 10 29  1  0  0  0  0
 10 30  1  0  0  0  0
 11 31  1  0  0  0  0
 11 32  1  0  0  0  0
 12 33  1  0  0  0  0
 12 34  1  0  0  0  0
 15 35  1  0  0  0  0
 15 36  1  0  0  0  0
 16 37  1  0  0  0  0
 17 38  1  0  0  0  0
M  END
> <FRED Chemgauss4 score>
-11.078228

$$$$
C87427525	P136769772
  -OEChem-05122015313D

 37 38  0     0  0  0  0  0  0999 V2000
  118.0306  106.8251  104.8413 C   0  0  0  0  0  0  0  0  0  0  0  0
  117.2714  104.5317  104.8716 C   0  0  0  0  0  0  0  0  0  0  0  0
  117.3555  107.0327  103.6385 C   0  0  0  0  0  0  0  0  0  0  0  0
  116.5963  104.7393  103.6688 C   0  0  0  0  0  0  0  0  0  0  0  0
  123.2735  106.9322  106.5292 C   0  0  0  0  0  0  0  0  0  0  0  0
  117.9886  105.5746  105.4578 C   0  0  0  0  0  0  0  0  0  0  0  0
  116.6383  105.9898  103.0522 C   0  0  0  0  0  0  0  0  0  0  0  0
  122.4566  105.9466  107.0424 C   0  0  0  0  0  0  0  0  0  0  0  0
  124.3644  104.8677  107.1212 C   0  0  0  0  0  0  0  0  0  0  0  0
  121.0059  106.1032  107.2333 C   0  0  0  0  0  0  0  0  0  0  0  0
  120.6709  104.7095  104.2398 C   0  0  0  0  0  0  0  0  0  0  0  0
  125.3571  103.7967  107.3563 C   0  0  0  0  0  0  0  0  0  0  0  0
  118.7104  105.3515  106.7436 C   0  0  0  0  0  0  0  0  0  0  0  0
  120.5812  104.1688  105.6482 C   0  0  0  0  0  0  0  0  0  0  0  0
  123.0803  104.7619  107.3820 N   0  0  0  0  0  0  0  0  0  0  0  0
  115.9541  106.1998  101.8371 N   0  0  0  0  0  0  0  0  0  0  0  0
  120.4444  103.7368  103.2899 N   0  0  0  0  0  0  0  0  0  0  0  0
  120.1343  105.2300  106.5586 N   0  0  0  0  0  0  0  0  0  0  0  0
  120.6511  106.9988  107.9989 O   0  0  0  0  0  0  0  0  0  0  0  0
  120.8762  105.8900  103.9707 O   0  0  0  0  0  0  0  0  0  0  0  0
  124.8906  106.3643  106.4667 S   0  0  0  0  0  0  0  0  0  0  0  0
  118.5877  107.6429  105.2904 H   0  0  0  0  0  0  0  0  0  0  0  0
  117.2345  103.5537  105.3438 H   0  0  0  0  0  0  0  0  0  0  0  0
  117.3960  108.0106  103.1657 H   0  0  0  0  0  0  0  0  0  0  0  0
  116.0411  103.9193  103.2205 H   0  0  0  0  0  0  0  0  0  0  0  0
  123.0120  107.9276  106.1984 H   0  0  0  0  0  0  0  0  0  0  0  0
  125.4585  103.1516  106.4696 H   0  0  0  0  0  0  0  0  0  0  0  0
  126.3534  104.2048  107.5927 H   0  0  0  0  0  0  0  0  0  0  0  0
  125.0768  103.1570  108.2092 H   0  0  0  0  0  0  0  0  0  0  0  0
  118.5384  106.1812  107.4436 H   0  0  0  0  0  0  0  0  0  0  0  0
  118.3663  104.4368  107.2456 H   0  0  0  0  0  0  0  0  0  0  0  0
  121.5565  103.8148  105.9934 H   0  0  0  0  0  0  0  0  0  0  0  0
  119.8549  103.3522  105.6808 H   0  0  0  0  0  0  0  0  0  0  0  0
  115.9516  107.1132  101.4300 H   0  0  0  0  0  0  0  0  0  0  0  0
  115.4053  105.4579  101.4518 H   0  0  0  0  0  0  0  0  0  0  0  0
  120.2435  102.7800  103.5611 H   0  0  0  0  0  0  0  0  0  0  0  0
  120.4672  103.9332  102.2943 H   0  0  0  0  0  0  0  0  0  0  0  0
  1  3  2  0  0  0  0
  1  6  1  0  0  0  0
  2  4  1  0  0  0  0
  2  6  2  0  0  0  0
  3  7  1  0  0  0  0
  4  7  2  0  0  0  0
  5  8  2  0  0  0  0
  5 21  1  0  0  0  0
  6 13  1  0  0  0  0
  7 16  1  0  0  0  0
  8 10  1  0  0  0  0
  8 15  1  0  0  0  0
  9 12  1  0  0  0  0
  9 15  2  0  0  0  0
  9 21  1  0  0  0  0
 10 18  1  0  0  0  0
 10 19  2  0  0  0  0
 11 14  1  0  0  0  0
 11 17  1  0  0  0  0
 11 20  2  0  0  0  0
 13 18  1  0  0  0  0
 14 18  1  0  0  0  0
  1 22  1  0  0  0  0
  2 23  1  0  0  0  0
  3 24  1  0  0  0  0
  4 25  1  0  0  0  0
  5 26  1  0  0  0  0
 12 27  1  0  0  0  0
 12 28  1  0  0  0  0
 12 29  1  0  0  0  0
 13 30  1  0  0  0  0
 13 31  1  0  0  0  0
 14 32  1  0  0  0  0
 14 33  1  0  0  0  0
 16 34  1  0  0  0  0
 16 35  1  0  0  0  0
 17 36  1  0  0  0  0
 17 37  1  0  0  0  0
M  END
> <FRED Chemgauss4 score>
-11.064240

$$$$
C88640746	P138642871
  -OEChem-05122015313D

 35 37  0     0  0  0  0  0  0999 V2000
  119.6530  103.8381  106.8039 C   0  0  0  0  0  0  0  0  0  0  0  0
  118.5395  103.6636  105.9779 C   0  0  0  0  0  0  0  0  0  0  0  0
  118.4157  106.0496  105.6021 C   0  0  0  0  0  0  0  0  0  0  0  0
  120.1708  105.1338  107.0445 C   0  0  0  0  0  0  0  0  0  0  0  0
  121.2856  105.5604  107.8417 C   0  0  0  0  0  0  0  0  0  0  0  0
  119.5385  106.2220  106.4353 C   0  0  0  0  0  0  0  0  0  0  0  0
  117.9290  104.7593  105.3843 C   0  0  0  0  0  0  0  0  0  0  0  0
  121.4687  106.9226  107.8200 C   0  0  0  0  0  0  0  0  0  0  0  0
  122.4581  107.7154  108.4789 C   0  0  0  0  0  0  0  0  0  0  0  0
  122.8264  109.7575  111.0532 C   0  0  0  0  0  0  0  0  0  0  0  0
  123.1910  112.1154  113.7820 C   0  0  0  0  0  0  0  0  0  0  0  0
  124.3711  112.6785  113.0474 C   0  0  0  0  0  0  0  0  0  0  0  0
  123.3601  111.8415  112.3127 C   0  0  0  0  0  0  0  0  0  0  0  0
  123.4381  108.4263  110.6982 C   0  0  0  0  0  0  0  0  0  0  0  0
  122.0771  104.7116  108.5438 N   0  0  0  0  0  0  0  0  0  0  0  0
  122.5119  107.6677  109.8886 N   0  0  0  0  0  0  0  0  0  0  0  0
  123.6874  110.5189  111.8305 N   0  0  0  0  0  0  0  0  0  0  0  0
  123.2467  108.4513  107.8336 O   0  0  0  0  0  0  0  0  0  0  0  0
  121.7066  110.1056  110.6881 O   0  0  0  0  0  0  0  0  0  0  0  0
  120.3104  107.7079  106.8469 S   0  0  0  0  0  0  0  0  0  0  0  0
  116.5578  104.5291  104.3672 Cl  0  0  0  0  0  0  0  0  0  0  0  0
  120.1178  102.9670  107.2593 H   0  0  0  0  0  0  0  0  0  0  0  0
  118.1621  102.6577  105.8115 H   0  0  0  0  0  0  0  0  0  0  0  0
  117.9389  106.9102  105.1397 H   0  0  0  0  0  0  0  0  0  0  0  0
  123.3718  111.3087  114.4818 H   0  0  0  0  0  0  0  0  0  0  0  0
  122.4077  112.8015  114.0801 H   0  0  0  0  0  0  0  0  0  0  0  0
  124.3820  113.7435  112.8508 H   0  0  0  0  0  0  0  0  0  0  0  0
  125.3439  112.2499  113.2541 H   0  0  0  0  0  0  0  0  0  0  0  0
  122.6904  112.3667  111.6402 H   0  0  0  0  0  0  0  0  0  0  0  0
  124.3628  108.5841  110.1353 H   0  0  0  0  0  0  0  0  0  0  0  0
  123.6606  107.8652  111.6105 H   0  0  0  0  0  0  0  0  0  0  0  0
  121.8900  103.7021  108.5812 H   0  0  0  0  0  0  0  0  0  0  0  0
  122.8390  105.0523  109.1430 H   0  0  0  0  0  0  0  0  0  0  0  0
  121.8187  107.1117  110.3786 H   0  0  0  0  0  0  0  0  0  0  0  0
  124.5929  110.1273  112.0727 H   0  0  0  0  0  0  0  0  0  0  0  0
  1  2  1  0  0  0  0
  1  4  2  0  0  0  0
  2  7  2  0  0  0  0
  3  6  2  0  0  0  0
  3  7  1  0  0  0  0
  4  5  1  0  0  0  0
  4  6  1  0  0  0  0
  5  8  2  0  0  0  0
  5 15  1  0  0  0  0
  6 20  1  0  0  0  0
  7 21  1  0  0  0  0
  8  9  1  0  0  0  0
  8 20  1  0  0  0  0
  9 16  1  0  0  0  0
  9 18  2  0  0  0  0
 10 14  1  0  0  0  0
 10 17  1  0  0  0  0
 10 19  2  0  0  0  0
 11 12  1  0  0  0  0
 11 13  1  0  0  0  0
 12 13  1  0  0  0  0
 13 17  1  0  0  0  0
 14 16  1  0  0  0  0
  1 22  1  0  0  0  0
  2 23  1  0  0  0  0
  3 24  1  0  0  0  0
 11 25  1  0  0  0  0
 11 26  1  0  0  0  0
 12 27  1  0  0  0  0
 12 28  1  0  0  0  0
 13 29  1  0  0  0  0
 14 30  1  0  0  0  0
 14 31  1  0  0  0  0
 15 32  1  0  0  0  0
 15 33  1  0  0  0  0
 16 34  1  0  0  0  0
 17 35  1  0  0  0  0
M  END
> <FRED Chemgauss4 score>
-11.060197

$$$$
C88803396	P138914308
  -OEChem-05122015313D

 28 29  0     0  0  0  0  0  0999 V2000
  118.1852  103.6127  106.2365 C   0  0  0  0  0  0  0  0  0  0  0  0
  117.0146  103.8368  105.4556 C   0  0  0  0  0  0  0  0  0  0  0  0
  125.0775  106.1662  107.7746 C   0  0  0  0  0  0  0  0  0  0  0  0
  124.4352  104.9430  107.9033 C   0  0  0  0  0  0  0  0  0  0  0  0
  124.3985  107.2193  107.1693 C   0  0  0  0  0  0  0  0  0  0  0  0
  123.0993  107.0324  106.7070 C   0  0  0  0  0  0  0  0  0  0  0  0
  119.3003  104.1964  105.6767 C   0  0  0  0  0  0  0  0  0  0  0  0
  122.5071  105.7872  106.8626 C   0  0  0  0  0  0  0  0  0  0  0  0
  117.2797  104.5836  104.3286 C   0  0  0  0  0  0  0  0  0  0  0  0
  125.0779  108.5217  107.0350 C   0  0  0  0  0  0  0  0  0  0  0  0
  120.7129  104.1910  106.1853 C   0  0  0  0  0  0  0  0  0  0  0  0
  123.1837  104.7904  107.4492 N   0  3  0  0  0  0  0  0  0  0  0  0
  122.3970  108.0903  106.0911 N   0  0  0  0  0  0  0  0  0  0  0  0
  121.2025  105.5182  106.4239 N   0  0  0  0  0  0  0  0  0  0  0  0
  125.7656  108.7516  105.9724 O   0  5  0  0  0  0  0  0  0  0  0  0
  124.9586  109.3804  107.9853 O   0  0  0  0  0  0  0  0  0  0  0  0
  118.9341  105.0107  104.2155 S   0  0  0  0  0  0  0  0  0  0  0  0
  115.9765  105.0882  103.0425 Br  0  0  0  0  0  0  0  0  0  0  0  0
  118.2038  103.0508  107.1617 H   0  0  0  0  0  0  0  0  0  0  0  0
  116.0317  103.4645  105.7163 H   0  0  0  0  0  0  0  0  0  0  0  0
  126.0917  106.2877  108.1419 H   0  0  0  0  0  0  0  0  0  0  0  0
  124.8843  104.0717  108.3594 H   0  0  0  0  0  0  0  0  0  0  0  0
  120.7829  103.6318  107.1246 H   0  0  0  0  0  0  0  0  0  0  0  0
  121.3867  103.7093  105.4689 H   0  0  0  0  0  0  0  0  0  0  0  0
  122.7276  103.8846  107.5524 H   0  0  0  0  0  0  0  0  0  0  0  0
  122.8264  108.9910  106.0326 H   0  0  0  0  0  0  0  0  0  0  0  0
  121.4488  107.9463  105.8096 H   0  0  0  0  0  0  0  0  0  0  0  0
  120.5940  106.3051  106.2728 H   0  0  0  0  0  0  0  0  0  0  0  0
  1  2  1  0  0  0  0
  1  7  2  0  0  0  0
  2  9  2  0  0  0  0
  3  4  2  0  0  0  0
  3  5  1  0  0  0  0
  4 12  1  0  0  0  0
  5  6  2  0  0  0  0
  5 10  1  0  0  0  0
  6  8  1  0  0  0  0
  6 13  1  0  0  0  0
  7 11  1  0  0  0  0
  7 17  1  0  0  0  0
  8 12  2  0  0  0  0
  8 14  1  0  0  0  0
  9 17  1  0  0  0  0
  9 18  1  0  0  0  0
 10 15  1  0  0  0  0
 10 16  2  0  0  0  0
 11 14  1  0  0  0  0
  1 19  1  0  0  0  0
  2 20  1  0  0  0  0
  3 21  1  0  0  0  0
  4 22  1  0  0  0  0
 11 23  1  0  0  0  0
 11 24  1  0  0  0  0
 12 25  1  0  0  0  0
 13 26  1  0  0  0  0
 13 27  1  0  0  0  0
 14 28  1  0  0  0  0
M  CHG  2  12   1  15  -1
M  END
> <FRED Chemgauss4 score>
-11.041908

$$$$
C70215460	P108239596
  -OEChem-05122015313D

 34 35  0     1  0  0  0  0  0999 V2000
  119.4671  104.0809  106.8131 C   0  0  0  0  0  0  0  0  0  0  0  0
  118.1420  104.2939  106.3349 C   0  0  0  0  0  0  0  0  0  0  0  0
  120.4172  104.5271  105.9210 C   0  0  0  0  0  0  0  0  0  0  0  0
  118.1297  104.8951  105.0954 C   0  0  0  0  0  0  0  0  0  0  0  0
  124.7551  107.5540  109.4815 C   0  0  0  0  0  0  0  0  0  0  0  0
  121.8848  104.4879  106.0446 C   0  0  0  0  0  0  0  0  0  0  0  0
  122.5629  104.5687  107.1991 C   0  0  0  0  0  0  0  0  0  0  0  0
  124.0383  104.5344  107.2715 C   0  0  0  0  0  0  0  0  0  0  0  0
  125.2075  108.3887  106.6938 C   0  0  0  0  0  0  0  0  0  0  0  0
  126.5572  105.8368  109.3454 C   0  0  0  0  0  0  0  0  0  0  0  0
  126.1495  105.6217  107.9071 C   0  0  0  0  0  0  0  0  0  0  0  0
  124.0391  106.8670  108.3102 C   0  0  1  0  0  0  0  0  0  0  0  0
  123.8779  107.8736  107.1692 C   0  0  0  0  0  0  0  0  0  0  0  0
  125.9780  107.0545  109.8654 N   0  0  0  0  0  0  0  0  0  0  0  0
  124.6915  105.6368  107.8258 N   0  0  0  0  0  0  0  0  0  0  0  0
  124.2618  108.5473  110.0223 O   0  0  0  0  0  0  0  0  0  0  0  0
  124.6044  103.5297  106.8368 O   0  0  0  0  0  0  0  0  0  0  0  0
  126.0371  108.9885  107.3608 O   0  0  0  0  0  0  0  0  0  0  0  0
  125.3700  108.0881  105.3797 O   0  0  0  0  0  0  0  0  0  0  0  0
  119.7111  105.1998  104.5135 S   0  0  0  0  0  0  0  0  0  0  0  0
  116.5541  105.3397  104.1324 Br  0  0  0  0  0  0  0  0  0  0  0  0
  119.7029  103.6219  107.7653 H   0  0  0  0  0  0  0  0  0  0  0  0
  117.2489  104.0160  106.8803 H   0  0  0  0  0  0  0  0  0  0  0  0
  122.4312  104.4043  105.1069 H   0  0  0  0  0  0  0  0  0  0  0  0
  122.0538  104.6766  108.1519 H   0  0  0  0  0  0  0  0  0  0  0  0
  126.2086  105.0164  109.9822 H   0  0  0  0  0  0  0  0  0  0  0  0
  127.6445  105.9128  109.4404 H   0  0  0  0  0  0  0  0  0  0  0  0
  126.5273  106.4244  107.2632 H   0  0  0  0  0  0  0  0  0  0  0  0
  126.5616  104.6786  107.5356 H   0  0  0  0  0  0  0  0  0  0  0  0
  123.0499  106.6031  108.6982 H   0  0  0  0  0  0  0  0  0  0  0  0
  123.3688  107.3835  106.3376 H   0  0  0  0  0  0  0  0  0  0  0  0
  123.2782  108.7135  107.5240 H   0  0  0  0  0  0  0  0  0  0  0  0
  126.5074  107.5745  110.5584 H   0  0  0  0  0  0  0  0  0  0  0  0
  126.2300  108.4099  105.0345 H   0  0  0  0  0  0  0  0  0  0  0  0
  1  2  1  0  0  0  0
  1  3  2  0  0  0  0
  2  4  2  0  0  0  0
  3  6  1  0  0  0  0
  3 20  1  0  0  0  0
  4 20  1  0  0  0  0
  4 21  1  0  0  0  0
  5 12  1  0  0  0  0
  5 14  1  0  0  0  0
  5 16  2  0  0  0  0
  6  7  2  0  0  0  0
  7  8  1  0  0  0  0
  8 15  1  0  0  0  0
  8 17  2  0  0  0  0
  9 13  1  0  0  0  0
  9 18  2  0  0  0  0
  9 19  1  0  0  0  0
 10 11  1  0  0  0  0
 10 14  1  0  0  0  0
 11 15  1  0  0  0  0
 12 13  1  0  0  0  0
 12 15  1  0  0  0  0
  1 22  1  0  0  0  0
  2 23  1  0  0  0  0
  6 24  1  0  0  0  0
  7 25  1  0  0  0  0
 10 26  1  0  0  0  0
 10 27  1  0  0  0  0
 11 28  1  0  0  0  0
 11 29  1  0  0  0  0
 12 30  1  0  0  0  0
 13 31  1  0  0  0  0
 13 32  1  0  0  0  0
 14 33  1  0  0  0  0
 19 34  1  0  0  0  0
M  END
> <FRED Chemgauss4 score>
-11.025163

$$$$
BenzylCysteine	P10000006
  -OEChem-05122015313D

 27 27  0     1  0  0  0  0  0999 V2000
  118.7409  105.0425  105.5098 C   0  0  0  0  0  0  0  0  0  0  0  0
  119.1061  106.2724  106.0570 C   0  0  0  0  0  0  0  0  0  0  0  0
  119.5113  103.9084  105.7669 C   0  0  0  0  0  0  0  0  0  0  0  0
  120.2417  106.3684  106.8612 C   0  0  0  0  0  0  0  0  0  0  0  0
  120.6469  104.0044  106.5711 C   0  0  0  0  0  0  0  0  0  0  0  0
  121.0122  105.2344  107.1183 C   0  0  0  0  0  0  0  0  0  0  0  0
  126.1802  108.1199  107.6826 C   0  0  0  0  0  0  0  0  0  0  0  0
  122.2368  105.3372  107.9851 C   0  0  0  0  0  0  0  0  0  0  0  0
  124.8486  106.0187  108.4647 C   0  0  0  0  0  0  0  0  0  0  0  0
  126.2004  106.6387  108.1012 C   0  0  2  0  0  0  0  0  0  0  0  0
  127.1444  106.3218  109.2209 N   0  3  0  0  0  0  0  0  0  0  0  0
  125.7190  108.9173  108.5485 O   0  5  0  0  0  0  0  0  0  0  0  0
  126.6004  108.3671  106.5173 O   0  0  0  0  0  0  0  0  0  0  0  0
  123.6304  106.0826  107.1103 S   0  0  0  0  0  0  0  0  0  0  0  0
  117.8559  104.9677  104.8847 H   0  0  0  0  0  0  0  0  0  0  0  0
  118.5058  107.1554  105.8577 H   0  0  0  0  0  0  0  0  0  0  0  0
  119.2267  102.9504  105.3420 H   0  0  0  0  0  0  0  0  0  0  0  0
  120.5188  107.3309  107.2831 H   0  0  0  0  0  0  0  0  0  0  0  0
  121.2412  103.1155  106.7659 H   0  0  0  0  0  0  0  0  0  0  0  0
  122.0202  105.9331  108.8786 H   0  0  0  0  0  0  0  0  0  0  0  0
  122.5335  104.3430  108.3372 H   0  0  0  0  0  0  0  0  0  0  0  0
  124.9783  104.9676  108.7458 H   0  0  0  0  0  0  0  0  0  0  0  0
  124.4120  106.5294  109.3294 H   0  0  0  0  0  0  0  0  0  0  0  0
  126.6017  106.0961  107.2358 H   0  0  0  0  0  0  0  0  0  0  0  0
  128.0677  106.7086  109.0230 H   0  0  0  0  0  0  0  0  0  0  0  0
  127.2294  105.3111  109.3335 H   0  0  0  0  0  0  0  0  0  0  0  0
  126.8012  106.7219  110.0946 H   0  0  0  0  0  0  0  0  0  0  0  0
  1  2  1  0  0  0  0
  1  3  2  0  0  0  0
  2  4  2  0  0  0  0
  3  5  1  0  0  0  0
  4  6  1  0  0  0  0
  5  6  2  0  0  0  0
  6  8  1  0  0  0  0
  7 10  1  0  0  0  0
  7 12  1  0  0  0  0
  7 13  2  0  0  0  0
  8 14  1  0  0  0  0
  9 10  1  0  0  0  0
  9 14  1  0  0  0  0
 10 11  1  0  0  0  0
  1 15  1  0  0  0  0
  2 16  1  0  0  0  0
  3 17  1  0  0  0  0
  4 18  1  0  0  0  0
  5 19  1  0  0  0  0
  8 20  1  0  0  0  0
  8 21  1  0  0  0  0
  9 22  1  0  0  0  0
  9 23  1  0  0  0  0
 10 24  1  0  0  0  0
 11 25  1  0  0  0  0
 11 26  1  0  0  0  0
 11 27  1  0  0  0  0
M  CHG  2  11   1  12  -1
M  END
> <FRED Chemgauss4 score>
-11.005276

$$$$
C36239306	P53850107
  -OEChem-05122015313D

 34 35  0     1  0  0  0  0  0999 V2000
  124.5373  106.6547  106.2894 C   0  0  0  0  0  0  0  0  0  0  0  0
  126.3031  107.9558  107.1589 C   0  0  0  0  0  0  0  0  0  0  0  0
  120.0765  104.5742  106.8446 C   0  0  0  0  0  0  0  0  0  0  0  0
  120.8709  104.0303  105.6629 C   0  0  0  0  0  0  0  0  0  0  0  0
  120.8887  105.6025  107.6269 C   0  0  0  0  0  0  0  0  0  0  0  0
  121.4451  105.1648  104.8115 C   0  0  0  0  0  0  0  0  0  0  0  0
  121.4604  106.6894  106.6983 C   0  0  1  0  0  0  0  0  0  0  0  0
  123.5430  105.5809  105.9541 C   0  0  0  0  0  0  0  0  0  0  0  0
  122.2265  107.7403  107.5087 C   0  0  0  0  0  0  0  0  0  0  0  0
  121.3375  108.3825  108.5535 C   0  0  0  0  0  0  0  0  0  0  0  0
  124.5601  107.8604  105.7625 N   0  0  0  0  0  0  0  0  0  0  0  0
  125.5964  108.6232  106.2718 N   0  0  0  0  0  0  0  0  0  0  0  0
  122.2448  106.1366  105.5743 N   0  0  1  0  0  0  0  0  0  0  0  0
  127.3795  108.4448  107.8265 N   0  0  0  0  0  0  0  0  0  0  0  0
  122.1025  109.3552  109.2517 O   0  0  0  0  0  0  0  0  0  0  0  0
  125.7681  106.3516  107.4449 S   0  0  0  0  0  0  0  0  0  0  0  0
  119.1479  105.0392  106.4814 H   0  0  0  0  0  0  0  0  0  0  0  0
  119.7778  103.7497  107.5071 H   0  0  0  0  0  0  0  0  0  0  0  0
  121.6881  103.3961  106.0303 H   0  0  0  0  0  0  0  0  0  0  0  0
  120.2261  103.3942  105.0455 H   0  0  0  0  0  0  0  0  0  0  0  0
  120.2466  106.0554  108.3885 H   0  0  0  0  0  0  0  0  0  0  0  0
  121.7026  105.0917  108.1534 H   0  0  0  0  0  0  0  0  0  0  0  0
  122.0719  104.7041  104.0257 H   0  0  0  0  0  0  0  0  0  0  0  0
  120.6187  105.6761  104.2803 H   0  0  0  0  0  0  0  0  0  0  0  0
  120.5693  107.2364  106.2487 H   0  0  0  0  0  0  0  0  0  0  0  0
  123.9037  104.9670  105.1215 H   0  0  0  0  0  0  0  0  0  0  0  0
  123.3844  104.9121  106.8065 H   0  0  0  0  0  0  0  0  0  0  0  0
  122.6197  108.4963  106.8277 H   0  0  0  0  0  0  0  0  0  0  0  0
  123.0872  107.2657  107.9819 H   0  0  0  0  0  0  0  0  0  0  0  0
  120.4790  108.8804  108.0914 H   0  0  0  0  0  0  0  0  0  0  0  0
  120.9744  107.6423  109.2737 H   0  0  0  0  0  0  0  0  0  0  0  0
  127.7499  109.3841  107.6407 H   0  0  0  0  0  0  0  0  0  0  0  0
  127.9233  107.8631  108.4746 H   0  0  0  0  0  0  0  0  0  0  0  0
  121.5140  109.7524  109.9141 H   0  0  0  0  0  0  0  0  0  0  0  0
  1  8  1  0  0  0  0
  1 11  2  0  0  0  0
  1 16  1  0  0  0  0
  2 12  2  0  0  0  0
  2 14  1  0  0  0  0
  2 16  1  0  0  0  0
  3  4  1  0  0  0  0
  3  5  1  0  0  0  0
  4  6  1  0  0  0  0
  5  7  1  0  0  0  0
  6 13  1  0  0  0  0
  7  9  1  0  0  0  0
  7 13  1  0  0  0  0
  8 13  1  0  0  0  0
  9 10  1  0  0  0  0
 10 15  1  0  0  0  0
 11 12  1  0  0  0  0
  3 17  1  0  0  0  0
  3 18  1  0  0  0  0
  4 19  1  0  0  0  0
  4 20  1  0  0  0  0
  5 21  1  0  0  0  0
  5 22  1  0  0  0  0
  6 23  1  0  0  0  0
  6 24  1  0  0  0  0
  7 25  1  0  0  0  0
  8 26  1  0  0  0  0
  8 27  1  0  0  0  0
  9 28  1  0  0  0  0
  9 29  1  0  0  0  0
 10 30  1  0  0  0  0
 10 31  1  0  0  0  0
 14 32  1  0  0  0  0
 14 33  1  0  0  0  0
 15 34  1  0  0  0  0
M  END
> <FRED Chemgauss4 score>
-11.001413

$$$$
C70037314	P107964016
  -OEChem-05122015313D

 46 48  0     1  0  0  0  0  0999 V2000
  123.5734  104.9820  106.5161 C   0  0  0  0  0  0  0  0  0  0  0  0
  117.4240  108.4805  105.7981 C   0  0  0  0  0  0  0  0  0  0  0  0
  118.3372  107.4644  105.6429 C   0  0  0  0  0  0  0  0  0  0  0  0
  124.2630  106.6124  108.0223 C   0  0  0  0  0  0  0  0  0  0  0  0
  124.4698  105.3285  107.5681 C   0  0  0  0  0  0  0  0  0  0  0  0
  122.7154  106.0144  106.2065 C   0  0  0  0  0  0  0  0  0  0  0  0
  116.3001  106.8036  105.1232 C   0  0  0  0  0  0  0  0  0  0  0  0
  125.4838  104.4680  108.1180 C   0  0  0  0  0  0  0  0  0  0  0  0
  121.6540  106.0570  105.1927 C   0  0  0  0  0  0  0  0  0  0  0  0
  119.3199  103.2138  106.2617 C   0  0  0  0  0  0  0  0  0  0  0  0
  118.0553  104.0499  106.0914 C   0  0  0  0  0  0  0  0  0  0  0  0
  120.5461  104.1144  106.3692 C   0  0  0  0  0  0  0  0  0  0  0  0
  119.5684  105.0899  104.2862 C   0  0  0  0  0  0  0  0  0  0  0  0
  118.1517  105.0147  104.8891 C   0  0  2  0  0  0  0  0  0  0  0  0
  115.0319  105.8839  103.1485 C   0  0  0  0  0  0  0  0  0  0  0  0
  113.8639  106.2011  105.3599 C   0  0  0  0  0  0  0  0  0  0  0  0
  115.2201  105.8971  104.6829 C   0  0  0  0  0  0  0  0  0  0  0  0
  116.1577  108.0627  105.4733 N   0  0  0  0  0  0  0  0  0  0  0  0
  117.6024  106.3966  105.2106 N   0  0  0  0  0  0  0  0  0  0  0  0
  120.6180  105.1238  105.3042 N   0  0  0  0  0  0  0  0  0  0  0  0
  126.2842  104.9640  109.1527 N   0  0  0  0  0  0  0  0  0  0  0  0
  125.6750  103.3085  107.6874 O   0  0  0  0  0  0  0  0  0  0  0  0
  121.7603  106.9193  104.3232 O   0  0  0  0  0  0  0  0  0  0  0  0
  122.9923  107.3944  107.1818 S   0  0  0  0  0  0  0  0  0  0  0  0
  123.5586  104.0233  106.0118 H   0  0  0  0  0  0  0  0  0  0  0  0
  117.6138  109.4917  106.1273 H   0  0  0  0  0  0  0  0  0  0  0  0
  119.4059  107.4118  105.7974 H   0  0  0  0  0  0  0  0  0  0  0  0
  124.7934  107.1347  108.8068 H   0  0  0  0  0  0  0  0  0  0  0  0
  119.2382  102.5875  107.1530 H   0  0  0  0  0  0  0  0  0  0  0  0
  119.4308  102.5505  105.3985 H   0  0  0  0  0  0  0  0  0  0  0  0
  117.1838  103.3860  105.9687 H   0  0  0  0  0  0  0  0  0  0  0  0
  117.8678  104.6243  107.0150 H   0  0  0  0  0  0  0  0  0  0  0  0
  120.5429  104.6593  107.3331 H   0  0  0  0  0  0  0  0  0  0  0  0
  121.4616  103.4942  106.3743 H   0  0  0  0  0  0  0  0  0  0  0  0
  119.7126  104.2493  103.5807 H   0  0  0  0  0  0  0  0  0  0  0  0
  119.6796  106.0052  103.6689 H   0  0  0  0  0  0  0  0  0  0  0  0
  117.4400  104.6569  104.0878 H   0  0  0  0  0  0  0  0  0  0  0  0
  114.7921  106.8823  102.7669 H   0  0  0  0  0  0  0  0  0  0  0  0
  114.2263  105.2083  102.8408 H   0  0  0  0  0  0  0  0  0  0  0  0
  115.9537  105.5516  102.6581 H   0  0  0  0  0  0  0  0  0  0  0  0
  113.5527  107.2279  105.1373 H   0  0  0  0  0  0  0  0  0  0  0  0
  113.9175  106.0959  106.4490 H   0  0  0  0  0  0  0  0  0  0  0  0
  113.0779  105.5283  104.9996 H   0  0  0  0  0  0  0  0  0  0  0  0
  115.4567  104.8466  104.9588 H   0  0  0  0  0  0  0  0  0  0  0  0
  126.1288  105.9098  109.4843 H   0  0  0  0  0  0  0  0  0  0  0  0
  127.0157  104.4063  109.5815 H   0  0  0  0  0  0  0  0  0  0  0  0
  1  5  1  0  0  0  0
  1  6  2  0  0  0  0
  2  3  2  0  0  0  0
  2 18  1  0  0  0  0
  3 19  1  0  0  0  0
  4  5  2  0  0  0  0
  4 24  1  0  0  0  0
  5  8  1  0  0  0  0
  6  9  1  0  0  0  0
  6 24  1  0  0  0  0
  7 17  1  0  0  0  0
  7 18  2  0  0  0  0
  7 19  1  0  0  0  0
  8 21  1  0  0  0  0
  8 22  2  0  0  0  0
  9 20  1  0  0  0  0
  9 23  2  0  0  0  0
 10 11  1  0  0  0  0
 10 12  1  0  0  0  0
 11 14  1  0  0  0  0
 12 20  1  0  0  0  0
 13 14  1  0  0  0  0
 13 20  1  0  0  0  0
 14 19  1  0  0  0  0
 15 17  1  0  0  0  0
 16 17  1  0  0  0  0
  1 25  1  0  0  0  0
  2 26  1  0  0  0  0
  3 27  1  0  0  0  0
  4 28  1  0  0  0  0
 10 29  1  0  0  0  0
 10 30  1  0  0  0  0
 11 31  1  0  0  0  0
 11 32  1  0  0  0  0
 12 33  1  0  0  0  0
 12 34  1  0  0  0  0
 13 35  1  0  0  0  0
 13 36  1  0  0  0  0
 14 37  1  0  0  0  0
 15 38  1  0  0  0  0
 15 39  1  0  0  0  0
 15 40  1  0  0  0  0
 16 41  1  0  0  0  0
 16 42  1  0  0  0  0
 16 43  1  0  0  0  0
 17 44  1  0  0  0  0
 21 45  1  0  0  0  0
 21 46  1  0  0  0  0
M  END
> <FRED Chemgauss4 score>
-10.998102

$$$$
Schulte-2015	P10000001
  -OEChem-05122015313D

 46 47  0     1  0  0  0  0  0999 V2000
  117.6440  109.2234  108.7075 C   0  0  0  0  0  0  0  0  0  0  0  0
  118.6018  109.2058  109.7213 C   0  0  0  0  0  0  0  0  0  0  0  0
  117.9522  108.7095  107.4478 C   0  0  0  0  0  0  0  0  0  0  0  0
  119.8679  108.6745  109.4756 C   0  0  0  0  0  0  0  0  0  0  0  0
  119.2183  108.1783  107.2020 C   0  0  0  0  0  0  0  0  0  0  0  0
  120.1761  108.1607  108.2159 C   0  0  0  0  0  0  0  0  0  0  0  0
  122.5217  107.5387  108.8899 C   0  0  0  0  0  0  0  0  0  0  0  0
  126.6393  106.9968  107.2694 C   0  0  0  0  0  0  0  0  0  0  0  0
  120.6226  105.8399  104.6667 C   0  0  0  0  0  0  0  0  0  0  0  0
  118.7001  105.3748  106.0402 C   0  0  0  0  0  0  0  0  0  0  0  0
  120.9867  104.3591  104.7246 C   0  0  0  0  0  0  0  0  0  0  0  0
  119.1102  103.9051  106.0667 C   0  0  0  0  0  0  0  0  0  0  0  0
  119.5206  107.6349  105.8432 C   0  0  0  0  0  0  0  0  0  0  0  0
  123.7351  106.8945  108.2325 C   0  0  0  0  0  0  0  0  0  0  0  0
  124.9257  106.7748  109.1867 C   0  0  0  0  0  0  0  0  0  0  0  0
  126.1656  106.1999  108.4949 C   0  0  2  0  0  0  0  0  0  0  0  0
  119.8906  106.2216  105.8825 N   0  0  0  0  0  0  0  0  0  0  0  0
  121.4662  107.6263  107.9865 N   0  0  0  0  0  0  0  0  0  0  0  0
  127.2401  106.1138  109.5352 N   0  3  0  0  0  0  0  0  0  0  0  0
  126.9096  108.2094  107.5052 O   0  5  0  0  0  0  0  0  0  0  0  0
  122.5332  107.9067  110.0599 O   0  0  0  0  0  0  0  0  0  0  0  0
  126.7184  106.3537  106.1859 O   0  0  0  0  0  0  0  0  0  0  0  0
  119.8102  103.5627  104.8699 O   0  0  0  0  0  0  0  0  0  0  0  0
  116.6584  109.6374  108.8983 H   0  0  0  0  0  0  0  0  0  0  0  0
  118.3619  109.6067  110.7020 H   0  0  0  0  0  0  0  0  0  0  0  0
  117.1991  108.7282  106.6646 H   0  0  0  0  0  0  0  0  0  0  0  0
  120.6053  108.6663  110.2740 H   0  0  0  0  0  0  0  0  0  0  0  0
  121.5406  106.4277  104.5789 H   0  0  0  0  0  0  0  0  0  0  0  0
  120.0058  106.0274  103.7811 H   0  0  0  0  0  0  0  0  0  0  0  0
  118.0048  105.5430  105.2106 H   0  0  0  0  0  0  0  0  0  0  0  0
  118.1870  105.6153  106.9756 H   0  0  0  0  0  0  0  0  0  0  0  0
  121.4784  104.0604  103.7931 H   0  0  0  0  0  0  0  0  0  0  0  0
  121.6781  104.1450  105.5486 H   0  0  0  0  0  0  0  0  0  0  0  0
  119.7379  103.6748  106.9363 H   0  0  0  0  0  0  0  0  0  0  0  0
  118.2202  103.2705  106.1242 H   0  0  0  0  0  0  0  0  0  0  0  0
  118.6520  107.7324  105.1786 H   0  0  0  0  0  0  0  0  0  0  0  0
  120.3479  108.1791  105.3697 H   0  0  0  0  0  0  0  0  0  0  0  0
  124.0161  107.5029  107.3643 H   0  0  0  0  0  0  0  0  0  0  0  0
  123.4349  105.9052  107.8688 H   0  0  0  0  0  0  0  0  0  0  0  0
  124.6439  106.1585  110.0503 H   0  0  0  0  0  0  0  0  0  0  0  0
  125.1575  107.7715  109.5859 H   0  0  0  0  0  0  0  0  0  0  0  0
  125.9701  105.1624  108.1983 H   0  0  0  0  0  0  0  0  0  0  0  0
  121.6430  107.2636  107.0519 H   0  0  0  0  0  0  0  0  0  0  0  0
  128.0716  105.6675  109.1469 H   0  0  0  0  0  0  0  0  0  0  0  0
  126.9152  105.5648  110.3320 H   0  0  0  0  0  0  0  0  0  0  0  0
  127.4910  107.0479  109.8609 H   0  0  0  0  0  0  0  0  0  0  0  0
  1  2  1  0  0  0  0
  1  3  2  0  0  0  0
  2  4  2  0  0  0  0
  3  5  1  0  0  0  0
  4  6  1  0  0  0  0
  5  6  2  0  0  0  0
  5 13  1  0  0  0  0
  6 18  1  0  0  0  0
  7 14  1  0  0  0  0
  7 18  1  0  0  0  0
  7 21  2  0  0  0  0
  8 16  1  0  0  0  0
  8 20  1  0  0  0  0
  8 22  2  0  0  0  0
  9 11  1  0  0  0  0
  9 17  1  0  0  0  0
 10 12  1  0  0  0  0
 10 17  1  0  0  0  0
 11 23  1  0  0  0  0
 12 23  1  0  0  0  0
 13 17  1  0  0  0  0
 14 15  1  0  0  0  0
 15 16  1  0  0  0  0
 16 19  1  0  0  0  0
  1 24  1  0  0  0  0
  2 25  1  0  0  0  0
  3 26  1  0  0  0  0
  4 27  1  0  0  0  0
  9 28  1  0  0  0  0
  9 29  1  0  0  0  0
 10 30  1  0  0  0  0
 10 31  1  0  0  0  0
 11 32  1  0  0  0  0
 11 33  1  0  0  0  0
 12 34  1  0  0  0  0
 12 35  1  0  0  0  0
 13 36  1  0  0  0  0
 13 37  1  0  0  0  0
 14 38  1  0  0  0  0
 14 39  1  0  0  0  0
 15 40  1  0  0  0  0
 15 41  1  0  0  0  0
 16 42  1  0  0  0  0
 18 43  1  0  0  0  0
 19 44  1  0  0  0  0
 19 45  1  0  0  0  0
 19 46  1  0  0  0  0
M  CHG  2  19   1  20  -1
M  END
> <FRED Chemgauss4 score>
-10.994787

$$$$
C79008569	P123355883
  -OEChem-05122015313D

 42 43  0     1  0  0  0  0  0999 V2000
  125.5326  104.5293  107.9007 C   0  0  0  0  0  0  0  0  0  0  0  0
  125.9516  105.8579  107.8325 C   0  0  0  0  0  0  0  0  0  0  0  0
  124.1709  104.2276  107.9231 C   0  0  0  0  0  0  0  0  0  0  0  0
  123.6472  106.5834  107.8092 C   0  0  0  0  0  0  0  0  0  0  0  0
  118.0039  105.5387  104.8347 C   0  0  0  0  0  0  0  0  0  0  0  0
  125.0090  106.8850  107.7867 C   0  0  0  0  0  0  0  0  0  0  0  0
  123.2282  105.2547  107.8774 C   0  0  0  0  0  0  0  0  0  0  0  0
  118.8597  106.0126  105.8706 C   0  0  0  0  0  0  0  0  0  0  0  0
  117.3931  106.5700  104.1558 C   0  0  0  0  0  0  0  0  0  0  0  0
  118.8706  107.3883  105.9439 C   0  0  0  0  0  0  0  0  0  0  0  0
  125.4462  108.2701  107.7150 C   0  0  0  0  0  0  0  0  0  0  0  0
  116.4425  106.4915  103.0253 C   0  0  0  0  0  0  0  0  0  0  0  0
  119.6206  108.2635  106.8728 C   0  0  0  0  0  0  0  0  0  0  0  0
  119.4357  103.6223  106.4652 C   0  0  0  0  0  0  0  0  0  0  0  0
  121.7721  104.9323  107.9016 C   0  0  0  0  0  0  0  0  0  0  0  0
  119.6575  105.1007  106.7776 C   0  0  1  0  0  0  0  0  0  0  0  0
  124.6496  109.1681  108.2670 N   0  0  0  0  0  0  0  0  0  0  0  0
  126.6414  108.6522  107.0977 N   0  0  0  0  0  0  0  0  0  0  0  0
  121.0848  105.4155  106.7310 N   0  0  0  0  0  0  0  0  0  0  0  0
  125.1582  110.4652  108.1448 O   0  0  0  0  0  0  0  0  0  0  0  0
  117.8518  108.1024  104.7673 S   0  0  0  0  0  0  0  0  0  0  0  0
  126.2667  103.7295  107.9375 H   0  0  0  0  0  0  0  0  0  0  0  0
  127.0153  106.0816  107.8150 H   0  0  0  0  0  0  0  0  0  0  0  0
  123.8535  103.1895  107.9758 H   0  0  0  0  0  0  0  0  0  0  0  0
  122.9108  107.3831  107.7748 H   0  0  0  0  0  0  0  0  0  0  0  0
  117.8433  104.4937  104.5995 H   0  0  0  0  0  0  0  0  0  0  0  0
  115.4035  106.4414  103.3867 H   0  0  0  0  0  0  0  0  0  0  0  0
  116.5259  107.3640  102.3571 H   0  0  0  0  0  0  0  0  0  0  0  0
  116.6246  105.6045  102.3966 H   0  0  0  0  0  0  0  0  0  0  0  0
  120.6058  108.5250  106.4572 H   0  0  0  0  0  0  0  0  0  0  0  0
  119.0800  109.2013  107.0783 H   0  0  0  0  0  0  0  0  0  0  0  0
  119.7823  107.7805  107.8499 H   0  0  0  0  0  0  0  0  0  0  0  0
  119.7234  103.3894  105.4342 H   0  0  0  0  0  0  0  0  0  0  0  0
  120.0343  102.9943  107.1347 H   0  0  0  0  0  0  0  0  0  0  0  0
  118.3887  103.3276  106.5987 H   0  0  0  0  0  0  0  0  0  0  0  0
  121.6078  103.8471  107.9563 H   0  0  0  0  0  0  0  0  0  0  0  0
  121.2765  105.3727  108.7775 H   0  0  0  0  0  0  0  0  0  0  0  0
  119.3535  105.2724  107.8176 H   0  0  0  0  0  0  0  0  0  0  0  0
  127.2734  107.9744  106.6870 H   0  0  0  0  0  0  0  0  0  0  0  0
  126.9384  109.6220  107.0766 H   0  0  0  0  0  0  0  0  0  0  0  0
  121.4844  104.9902  105.8884 H   0  0  0  0  0  0  0  0  0  0  0  0
  124.4697  110.9870  108.5906 H   0  0  0  0  0  0  0  0  0  0  0  0
  1  2  1  0  0  0  0
  1  3  2  0  0  0  0
  2  6  2  0  0  0  0
  3  7  1  0  0  0  0
  4  6  1  0  0  0  0
  4  7  2  0  0  0  0
  5  8  1  0  0  0  0
  5  9  2  0  0  0  0
  6 11  1  0  0  0  0
  7 15  1  0  0  0  0
  8 10  2  0  0  0  0
  8 16  1  0  0  0  0
  9 12  1  0  0  0  0
  9 21  1  0  0  0  0
 10 13  1  0  0  0  0
 10 21  1  0  0  0  0
 11 17  2  0  0  0  0
 11 18  1  0  0  0  0
 14 16  1  0  0  0  0
 15 19  1  0  0  0  0
 16 19  1  0  0  0  0
 17 20  1  0  0  0  0
  1 22  1  0  0  0  0
  2 23  1  0  0  0  0
  3 24  1  0  0  0  0
  4 25  1  0  0  0  0
  5 26  1  0  0  0  0
 12 27  1  0  0  0  0
 12 28  1  0  0  0  0
 12 29  1  0  0  0  0
 13 30  1  0  0  0  0
 13 31  1  0  0  0  0
 13 32  1  0  0  0  0
 14 33  1  0  0  0  0
 14 34  1  0  0  0  0
 14 35  1  0  0  0  0
 15 36  1  0  0  0  0
 15 37  1  0  0  0  0
 16 38  1  0  0  0  0
 18 39  1  0  0  0  0
 18 40  1  0  0  0  0
 19 41  1  0  0  0  0
 20 42  1  0  0  0  0
M  END
> <FRED Chemgauss4 score>
-10.967549

$$$$
C41531205	P62946895
  -OEChem-05122015313D

 41 44  0     1  0  0  0  0  0999 V2000
  119.1936  107.0122  106.8986 C   0  0  0  0  0  0  0  0  0  0  0  0
  124.9712  104.9582  107.1937 C   0  0  0  0  0  0  0  0  0  0  0  0
  116.3600  104.0440  104.0601 C   0  0  0  0  0  0  0  0  0  0  0  0
  116.2441  103.6025  105.3759 C   0  0  0  0  0  0  0  0  0  0  0  0
  125.4659  106.0435  107.9061 C   0  0  0  0  0  0  0  0  0  0  0  0
  123.6244  104.9219  106.8442 C   0  0  0  0  0  0  0  0  0  0  0  0
  117.5877  104.5021  103.5830 C   0  0  0  0  0  0  0  0  0  0  0  0
  117.3547  103.6219  106.2193 C   0  0  0  0  0  0  0  0  0  0  0  0
  124.6132  107.0897  108.2672 C   0  0  0  0  0  0  0  0  0  0  0  0
  120.5865  107.0180  107.2421 C   0  0  0  0  0  0  0  0  0  0  0  0
  122.7670  105.9743  107.2075 C   0  0  0  0  0  0  0  0  0  0  0  0
  118.7133  104.5170  104.4181 C   0  0  0  0  0  0  0  0  0  0  0  0
  118.5917  104.0903  105.7551 C   0  0  0  0  0  0  0  0  0  0  0  0
  123.2624  107.0795  107.9307 C   0  0  0  0  0  0  0  0  0  0  0  0
  121.4072  105.9635  106.8687 C   0  0  0  0  0  0  0  0  0  0  0  0
  121.1617  108.0553  107.9479 C   0  0  0  0  0  0  0  0  0  0  0  0
  120.0233  105.0530  103.8922 C   0  0  0  0  0  0  0  0  0  0  0  0
  119.7884  104.0692  106.6785 C   0  0  0  0  0  0  0  0  0  0  0  0
  121.2166  104.6522  104.7636 C   0  0  0  0  0  0  0  0  0  0  0  0
  120.4615  109.3374  110.2671 C   0  0  0  0  0  0  0  0  0  0  0  0
  118.0669  107.0075  106.6206 N   0  0  0  0  0  0  0  0  0  0  0  0
  122.4684  108.1043  108.2945 N   0  0  0  0  0  0  0  0  0  0  0  0
  120.8741  104.9100  106.1639 N   0  0  3  0  0  0  0  0  0  0  0  0
  120.2122  109.4775  108.4854 S   0  0  0  0  0  0  0  0  0  0  0  0
  125.6308  104.1433  106.9115 H   0  0  0  0  0  0  0  0  0  0  0  0
  115.4940  104.0316  103.4045 H   0  0  0  0  0  0  0  0  0  0  0  0
  115.2890  103.2394  105.7444 H   0  0  0  0  0  0  0  0  0  0  0  0
  126.5155  106.0800  108.1831 H   0  0  0  0  0  0  0  0  0  0  0  0
  123.2670  104.0587  106.2883 H   0  0  0  0  0  0  0  0  0  0  0  0
  117.6618  104.8510  102.5560 H   0  0  0  0  0  0  0  0  0  0  0  0
  117.2519  103.2655  107.2407 H   0  0  0  0  0  0  0  0  0  0  0  0
  125.0251  107.9287  108.8253 H   0  0  0  0  0  0  0  0  0  0  0  0
  120.1634  104.6717  102.8671 H   0  0  0  0  0  0  0  0  0  0  0  0
  119.9849  106.1525  103.8287 H   0  0  0  0  0  0  0  0  0  0  0  0
  119.4704  104.4320  107.6589 H   0  0  0  0  0  0  0  0  0  0  0  0
  120.1440  103.0410  106.7717 H   0  0  0  0  0  0  0  0  0  0  0  0
  121.4223  103.5891  104.6010 H   0  0  0  0  0  0  0  0  0  0  0  0
  122.1130  105.2154  104.4822 H   0  0  0  0  0  0  0  0  0  0  0  0
  119.9381  110.1477  110.7805 H   0  0  0  0  0  0  0  0  0  0  0  0
  121.5277  109.3988  110.4986 H   0  0  0  0  0  0  0  0  0  0  0  0
  120.0732  108.3797  110.6220 H   0  0  0  0  0  0  0  0  0  0  0  0
  1 10  1  0  0  0  0
  1 21  3  0  0  0  0
  2  5  1  0  0  0  0
  2  6  2  0  0  0  0
  3  4  1  0  0  0  0
  3  7  2  0  0  0  0
  4  8  2  0  0  0  0
  5  9  2  0  0  0  0
  6 11  1  0  0  0  0
  7 12  1  0  0  0  0
  8 13  1  0  0  0  0
  9 14  1  0  0  0  0
 10 15  2  0  0  0  0
 10 16  1  0  0  0  0
 11 14  2  0  0  0  0
 11 15  1  0  0  0  0
 12 13  2  0  0  0  0
 12 17  1  0  0  0  0
 13 18  1  0  0  0  0
 14 22  1  0  0  0  0
 15 23  1  0  0  0  0
 16 22  2  0  0  0  0
 16 24  1  0  0  0  0
 17 19  1  0  0  0  0
 18 23  1  0  0  0  0
 19 23  1  0  0  0  0
 20 24  1  0  0  0  0
  2 25  1  0  0  0  0
  3 26  1  0  0  0  0
  4 27  1  0  0  0  0
  5 28  1  0  0  0  0
  6 29  1  0  0  0  0
  7 30  1  0  0  0  0
  8 31  1  0  0  0  0
  9 32  1  0  0  0  0
 17 33  1  0  0  0  0
 17 34  1  0  0  0  0
 18 35  1  0  0  0  0
 18 36  1  0  0  0  0
 19 37  1  0  0  0  0
 19 38  1  0  0  0  0
 20 39  1  0  0  0  0
 20 40  1  0  0  0  0
 20 41  1  0  0  0  0
M  END
> <FRED Chemgauss4 score>
-10.960027

$$$$
C78952131	P123232536
  -OEChem-05122015313D

 33 34  0     0  0  0  0  0  0999 V2000
  123.5011  105.2363  107.0408 C   0  0  0  0  0  0  0  0  0  0  0  0
  120.6399  106.4070  104.9865 C   0  0  0  0  0  0  0  0  0  0  0  0
  124.3054  104.3252  107.7253 C   0  0  0  0  0  0  0  0  0  0  0  0
  119.4982  106.0282  104.2804 C   0  0  0  0  0  0  0  0  0  0  0  0
  125.8738  106.0913  108.2332 C   0  0  0  0  0  0  0  0  0  0  0  0
  118.1318  107.3217  105.7960 C   0  0  0  0  0  0  0  0  0  0  0  0
  125.0695  107.0024  107.5486 C   0  0  0  0  0  0  0  0  0  0  0  0
  123.8832  106.5749  106.9523 C   0  0  0  0  0  0  0  0  0  0  0  0
  120.5276  107.2431  106.0974 C   0  0  0  0  0  0  0  0  0  0  0  0
  125.4917  104.7527  108.3216 C   0  0  0  0  0  0  0  0  0  0  0  0
  118.2441  106.4856  104.6852 C   0  0  0  0  0  0  0  0  0  0  0  0
  119.2735  107.7005  106.5021 C   0  0  0  0  0  0  0  0  0  0  0  0
  125.4929  108.3941  107.4702 C   0  0  0  0  0  0  0  0  0  0  0  0
  123.0035  107.5297  106.2132 C   0  0  0  0  0  0  0  0  0  0  0  0
  125.0773  109.1886  108.4391 N   0  0  0  0  0  0  0  0  0  0  0  0
  126.2933  108.8785  106.4326 N   0  0  0  0  0  0  0  0  0  0  0  0
  121.6815  107.6030  106.7793 N   0  0  0  0  0  0  0  0  0  0  0  0
  124.2898  108.5060  109.3718 O   0  0  0  0  0  0  0  0  0  0  0  0
  126.2642  103.8776  108.9786 F   0  0  0  0  0  0  0  0  0  0  0  0
  116.8361  106.0191  103.8123 Cl  0  0  0  0  0  0  0  0  0  0  0  0
  119.0904  108.7397  107.8700 Cl  0  0  0  0  0  0  0  0  0  0  0  0
  122.5789  104.8935  106.5789 H   0  0  0  0  0  0  0  0  0  0  0  0
  121.6118  106.0445  104.6611 H   0  0  0  0  0  0  0  0  0  0  0  0
  124.0081  103.2830  107.7942 H   0  0  0  0  0  0  0  0  0  0  0  0
  119.6009  105.3768  103.4164 H   0  0  0  0  0  0  0  0  0  0  0  0
  126.8002  106.4110  108.7034 H   0  0  0  0  0  0  0  0  0  0  0  0
  117.1527  107.6780  106.1095 H   0  0  0  0  0  0  0  0  0  0  0  0
  123.4259  108.5433  106.2243 H   0  0  0  0  0  0  0  0  0  0  0  0
  122.8950  107.2407  105.1598 H   0  0  0  0  0  0  0  0  0  0  0  0
  126.6365  108.2768  105.6927 H   0  0  0  0  0  0  0  0  0  0  0  0
  126.5943  109.8470  106.4077 H   0  0  0  0  0  0  0  0  0  0  0  0
  121.5846  107.9361  107.7340 H   0  0  0  0  0  0  0  0  0  0  0  0
  124.0727  109.2156  109.9997 H   0  0  0  0  0  0  0  0  0  0  0  0
  1  3  1  0  0  0  0
  1  8  2  0  0  0  0
  2  4  2  0  0  0  0
  2  9  1  0  0  0  0
  3 10  2  0  0  0  0
  4 11  1  0  0  0  0
  5  7  2  0  0  0  0
  5 10  1  0  0  0  0
  6 11  2  0  0  0  0
  6 12  1  0  0  0  0
  7  8  1  0  0  0  0
  7 13  1  0  0  0  0
  8 14  1  0  0  0  0
  9 12  2  0  0  0  0
  9 17  1  0  0  0  0
 10 19  1  0  0  0  0
 11 20  1  0  0  0  0
 12 21  1  0  0  0  0
 13 15  2  0  0  0  0
 13 16  1  0  0  0  0
 14 17  1  0  0  0  0
 15 18  1  0  0  0  0
  1 22  1  0  0  0  0
  2 23  1  0  0  0  0
  3 24  1  0  0  0  0
  4 25  1  0  0  0  0
  5 26  1  0  0  0  0
  6 27  1  0  0  0  0
 14 28  1  0  0  0  0
 14 29  1  0  0  0  0
 16 30  1  0  0  0  0
 16 31  1  0  0  0  0
 17 32  1  0  0  0  0
 18 33  1  0  0  0  0
M  END
> <FRED Chemgauss4 score>
-10.957824

$$$$
C50499210	P75511884
  -OEChem-05122015313D

 40 40  0     1  0  0  0  0  0999 V2000
  125.9758  107.9723  107.1346 C   0  0  0  0  0  0  0  0  0  0  0  0
  117.1921  104.4793  104.3837 C   0  0  0  0  0  0  0  0  0  0  0  0
  118.1220  103.3278  104.7326 C   0  0  0  0  0  0  0  0  0  0  0  0
  118.0023  105.7134  104.0089 C   0  0  0  0  0  0  0  0  0  0  0  0
  119.1344  103.7454  105.7965 C   0  0  0  0  0  0  0  0  0  0  0  0
  119.0326  106.0783  105.0968 C   0  0  2  0  0  0  0  0  0  0  0  0
  125.2856  106.7350  107.6783 C   0  0  0  0  0  0  0  0  0  0  0  0
  119.8091  107.3155  104.6237 C   0  0  0  0  0  0  0  0  0  0  0  0
  120.9228  105.2200  106.3995 C   0  0  0  0  0  0  0  0  0  0  0  0
  124.1704  106.2197  106.7843 C   0  0  0  0  0  0  0  0  0  0  0  0
  122.1683  104.3694  106.2403 C   0  0  0  0  0  0  0  0  0  0  0  0
  119.9155  104.9226  105.3770 N   0  0  1  0  0  0  0  0  0  0  0  0
  126.9822  108.4179  107.9647 N   0  0  0  0  0  0  0  0  0  0  0  0
  125.6883  108.5064  106.0675 O   0  0  0  0  0  0  0  0  0  0  0  0
  122.7350  105.1283  108.6766 O   0  0  0  0  0  0  0  0  0  0  0  0
  124.3974  103.6966  107.4282 O   0  0  0  0  0  0  0  0  0  0  0  0
  120.8059  106.8903  103.7174 O   0  0  0  0  0  0  0  0  0  0  0  0
  123.4034  104.7563  107.4414 S   0  0  0  0  0  0  0  0  0  0  0  0
  116.5351  104.1948  103.5545 H   0  0  0  0  0  0  0  0  0  0  0  0
  116.5488  104.7082  105.2421 H   0  0  0  0  0  0  0  0  0  0  0  0
  117.5362  102.4746  105.0928 H   0  0  0  0  0  0  0  0  0  0  0  0
  118.6510  102.9952  103.8304 H   0  0  0  0  0  0  0  0  0  0  0  0
  118.5148  105.5321  103.0545 H   0  0  0  0  0  0  0  0  0  0  0  0
  117.3159  106.5530  103.8446 H   0  0  0  0  0  0  0  0  0  0  0  0
  118.6136  103.9436  106.7428 H   0  0  0  0  0  0  0  0  0  0  0  0
  119.8074  102.8963  105.9688 H   0  0  0  0  0  0  0  0  0  0  0  0
  118.4865  106.3516  106.0106 H   0  0  0  0  0  0  0  0  0  0  0  0
  126.0533  105.9578  107.7747 H   0  0  0  0  0  0  0  0  0  0  0  0
  124.9031  106.9532  108.6824 H   0  0  0  0  0  0  0  0  0  0  0  0
  120.2731  107.8005  105.4783 H   0  0  0  0  0  0  0  0  0  0  0  0
  119.1292  108.0016  104.1258 H   0  0  0  0  0  0  0  0  0  0  0  0
  120.4553  105.0688  107.3775 H   0  0  0  0  0  0  0  0  0  0  0  0
  121.1755  106.2798  106.2980 H   0  0  0  0  0  0  0  0  0  0  0  0
  123.3798  106.9610  106.6367 H   0  0  0  0  0  0  0  0  0  0  0  0
  124.5707  105.9377  105.8055 H   0  0  0  0  0  0  0  0  0  0  0  0
  122.6270  104.5449  105.2626 H   0  0  0  0  0  0  0  0  0  0  0  0
  121.9474  103.3024  106.3403 H   0  0  0  0  0  0  0  0  0  0  0  0
  127.1779  107.9184  108.8264 H   0  0  0  0  0  0  0  0  0  0  0  0
  127.5299  109.2379  107.7265 H   0  0  0  0  0  0  0  0  0  0  0  0
  121.2890  107.6837  103.4265 H   0  0  0  0  0  0  0  0  0  0  0  0
  1  7  1  0  0  0  0
  1 13  1  0  0  0  0
  1 14  2  0  0  0  0
  2  3  1  0  0  0  0
  2  4  1  0  0  0  0
  3  5  1  0  0  0  0
  4  6  1  0  0  0  0
  5 12  1  0  0  0  0
  6  8  1  0  0  0  0
  6 12  1  0  0  0  0
  7 10  1  0  0  0  0
  8 17  1  0  0  0  0
  9 11  1  0  0  0  0
  9 12  1  0  0  0  0
 10 18  1  0  0  0  0
 11 18  1  0  0  0  0
 15 18  2  0  0  0  0
 16 18  2  0  0  0  0
  2 19  1  0  0  0  0
  2 20  1  0  0  0  0
  3 21  1  0  0  0  0
  3 22  1  0  0  0  0
  4 23  1  0  0  0  0
  4 24  1  0  0  0  0
  5 25  1  0  0  0  0
  5 26  1  0  0  0  0
  6 27  1  0  0  0  0
  7 28  1  0  0  0  0
  7 29  1  0  0  0  0
  8 30  1  0  0  0  0
  8 31  1  0  0  0  0
  9 32  1  0  0  0  0
  9 33  1  0  0  0  0
 10 34  1  0  0  0  0
 10 35  1  0  0  0  0
 11 36  1  0  0  0  0
 11 37  1  0  0  0  0
 13 38  1  0  0  0  0
 13 39  1  0  0  0  0
 17 40  1  0  0  0  0
M  END
> <FRED Chemgauss4 score>
-10.954725

$$$$
C37191777	P55304598
  -OEChem-05122015313D

 32 34  0     0  0  0  0  0  0999 V2000
  116.6915  104.8807  102.7722 C   0  0  0  0  0  0  0  0  0  0  0  0
  118.0261  105.1055  103.0776 C   0  0  0  0  0  0  0  0  0  0  0  0
  119.6449  103.4620  106.5753 C   0  0  0  0  0  0  0  0  0  0  0  0
  118.3048  103.2541  106.2394 C   0  0  0  0  0  0  0  0  0  0  0  0
  125.7341  104.9031  107.8701 C   0  0  0  0  0  0  0  0  0  0  0  0
  124.5811  104.9680  107.0957 C   0  0  0  0  0  0  0  0  0  0  0  0
  119.9314  104.7726  104.5810 C   0  0  0  0  0  0  0  0  0  0  0  0
  115.9558  104.1140  103.6529 C   0  0  0  0  0  0  0  0  0  0  0  0
  125.1689  107.0198  108.7958 C   0  0  0  0  0  0  0  0  0  0  0  0
  118.5835  104.5633  104.2434 C   0  0  0  0  0  0  0  0  0  0  0  0
  120.4595  104.2222  105.7453 C   0  0  0  0  0  0  0  0  0  0  0  0
  117.7505  103.7927  105.0815 C   0  0  0  0  0  0  0  0  0  0  0  0
  126.0408  105.9445  108.7389 C   0  0  0  0  0  0  0  0  0  0  0  0
  123.7744  106.0869  107.2262 C   0  0  0  0  0  0  0  0  0  0  0  0
  121.8901  104.4462  106.0992 C   0  0  0  0  0  0  0  0  0  0  0  0
  116.4550  103.5727  104.7877 N   0  0  0  0  0  0  0  0  0  0  0  0
  124.0396  107.1182  108.0592 N   0  0  0  0  0  0  0  0  0  0  0  0
  127.1979  105.9067  109.5337 N   0  0  0  0  0  0  0  0  0  0  0  0
  122.3006  106.2108  106.2617 S   0  0  0  0  0  0  0  0  0  0  0  0
  116.2436  105.2922  101.8755 H   0  0  0  0  0  0  0  0  0  0  0  0
  118.6293  105.7063  102.4007 H   0  0  0  0  0  0  0  0  0  0  0  0
  120.0402  103.0250  107.4885 H   0  0  0  0  0  0  0  0  0  0  0  0
  117.6877  102.6551  106.9067 H   0  0  0  0  0  0  0  0  0  0  0  0
  126.3855  104.0369  107.7901 H   0  0  0  0  0  0  0  0  0  0  0  0
  124.3394  104.1571  106.4161 H   0  0  0  0  0  0  0  0  0  0  0  0
  120.5712  105.3670  103.9312 H   0  0  0  0  0  0  0  0  0  0  0  0
  114.9074  103.9051  103.4669 H   0  0  0  0  0  0  0  0  0  0  0  0
  125.3552  107.8629  109.4542 H   0  0  0  0  0  0  0  0  0  0  0  0
  122.1438  103.9443  107.0449 H   0  0  0  0  0  0  0  0  0  0  0  0
  122.5530  104.0083  105.3380 H   0  0  0  0  0  0  0  0  0  0  0  0
  127.7879  105.0961  109.5091 H   0  0  0  0  0  0  0  0  0  0  0  0
  127.3727  106.6477  110.1867 H   0  0  0  0  0  0  0  0  0  0  0  0
  1  2  1  0  0  0  0
  1  8  2  0  0  0  0
  2 10  2  0  0  0  0
  3  4  2  0  0  0  0
  3 11  1  0  0  0  0
  4 12  1  0  0  0  0
  5  6  2  0  0  0  0
  5 13  1  0  0  0  0
  6 14  1  0  0  0  0
  7 10  1  0  0  0  0
  7 11  2  0  0  0  0
  8 16  1  0  0  0  0
  9 13  2  0  0  0  0
  9 17  1  0  0  0  0
 10 12  1  0  0  0  0
 11 15  1  0  0  0  0
 12 16  2  0  0  0  0
 13 18  1  0  0  0  0
 14 17  2  0  0  0  0
 14 19  1  0  0  0  0
 15 19  1  0  0  0  0
  1 20  1  0  0  0  0
  2 21  1  0  0  0  0
  3 22  1  0  0  0  0
  4 23  1  0  0  0  0
  5 24  1  0  0  0  0
  6 25  1  0  0  0  0
  7 26  1  0  0  0  0
  8 27  1  0  0  0  0
  9 28  1  0  0  0  0
 15 29  1  0  0  0  0
 15 30  1  0  0  0  0
 18 31  1  0  0  0  0
 18 32  1  0  0  0  0
M  END
> <FRED Chemgauss4 score>
-10.944851

$$$$
C91517717	P143209456
  -OEChem-05122015313D

 41 42  0     1  0  0  0  0  0999 V2000
  119.7742  106.0186  107.0252 C   0  0  0  0  0  0  0  0  0  0  0  0
  117.8956  105.1783  105.7598 C   0  0  0  0  0  0  0  0  0  0  0  0
  119.7958  103.7505  106.1931 C   0  0  0  0  0  0  0  0  0  0  0  0
  118.5147  106.2144  106.4590 C   0  0  0  0  0  0  0  0  0  0  0  0
  120.4148  104.7866  106.8923 C   0  0  0  0  0  0  0  0  0  0  0  0
  118.5361  103.9463  105.6268 C   0  0  0  0  0  0  0  0  0  0  0  0
  124.0755  104.4945  107.2683 C   0  0  0  0  0  0  0  0  0  0  0  0
  122.9179  106.5890  108.0512 C   0  0  0  0  0  0  0  0  0  0  0  0
  125.3642  105.3029  107.2555 C   0  0  0  0  0  0  0  0  0  0  0  0
  122.8355  105.3823  107.0918 C   0  0  1  0  0  0  0  0  0  0  0  0
  124.3016  107.2699  108.1657 C   0  0  0  0  0  0  0  0  0  0  0  0
  117.8298  107.5318  106.5992 C   0  0  0  0  0  0  0  0  0  0  0  0
  124.5925  108.2612  107.0308 C   0  0  0  0  0  0  0  0  0  0  0  0
  124.3442  108.0656  109.4839 C   0  0  0  0  0  0  0  0  0  0  0  0
  122.6507  105.8059  105.6278 C   0  0  0  0  0  0  0  0  0  0  0  0
  121.6622  104.5927  107.4516 N   0  0  0  0  0  0  0  0  0  0  0  0
  125.3512  106.2998  108.2719 O   0  0  0  0  0  0  0  0  0  0  0  0
  121.8101  106.9412  105.5997 O   0  0  0  0  0  0  0  0  0  0  0  0
  117.9413  102.9513  104.9559 F   0  0  0  0  0  0  0  0  0  0  0  0
  120.2558  106.8283  107.5687 H   0  0  0  0  0  0  0  0  0  0  0  0
  116.9144  105.3213  105.3152 H   0  0  0  0  0  0  0  0  0  0  0  0
  120.2860  102.7864  106.0829 H   0  0  0  0  0  0  0  0  0  0  0  0
  124.1161  103.7760  106.4378 H   0  0  0  0  0  0  0  0  0  0  0  0
  124.0157  103.9111  108.1960 H   0  0  0  0  0  0  0  0  0  0  0  0
  122.2046  107.3441  107.6753 H   0  0  0  0  0  0  0  0  0  0  0  0
  122.5513  106.3118  109.0549 H   0  0  0  0  0  0  0  0  0  0  0  0
  126.2477  104.6659  107.3562 H   0  0  0  0  0  0  0  0  0  0  0  0
  125.4574  105.8202  106.2954 H   0  0  0  0  0  0  0  0  0  0  0  0
  118.0960  108.1915  105.7643 H   0  0  0  0  0  0  0  0  0  0  0  0
  116.7385  107.4139  106.6152 H   0  0  0  0  0  0  0  0  0  0  0  0
  118.1092  108.0282  107.5378 H   0  0  0  0  0  0  0  0  0  0  0  0
  125.5755  108.6963  107.1786 H   0  0  0  0  0  0  0  0  0  0  0  0
  123.8416  109.0444  107.0383 H   0  0  0  0  0  0  0  0  0  0  0  0
  124.5641  107.7368  106.0813 H   0  0  0  0  0  0  0  0  0  0  0  0
  125.3106  108.5511  109.5808 H   0  0  0  0  0  0  0  0  0  0  0  0
  124.1926  107.3881  110.3188 H   0  0  0  0  0  0  0  0  0  0  0  0
  123.5593  108.8160  109.4774 H   0  0  0  0  0  0  0  0  0  0  0  0
  122.1895  104.9944  105.0710 H   0  0  0  0  0  0  0  0  0  0  0  0
  123.6171  106.0546  105.1973 H   0  0  0  0  0  0  0  0  0  0  0  0
  121.7797  103.8689  108.1457 H   0  0  0  0  0  0  0  0  0  0  0  0
  121.7025  107.1974  104.6669 H   0  0  0  0  0  0  0  0  0  0  0  0
  1  4  1  0  0  0  0
  1  5  2  0  0  0  0
  2  4  2  0  0  0  0
  2  6  1  0  0  0  0
  3  5  1  0  0  0  0
  3  6  2  0  0  0  0
  4 12  1  0  0  0  0
  5 16  1  0  0  0  0
  6 19  1  0  0  0  0
  7  9  1  0  0  0  0
  7 10  1  0  0  0  0
  8 10  1  0  0  0  0
  8 11  1  0  0  0  0
  9 17  1  0  0  0  0
 10 15  1  0  0  0  0
 10 16  1  0  0  0  0
 11 13  1  0  0  0  0
 11 14  1  0  0  0  0
 11 17  1  0  0  0  0
 15 18  1  0  0  0  0
  1 20  1  0  0  0  0
  2 21  1  0  0  0  0
  3 22  1  0  0  0  0
  7 23  1  0  0  0  0
  7 24  1  0  0  0  0
  8 25  1  0  0  0  0
  8 26  1  0  0  0  0
  9 27  1  0  0  0  0
  9 28  1  0  0  0  0
 12 29  1  0  0  0  0
 12 30  1  0  0  0  0
 12 31  1  0  0  0  0
 13 32  1  0  0  0  0
 13 33  1  0  0  0  0
 13 34  1  0  0  0  0
 14 35  1  0  0  0  0
 14 36  1  0  0  0  0
 14 37  1  0  0  0  0
 15 38  1  0  0  0  0
 15 39  1  0  0  0  0
 16 40  1  0  0  0  0
 18 41  1  0  0  0  0
M  END
> <FRED Chemgauss4 score>
-10.943564

$$$$
C80531866	P125774789
  -OEChem-05122015313D

 40 41  0     1  0  0  0  0  0999 V2000
  124.5386  104.1399  107.3572 C   0  0  0  0  0  0  0  0  0  0  0  0
  125.2686  105.2861  107.6715 C   0  0  0  0  0  0  0  0  0  0  0  0
  123.3742  104.2415  106.5958 C   0  0  0  0  0  0  0  0  0  0  0  0
  123.6700  106.6356  106.4629 C   0  0  0  0  0  0  0  0  0  0  0  0
  119.5019  109.3834  107.0447 C   0  0  0  0  0  0  0  0  0  0  0  0
  124.8344  106.5340  107.2244 C   0  0  0  0  0  0  0  0  0  0  0  0
  122.9400  105.4893  106.1487 C   0  0  0  0  0  0  0  0  0  0  0  0
  120.1334  107.4430  107.4841 C   0  0  0  0  0  0  0  0  0  0  0  0
  124.2991  108.2050  109.6965 C   0  0  0  0  0  0  0  0  0  0  0  0
  119.8206  103.8327  106.4757 C   0  0  0  0  0  0  0  0  0  0  0  0
  120.2637  105.9555  107.6410 C   0  0  0  0  0  0  0  0  0  0  0  0
  124.7901  108.7836  108.3750 C   0  0  0  0  0  0  0  0  0  0  0  0
  125.6281  107.7787  107.5662 C   0  0  2  0  0  0  0  0  0  0  0  0
  119.1236  108.0760  106.9337 N   0  0  0  0  0  0  0  0  0  0  0  0
  121.0651  108.3421  107.9005 N   0  0  0  0  0  0  0  0  0  0  0  0
  120.6823  109.5991  107.6291 N   0  0  0  0  0  0  0  0  0  0  0  0
  126.1656  108.3866  106.3694 N   0  0  0  0  0  0  0  0  0  0  0  0
  120.2281  105.2535  106.3328 N   0  0  1  0  0  0  0  0  0  0  0  0
  121.3379  107.0022  104.7654 O   0  0  0  0  0  0  0  0  0  0  0  0
  121.5101  104.5710  104.1790 O   0  0  0  0  0  0  0  0  0  0  0  0
  121.4820  105.6159  105.1969 S   0  0  0  0  0  0  0  0  0  0  0  0
  124.8770  103.1681  107.7047 H   0  0  0  0  0  0  0  0  0  0  0  0
  126.1752  105.1972  108.2644 H   0  0  0  0  0  0  0  0  0  0  0  0
  122.8131  103.3419  106.3575 H   0  0  0  0  0  0  0  0  0  0  0  0
  123.3328  107.6090  106.1148 H   0  0  0  0  0  0  0  0  0  0  0  0
  118.8845  110.1948  106.6820 H   0  0  0  0  0  0  0  0  0  0  0  0
  125.1377  107.8562  110.3075 H   0  0  0  0  0  0  0  0  0  0  0  0
  123.7614  108.9702  110.2653 H   0  0  0  0  0  0  0  0  0  0  0  0
  123.6162  107.3651  109.5356 H   0  0  0  0  0  0  0  0  0  0  0  0
  119.8045  103.3462  105.4970 H   0  0  0  0  0  0  0  0  0  0  0  0
  118.8223  103.7684  106.9171 H   0  0  0  0  0  0  0  0  0  0  0  0
  120.5243  103.3008  107.1217 H   0  0  0  0  0  0  0  0  0  0  0  0
  121.2077  105.7006  108.1349 H   0  0  0  0  0  0  0  0  0  0  0  0
  119.4543  105.5531  108.2590 H   0  0  0  0  0  0  0  0  0  0  0  0
  123.9210  109.1199  107.7957 H   0  0  0  0  0  0  0  0  0  0  0  0
  125.3912  109.6759  108.5916 H   0  0  0  0  0  0  0  0  0  0  0  0
  126.5012  107.4922  108.1655 H   0  0  0  0  0  0  0  0  0  0  0  0
  121.2441  110.4129  107.8634 H   0  0  0  0  0  0  0  0  0  0  0  0
  126.4529  107.7929  105.6127 H   0  0  0  0  0  0  0  0  0  0  0  0
  126.4284  109.3551  106.3954 H   0  0  0  0  0  0  0  0  0  0  0  0
  1  2  2  0  0  0  0
  1  3  1  0  0  0  0
  2  6  1  0  0  0  0
  3  7  2  0  0  0  0
  4  6  2  0  0  0  0
  4  7  1  0  0  0  0
  5 14  2  0  0  0  0
  5 16  1  0  0  0  0
  6 13  1  0  0  0  0
  7 21  1  0  0  0  0
  8 11  1  0  0  0  0
  8 14  1  0  0  0  0
  8 15  2  0  0  0  0
  9 12  1  0  0  0  0
 10 18  1  0  0  0  0
 11 18  1  0  0  0  0
 12 13  1  0  0  0  0
 13 17  1  0  0  0  0
 15 16  1  0  0  0  0
 18 21  1  0  0  0  0
 19 21  2  0  0  0  0
 20 21  2  0  0  0  0
  1 22  1  0  0  0  0
  2 23  1  0  0  0  0
  3 24  1  0  0  0  0
  4 25  1  0  0  0  0
  5 26  1  0  0  0  0
  9 27  1  0  0  0  0
  9 28  1  0  0  0  0
  9 29  1  0  0  0  0
 10 30  1  0  0  0  0
 10 31  1  0  0  0  0
 10 32  1  0  0  0  0
 11 33  1  0  0  0  0
 11 34  1  0  0  0  0
 12 35  1  0  0  0  0
 12 36  1  0  0  0  0
 13 37  1  0  0  0  0
 16 38  1  0  0  0  0
 17 39  1  0  0  0  0
 17 40  1  0  0  0  0
M  END
> <FRED Chemgauss4 score>
-10.941055

$$$$
C80532104	P125763200
  -OEChem-05122015313D

 33 34  0     1  0  0  0  0  0999 V2000
  125.6436  107.4251  107.3003 C   0  0  0  0  0  0  0  0  0  0  0  0
  123.7305  107.7615  108.7185 C   0  0  0  0  0  0  0  0  0  0  0  0
  125.9443  108.7658  107.4790 C   0  0  0  0  0  0  0  0  0  0  0  0
  118.3614  104.5456  105.8167 C   0  0  0  0  0  0  0  0  0  0  0  0
  118.9324  103.3238  106.0844 C   0  0  0  0  0  0  0  0  0  0  0  0
  124.5140  106.9212  107.9353 C   0  0  0  0  0  0  0  0  0  0  0  0
  124.1169  109.0871  108.8338 C   0  0  0  0  0  0  0  0  0  0  0  0
  120.1950  104.9792  106.8067 C   0  0  0  0  0  0  0  0  0  0  0  0
  122.7570  105.9273  105.4389 C   0  0  0  0  0  0  0  0  0  0  0  0
  121.3737  105.6452  107.4558 C   0  0  0  0  0  0  0  0  0  0  0  0
  125.2074  109.6128  108.2321 N   0  0  0  0  0  0  0  0  0  0  0  0
  119.1525  105.5720  106.2685 N   0  0  0  0  0  0  0  0  0  0  0  0
  120.1066  103.6177  106.7184 N   0  0  0  0  0  0  0  0  0  0  0  0
  123.4341  111.2964  109.5921 N   0  0  0  0  0  0  0  0  0  0  0  0
  123.3087  109.9311  109.6354 N   0  0  0  0  0  0  0  0  0  0  0  0
  122.6498  105.2984  106.7799 N   0  0  2  0  0  0  0  0  0  0  0  0
  125.1368  104.5792  106.9887 O   0  0  0  0  0  0  0  0  0  0  0  0
  123.7373  104.7100  109.0644 O   0  0  0  0  0  0  0  0  0  0  0  0
  124.0754  105.2157  107.7467 S   0  0  0  0  0  0  0  0  0  0  0  0
  126.2760  106.7968  106.6825 H   0  0  0  0  0  0  0  0  0  0  0  0
  122.8448  107.3865  109.2222 H   0  0  0  0  0  0  0  0  0  0  0  0
  126.8146  109.2077  107.0052 H   0  0  0  0  0  0  0  0  0  0  0  0
  117.4217  104.7383  105.3202 H   0  0  0  0  0  0  0  0  0  0  0  0
  118.6224  102.3074  105.8897 H   0  0  0  0  0  0  0  0  0  0  0  0
  123.7053  105.6525  104.9698 H   0  0  0  0  0  0  0  0  0  0  0  0
  122.7105  107.0161  105.5273 H   0  0  0  0  0  0  0  0  0  0  0  0
  121.9371  105.5925  104.7978 H   0  0  0  0  0  0  0  0  0  0  0  0
  121.2639  106.7348  107.4304 H   0  0  0  0  0  0  0  0  0  0  0  0
  121.4612  105.3516  108.5071 H   0  0  0  0  0  0  0  0  0  0  0  0
  120.7838  102.9493  107.0616 H   0  0  0  0  0  0  0  0  0  0  0  0
  123.4114  111.6461  110.5489 H   0  0  0  0  0  0  0  0  0  0  0  0
  122.6108  111.6828  109.1321 H   0  0  0  0  0  0  0  0  0  0  0  0
  122.5002  109.5240  110.0765 H   0  0  0  0  0  0  0  0  0  0  0  0
  1  3  2  0  0  0  0
  1  6  1  0  0  0  0
  2  6  2  0  0  0  0
  2  7  1  0  0  0  0
  3 11  1  0  0  0  0
  4  5  2  0  0  0  0
  4 12  1  0  0  0  0
  5 13  1  0  0  0  0
  6 19  1  0  0  0  0
  7 11  2  0  0  0  0
  7 15  1  0  0  0  0
  8 10  1  0  0  0  0
  8 12  2  0  0  0  0
  8 13  1  0  0  0  0
  9 16  1  0  0  0  0
 10 16  1  0  0  0  0
 14 15  1  0  0  0  0
 16 19  1  0  0  0  0
 17 19  2  0  0  0  0
 18 19  2  0  0  0  0
  1 20  1  0  0  0  0
  2 21  1  0  0  0  0
  3 22  1  0  0  0  0
  4 23  1  0  0  0  0
  5 24  1  0  0  0  0
  9 25  1  0  0  0  0
  9 26  1  0  0  0  0
  9 27  1  0  0  0  0
 10 28  1  0  0  0  0
 10 29  1  0  0  0  0
 13 30  1  0  0  0  0
 14 31  1  0  0  0  0
 14 32  1  0  0  0  0
 15 33  1  0  0  0  0
M  END
> <FRED Chemgauss4 score>
-10.938492

$$$$
C89508612	P139912302
  -OEChem-05122015313D

 40 42  0     1  0  0  0  0  0999 V2000
  122.9346  111.1157  112.1628 C   0  0  0  0  0  0  0  0  0  0  0  0
  123.3680  110.8633  110.8292 C   0  0  0  0  0  0  0  0  0  0  0  0
  123.0620  110.0047  112.9673 C   0  0  0  0  0  0  0  0  0  0  0  0
  123.8105  109.5690  110.6652 C   0  0  0  0  0  0  0  0  0  0  0  0
  118.9397  103.8560  105.7974 C   0  0  0  0  0  0  0  0  0  0  0  0
  119.9674  104.7026  105.6564 C   0  0  0  0  0  0  0  0  0  0  0  0
  118.3311  106.2393  106.3075 C   0  0  0  0  0  0  0  0  0  0  0  0
  122.8273  105.5745  106.8479 C   0  0  0  0  0  0  0  0  0  0  0  0
  123.5306  107.7116  109.0224 C   0  0  0  0  0  0  0  0  0  0  0  0
  125.9181  105.4020  107.3552 C   0  0  0  0  0  0  0  0  0  0  0  0
  124.8261  104.4688  107.8725 C   0  0  0  0  0  0  0  0  0  0  0  0
  125.6720  106.6896  108.1269 C   0  0  0  0  0  0  0  0  0  0  0  0
  123.6402  105.4000  108.0952 C   0  0  1  0  0  0  0  0  0  0  0  0
  124.3444  108.9154  109.4254 C   0  0  0  0  0  0  0  0  0  0  0  0
  121.3567  104.3683  105.2463 C   0  0  0  0  0  0  0  0  0  0  0  0
  119.6424  106.0091  105.9339 N   0  0  0  0  0  0  0  0  0  0  0  0
  124.2375  106.6930  108.4027 N   0  0  0  0  0  0  0  0  0  0  0  0
  122.1920  104.4227  106.4246 N   0  0  0  0  0  0  0  0  0  0  0  0
  117.7990  107.2977  106.6016 O   0  0  0  0  0  0  0  0  0  0  0  0
  122.7774  106.6735  106.3080 O   0  0  0  0  0  0  0  0  0  0  0  0
  122.3180  107.6792  109.2388 O   0  0  0  0  0  0  0  0  0  0  0  0
  123.7022  108.6644  112.1151 S   0  0  0  0  0  0  0  0  0  0  0  0
  117.4896  104.6769  106.2943 S   0  0  0  0  0  0  0  0  0  0  0  0
  122.5495  112.0636  112.5152 H   0  0  0  0  0  0  0  0  0  0  0  0
  123.3553  111.5981  110.0341 H   0  0  0  0  0  0  0  0  0  0  0  0
  122.8096  109.9159  114.0145 H   0  0  0  0  0  0  0  0  0  0  0  0
  118.9752  102.7888  105.6300 H   0  0  0  0  0  0  0  0  0  0  0  0
  126.9254  105.0056  107.5101 H   0  0  0  0  0  0  0  0  0  0  0  0
  125.7839  105.5758  106.2810 H   0  0  0  0  0  0  0  0  0  0  0  0
  124.6181  103.6497  107.1775 H   0  0  0  0  0  0  0  0  0  0  0  0
  125.1434  104.0370  108.8296 H   0  0  0  0  0  0  0  0  0  0  0  0
  126.1996  106.6844  109.0868 H   0  0  0  0  0  0  0  0  0  0  0  0
  125.9633  107.5806  107.5640 H   0  0  0  0  0  0  0  0  0  0  0  0
  122.9799  105.0706  108.9032 H   0  0  0  0  0  0  0  0  0  0  0  0
  124.3479  109.6258  108.5969 H   0  0  0  0  0  0  0  0  0  0  0  0
  125.3788  108.5994  109.5690 H   0  0  0  0  0  0  0  0  0  0  0  0
  121.6977  105.0943  104.5042 H   0  0  0  0  0  0  0  0  0  0  0  0
  121.3731  103.3648  104.8139 H   0  0  0  0  0  0  0  0  0  0  0  0
  120.3228  106.7584  105.8686 H   0  0  0  0  0  0  0  0  0  0  0  0
  122.3180  103.5737  106.9675 H   0  0  0  0  0  0  0  0  0  0  0  0
  1  2  1  0  0  0  0
  1  3  2  0  0  0  0
  2  4  2  0  0  0  0
  3 22  1  0  0  0  0
  4 14  1  0  0  0  0
  4 22  1  0  0  0  0
  5  6  2  0  0  0  0
  5 23  1  0  0  0  0
  6 15  1  0  0  0  0
  6 16  1  0  0  0  0
  7 16  1  0  0  0  0
  7 19  2  0  0  0  0
  7 23  1  0  0  0  0
  8 13  1  0  0  0  0
  8 18  1  0  0  0  0
  8 20  2  0  0  0  0
  9 14  1  0  0  0  0
  9 17  1  0  0  0  0
  9 21  2  0  0  0  0
 10 11  1  0  0  0  0
 10 12  1  0  0  0  0
 11 13  1  0  0  0  0
 12 17  1  0  0  0  0
 13 17  1  0  0  0  0
 15 18  1  0  0  0  0
  1 24  1  0  0  0  0
  2 25  1  0  0  0  0
  3 26  1  0  0  0  0
  5 27  1  0  0  0  0
 10 28  1  0  0  0  0
 10 29  1  0  0  0  0
 11 30  1  0  0  0  0
 11 31  1  0  0  0  0
 12 32  1  0  0  0  0
 12 33  1  0  0  0  0
 13 34  1  0  0  0  0
 14 35  1  0  0  0  0
 14 36  1  0  0  0  0
 15 37  1  0  0  0  0
 15 38  1  0  0  0  0
 16 39  1  0  0  0  0
 18 40  1  0  0  0  0
M  END
> <FRED Chemgauss4 score>
-10.922644

$$$$
C39950026	P97167807
  -OEChem-05122015313D

 46 49  0     1  0  0  0  0  0999 V2000
  122.0637  112.9075  112.1528 C   0  0  0  0  0  0  0  0  0  0  0  0
  121.0999  112.3927  111.3771 C   0  0  0  0  0  0  0  0  0  0  0  0
  123.3289  112.2414  112.3747 C   0  0  0  0  0  0  0  0  0  0  0  0
  118.9584  103.4667  106.1430 C   0  0  0  0  0  0  0  0  0  0  0  0
  120.2381  104.1533  106.0169 C   0  0  0  0  0  0  0  0  0  0  0  0
  118.8723  107.3895  106.8683 C   0  0  0  0  0  0  0  0  0  0  0  0
  117.7964  104.1379  106.0368 C   0  0  0  0  0  0  0  0  0  0  0  0
  123.7019  111.1883  111.6319 C   0  0  0  0  0  0  0  0  0  0  0  0
  117.4121  107.3694  106.9810 C   0  0  0  0  0  0  0  0  0  0  0  0
  120.3113  105.4971  106.0675 C   0  0  0  0  0  0  0  0  0  0  0  0
  119.0924  106.2543  106.2082 C   0  0  0  0  0  0  0  0  0  0  0  0
  121.3961  111.1032  110.7197 C   0  0  0  0  0  0  0  0  0  0  0  0
  121.6406  106.1317  106.0039 C   0  0  0  0  0  0  0  0  0  0  0  0
  123.6314  108.4870  109.6070 C   0  0  0  0  0  0  0  0  0  0  0  0
  121.2326  109.0954  109.8132 C   0  0  0  0  0  0  0  0  0  0  0  0
  117.8096  105.6148  105.7548 C   0  0  2  0  0  0  0  0  0  0  0  0
  122.8359  110.6770  110.5245 C   0  0  2  0  0  0  0  0  0  0  0  0
  122.6150  109.1770  110.4595 C   0  0  2  0  0  0  0  0  0  0  0  0
  123.8190  106.2268  107.1877 C   0  0  0  0  0  0  0  0  0  0  0  0
  124.2523  106.2807  108.6431 C   0  0  0  0  0  0  0  0  0  0  0  0
  116.7549  106.3743  106.4601 N   0  0  0  0  0  0  0  0  0  0  0  0
  120.4890  110.2810  110.2911 N   0  0  0  0  0  0  0  0  0  0  0  0
  122.4728  105.7427  107.0397 N   0  0  0  0  0  0  0  0  0  0  0  0
  123.3955  107.1368  109.4317 N   0  0  0  0  0  0  0  0  0  0  0  0
  121.9177  106.9122  105.0999 O   0  0  0  0  0  0  0  0  0  0  0  0
  124.5637  109.1297  109.1385 O   0  0  0  0  0  0  0  0  0  0  0  0
  121.8954  113.8394  112.6829 H   0  0  0  0  0  0  0  0  0  0  0  0
  120.1279  112.8521  111.2590 H   0  0  0  0  0  0  0  0  0  0  0  0
  123.9733  112.6243  113.1583 H   0  0  0  0  0  0  0  0  0  0  0  0
  118.9714  102.3959  106.3125 H   0  0  0  0  0  0  0  0  0  0  0  0
  121.1213  103.5289  105.9255 H   0  0  0  0  0  0  0  0  0  0  0  0
  119.5504  108.0355  107.3944 H   0  0  0  0  0  0  0  0  0  0  0  0
  116.8501  103.6113  106.1014 H   0  0  0  0  0  0  0  0  0  0  0  0
  124.6654  110.7194  111.8044 H   0  0  0  0  0  0  0  0  0  0  0  0
  116.9233  108.1660  107.5606 H   0  0  0  0  0  0  0  0  0  0  0  0
  121.2719  109.1041  108.7174 H   0  0  0  0  0  0  0  0  0  0  0  0
  120.7156  108.1815  110.1247 H   0  0  0  0  0  0  0  0  0  0  0  0
  117.6707  105.7612  104.6751 H   0  0  0  0  0  0  0  0  0  0  0  0
  123.1967  111.0739  109.5670 H   0  0  0  0  0  0  0  0  0  0  0  0
  122.6063  108.7169  111.4549 H   0  0  0  0  0  0  0  0  0  0  0  0
  124.4692  105.5696  106.6015 H   0  0  0  0  0  0  0  0  0  0  0  0
  123.8499  107.2290  106.7490 H   0  0  0  0  0  0  0  0  0  0  0  0
  124.2071  105.2823  109.0889 H   0  0  0  0  0  0  0  0  0  0  0  0
  125.2751  106.6586  108.7410 H   0  0  0  0  0  0  0  0  0  0  0  0
  122.1149  105.0830  107.7292 H   0  0  0  0  0  0  0  0  0  0  0  0
  122.5810  106.7263  109.8784 H   0  0  0  0  0  0  0  0  0  0  0  0
  1  2  2  0  0  0  0
  1  3  1  0  0  0  0
  2 12  1  0  0  0  0
  3  8  2  0  0  0  0
  4  5  1  0  0  0  0
  4  7  2  0  0  0  0
  5 10  2  0  0  0  0
  6  9  1  0  0  0  0
  6 11  2  0  0  0  0
  7 16  1  0  0  0  0
  8 17  1  0  0  0  0
  9 21  2  0  0  0  0
 10 11  1  0  0  0  0
 10 13  1  0  0  0  0
 11 16  1  0  0  0  0
 12 17  1  0  0  0  0
 12 22  2  0  0  0  0
 13 23  1  0  0  0  0
 13 25  2  0  0  0  0
 14 18  1  0  0  0  0
 14 24  1  0  0  0  0
 14 26  2  0  0  0  0
 15 18  1  0  0  0  0
 15 22  1  0  0  0  0
 16 21  1  0  0  0  0
 17 18  1  0  0  0  0
 19 20  1  0  0  0  0
 19 23  1  0  0  0  0
 20 24  1  0  0  0  0
  1 27  1  0  0  0  0
  2 28  1  0  0  0  0
  3 29  1  0  0  0  0
  4 30  1  0  0  0  0
  5 31  1  0  0  0  0
  6 32  1  0  0  0  0
  7 33  1  0  0  0  0
  8 34  1  0  0  0  0
  9 35  1  0  0  0  0
 15 36  1  0  0  0  0
 15 37  1  0  0  0  0
 16 38  1  0  0  0  0
 17 39  1  0  0  0  0
 18 40  1  0  0  0  0
 19 41  1  0  0  0  0
 19 42  1  0  0  0  0
 20 43  1  0  0  0  0
 20 44  1  0  0  0  0
 23 45  1  0  0  0  0
 24 46  1  0  0  0  0
M  END
> <FRED Chemgauss4 score>
-10.919935

$$$$
C37580833	P55894510
  -OEChem-05122015313D

 41 41  0     0  0  0  0  0  0999 V2000
  121.6038  104.5763  106.3373 C   0  0  0  0  0  0  0  0  0  0  0  0
  120.5465  104.4202  105.7889 C   0  0  0  0  0  0  0  0  0  0  0  0
  123.2717  103.8681  107.9792 C   0  0  0  0  0  0  0  0  0  0  0  0
  124.4999  104.0475  108.6154 C   0  0  0  0  0  0  0  0  0  0  0  0
  123.6816  105.8325  106.6337 C   0  0  0  0  0  0  0  0  0  0  0  0
  122.8625  104.7605  106.9883 C   0  0  0  0  0  0  0  0  0  0  0  0
  125.3190  105.1194  108.2608 C   0  0  0  0  0  0  0  0  0  0  0  0
  124.9099  106.0119  107.2700 C   0  0  0  0  0  0  0  0  0  0  0  0
  126.6281  105.2823  108.9619 C   0  0  0  0  0  0  0  0  0  0  0  0
  123.6155  110.9182  111.5889 C   0  0  0  0  0  0  0  0  0  0  0  0
  122.2462  109.9331  109.8779 C   0  0  0  0  0  0  0  0  0  0  0  0
  119.2592  104.2332  105.1214 C   0  0  0  0  0  0  0  0  0  0  0  0
  124.9374  109.3197  108.4856 C   0  0  0  0  0  0  0  0  0  0  0  0
  124.5983  109.4496  109.9610 C   0  0  0  0  0  0  0  0  0  0  0  0
  119.1233  102.8916  104.6274 N   0  0  0  0  0  0  0  0  0  0  0  0
  125.9329  108.3100  108.2444 N   0  0  0  0  0  0  0  0  0  0  0  0
  123.5708  110.4626  110.1999 N   0  0  0  0  0  0  0  0  0  0  0  0
  127.2649  106.8814  106.5574 O   0  0  0  0  0  0  0  0  0  0  0  0
  125.2132  108.0920  105.7520 O   0  0  0  0  0  0  0  0  0  0  0  0
  125.9241  107.3801  106.7967 S   0  0  0  0  0  0  0  0  0  0  0  0
  122.6440  103.0277  108.2661 H   0  0  0  0  0  0  0  0  0  0  0  0
  124.8090  103.3463  109.3864 H   0  0  0  0  0  0  0  0  0  0  0  0
  123.3642  106.5299  105.8609 H   0  0  0  0  0  0  0  0  0  0  0  0
  127.4155  104.7399  108.4262 H   0  0  0  0  0  0  0  0  0  0  0  0
  126.9135  106.3393  109.0272 H   0  0  0  0  0  0  0  0  0  0  0  0
  126.5771  104.9010  109.9892 H   0  0  0  0  0  0  0  0  0  0  0  0
  124.6076  111.3126  111.8232 H   0  0  0  0  0  0  0  0  0  0  0  0
  123.3979  110.0878  112.2661 H   0  0  0  0  0  0  0  0  0  0  0  0
  122.8757  111.7065  111.7521 H   0  0  0  0  0  0  0  0  0  0  0  0
  122.2194  109.5945  108.8390 H   0  0  0  0  0  0  0  0  0  0  0  0
  121.4861  110.7069  110.0156 H   0  0  0  0  0  0  0  0  0  0  0  0
  122.0083  109.0882  110.5297 H   0  0  0  0  0  0  0  0  0  0  0  0
  119.1596  104.9107  104.2682 H   0  0  0  0  0  0  0  0  0  0  0  0
  118.4273  104.4166  105.8075 H   0  0  0  0  0  0  0  0  0  0  0  0
  125.3211  110.2610  108.0796 H   0  0  0  0  0  0  0  0  0  0  0  0
  124.0459  109.0335  107.9188 H   0  0  0  0  0  0  0  0  0  0  0  0
  124.2101  108.5014  110.3455 H   0  0  0  0  0  0  0  0  0  0  0  0
  125.4784  109.7285  110.5494 H   0  0  0  0  0  0  0  0  0  0  0  0
  119.9266  102.4282  104.2308 H   0  0  0  0  0  0  0  0  0  0  0  0
  118.2008  102.5061  104.4942 H   0  0  0  0  0  0  0  0  0  0  0  0
  126.8515  108.4143  108.7242 H   0  0  0  0  0  0  0  0  0  0  0  0
  1  2  3  0  0  0  0
  1  6  1  0  0  0  0
  2 12  1  0  0  0  0
  3  4  2  0  0  0  0
  3  6  1  0  0  0  0
  4  7  1  0  0  0  0
  5  6  2  0  0  0  0
  5  8  1  0  0  0  0
  7  8  2  0  0  0  0
  7  9  1  0  0  0  0
  8 20  1  0  0  0  0
 10 17  1  0  0  0  0
 11 17  1  0  0  0  0
 12 15  1  0  0  0  0
 13 14  1  0  0  0  0
 13 16  1  0  0  0  0
 14 17  1  0  0  0  0
 16 20  1  0  0  0  0
 18 20  2  0  0  0  0
 19 20  2  0  0  0  0
  3 21  1  0  0  0  0
  4 22  1  0  0  0  0
  5 23  1  0  0  0  0
  9 24  1  0  0  0  0
  9 25  1  0  0  0  0
  9 26  1  0  0  0  0
 10 27  1  0  0  0  0
 10 28  1  0  0  0  0
 10 29  1  0  0  0  0
 11 30  1  0  0  0  0
 11 31  1  0  0  0  0
 11 32  1  0  0  0  0
 12 33  1  0  0  0  0
 12 34  1  0  0  0  0
 13 35  1  0  0  0  0
 13 36  1  0  0  0  0
 14 37  1  0  0  0  0
 14 38  1  0  0  0  0
 15 39  1  0  0  0  0
 15 40  1  0  0  0  0
 16 41  1  0  0  0  0
M  END
> <FRED Chemgauss4 score>
-10.915477

$$$$
C37072976	P55109964
  -OEChem-05122015313D

 37 39  0     1  0  0  0  0  0999 V2000
  120.5178  104.4025  104.2255 C   0  0  0  0  0  0  0  0  0  0  0  0
  119.2899  104.3465  103.5651 C   0  0  0  0  0  0  0  0  0  0  0  0
  119.4162  103.9085  106.3147 C   0  0  0  0  0  0  0  0  0  0  0  0
  118.1783  103.8741  105.6610 C   0  0  0  0  0  0  0  0  0  0  0  0
  120.5813  104.1807  105.5986 C   0  0  0  0  0  0  0  0  0  0  0  0
  118.1137  104.0846  104.2787 C   0  0  0  0  0  0  0  0  0  0  0  0
  126.1490  106.0129  108.4807 C   0  0  0  0  0  0  0  0  0  0  0  0
  125.8710  106.8003  107.4328 C   0  0  0  0  0  0  0  0  0  0  0  0
  115.7283  103.6610  105.9984 C   0  0  0  0  0  0  0  0  0  0  0  0
  125.4418  104.7174  108.7431 C   0  0  0  0  0  0  0  0  0  0  0  0
  124.8010  106.4836  106.4301 C   0  0  0  0  0  0  0  0  0  0  0  0
  115.4670  104.4121  104.7185 C   0  0  0  0  0  0  0  0  0  0  0  0
  124.6098  104.2303  107.5527 C   0  0  0  0  0  0  0  0  0  0  0  0
  123.8339  105.3847  106.9056 C   0  0  2  0  0  0  0  0  0  0  0  0
  122.9696  104.8871  105.7492 C   0  0  0  0  0  0  0  0  0  0  0  0
  117.0355  103.5702  106.4256 N   0  0  0  0  0  0  0  0  0  0  0  0
  121.8107  104.2349  106.2591 N   0  0  0  0  0  0  0  0  0  0  0  0
  114.7884  103.2516  106.6843 O   0  0  0  0  0  0  0  0  0  0  0  0
  116.5791  103.9244  103.3935 S   0  0  0  0  0  0  0  0  0  0  0  0
  121.4173  104.6308  103.6594 H   0  0  0  0  0  0  0  0  0  0  0  0
  119.2647  104.5174  102.4912 H   0  0  0  0  0  0  0  0  0  0  0  0
  119.4738  103.7165  107.3844 H   0  0  0  0  0  0  0  0  0  0  0  0
  126.9239  106.3133  109.1799 H   0  0  0  0  0  0  0  0  0  0  0  0
  126.4383  107.7155  107.2912 H   0  0  0  0  0  0  0  0  0  0  0  0
  126.1770  103.9471  109.0028 H   0  0  0  0  0  0  0  0  0  0  0  0
  124.7931  104.8492  109.6173 H   0  0  0  0  0  0  0  0  0  0  0  0
  124.2288  107.3951  106.2192 H   0  0  0  0  0  0  0  0  0  0  0  0
  125.2881  106.1886  105.4925 H   0  0  0  0  0  0  0  0  0  0  0  0
  114.4279  104.2414  104.4183 H   0  0  0  0  0  0  0  0  0  0  0  0
  115.5971  105.4834  104.9020 H   0  0  0  0  0  0  0  0  0  0  0  0
  125.2745  103.7702  106.8095 H   0  0  0  0  0  0  0  0  0  0  0  0
  123.9220  103.4454  107.8893 H   0  0  0  0  0  0  0  0  0  0  0  0
  123.1645  105.8155  107.6631 H   0  0  0  0  0  0  0  0  0  0  0  0
  123.5466  104.1857  105.1611 H   0  0  0  0  0  0  0  0  0  0  0  0
  122.6684  105.7329  105.1458 H   0  0  0  0  0  0  0  0  0  0  0  0
  117.1888  103.2550  107.3801 H   0  0  0  0  0  0  0  0  0  0  0  0
  121.8628  103.7680  107.1681 H   0  0  0  0  0  0  0  0  0  0  0  0
  1  2  1  0  0  0  0
  1  5  2  0  0  0  0
  2  6  2  0  0  0  0
  3  4  2  0  0  0  0
  3  5  1  0  0  0  0
  4  6  1  0  0  0  0
  4 16  1  0  0  0  0
  5 17  1  0  0  0  0
  6 19  1  0  0  0  0
  7  8  2  0  0  0  0
  7 10  1  0  0  0  0
  8 11  1  0  0  0  0
  9 12  1  0  0  0  0
  9 16  1  0  0  0  0
  9 18  2  0  0  0  0
 10 13  1  0  0  0  0
 11 14  1  0  0  0  0
 12 19  1  0  0  0  0
 13 14  1  0  0  0  0
 14 15  1  0  0  0  0
 15 17  1  0  0  0  0
  1 20  1  0  0  0  0
  2 21  1  0  0  0  0
  3 22  1  0  0  0  0
  7 23  1  0  0  0  0
  8 24  1  0  0  0  0
 10 25  1  0  0  0  0
 10 26  1  0  0  0  0
 11 27  1  0  0  0  0
 11 28  1  0  0  0  0
 12 29  1  0  0  0  0
 12 30  1  0  0  0  0
 13 31  1  0  0  0  0
 13 32  1  0  0  0  0
 14 33  1  0  0  0  0
 15 34  1  0  0  0  0
 15 35  1  0  0  0  0
 16 36  1  0  0  0  0
 17 37  1  0  0  0  0
M  END
> <FRED Chemgauss4 score>
-10.892575

$$$$
C97104505	P153724932
  -OEChem-05122015313D

 36 37  0     1  0  0  0  0  0999 V2000
  124.5504  104.3404  107.5664 C   0  0  0  0  0  0  0  0  0  0  0  0
  125.4819  104.3771  108.6040 C   0  0  0  0  0  0  0  0  0  0  0  0
  125.7915  106.7458  108.2423 C   0  0  0  0  0  0  0  0  0  0  0  0
  124.2395  105.5064  106.8667 C   0  0  0  0  0  0  0  0  0  0  0  0
  126.1024  105.5797  108.9419 C   0  0  0  0  0  0  0  0  0  0  0  0
  124.8600  106.7090  107.2047 C   0  0  0  0  0  0  0  0  0  0  0  0
  119.5279  104.2100  106.8020 C   0  0  0  0  0  0  0  0  0  0  0  0
  118.1146  104.7624  106.7625 C   0  0  0  0  0  0  0  0  0  0  0  0
  119.9763  104.3281  105.3619 C   0  0  1  0  0  0  0  0  0  0  0  0
  118.6786  104.0212  104.6269 C   0  0  2  0  0  0  0  0  0  0  0  0
  118.5630  104.5011  103.1922 C   0  0  0  0  0  0  0  0  0  0  0  0
  123.2326  105.4240  105.7560 C   0  0  0  0  0  0  0  0  0  0  0  0
  127.0438  105.6169  109.9914 N   0  0  0  0  0  0  0  0  0  0  0  0
  121.9291  105.9879  106.1502 N   0  0  0  0  0  0  0  0  0  0  0  0
  121.1527  105.9547  103.6823 O   0  0  0  0  0  0  0  0  0  0  0  0
  119.6378  106.9132  105.4552 O   0  0  0  0  0  0  0  0  0  0  0  0
  117.6255  104.5894  105.4239 O   0  0  0  0  0  0  0  0  0  0  0  0
  120.6327  105.9401  105.0382 S   0  0  0  0  0  0  0  0  0  0  0  0
  124.5010  108.1708  106.3598 Cl  0  0  0  0  0  0  0  0  0  0  0  0
  124.0737  103.3980  107.3102 H   0  0  0  0  0  0  0  0  0  0  0  0
  125.7165  103.4619  109.1417 H   0  0  0  0  0  0  0  0  0  0  0  0
  126.2792  107.6808  108.5094 H   0  0  0  0  0  0  0  0  0  0  0  0
  120.1594  104.7312  107.5273 H   0  0  0  0  0  0  0  0  0  0  0  0
  119.4933  103.1517  107.0883 H   0  0  0  0  0  0  0  0  0  0  0  0
  117.4500  104.2498  107.4639 H   0  0  0  0  0  0  0  0  0  0  0  0
  118.0959  105.8333  106.9890 H   0  0  0  0  0  0  0  0  0  0  0  0
  120.7732  103.6226  105.1088 H   0  0  0  0  0  0  0  0  0  0  0  0
  118.5175  102.9350  104.6384 H   0  0  0  0  0  0  0  0  0  0  0  0
  118.7179  105.5810  103.1400 H   0  0  0  0  0  0  0  0  0  0  0  0
  117.5722  104.2714  102.7943 H   0  0  0  0  0  0  0  0  0  0  0  0
  119.3123  104.0107  102.5669 H   0  0  0  0  0  0  0  0  0  0  0  0
  123.5843  105.9715  104.8747 H   0  0  0  0  0  0  0  0  0  0  0  0
  123.0693  104.3854  105.4499 H   0  0  0  0  0  0  0  0  0  0  0  0
  127.2227  104.7846  110.5161 H   0  0  0  0  0  0  0  0  0  0  0  0
  127.4463  106.4936  110.2547 H   0  0  0  0  0  0  0  0  0  0  0  0
  121.6956  105.8457  107.1415 H   0  0  0  0  0  0  0  0  0  0  0  0
  1  2  2  0  0  0  0
  1  4  1  0  0  0  0
  2  5  1  0  0  0  0
  3  5  2  0  0  0  0
  3  6  1  0  0  0  0
  4  6  2  0  0  0  0
  4 12  1  0  0  0  0
  5 13  1  0  0  0  0
  6 19  1  0  0  0  0
  7  8  1  0  0  0  0
  7  9  1  0  0  0  0
  8 17  1  0  0  0  0
  9 10  1  0  0  0  0
  9 18  1  0  0  0  0
 10 11  1  0  0  0  0
 10 17  1  0  0  0  0
 12 14  1  0  0  0  0
 14 18  1  0  0  0  0
 15 18  2  0  0  0  0
 16 18  2  0  0  0  0
  1 20  1  0  0  0  0
  2 21  1  0  0  0  0
  3 22  1  0  0  0  0
  7 23  1  0  0  0  0
  7 24  1  0  0  0  0
  8 25  1  0  0  0  0
  8 26  1  0  0  0  0
  9 27  1  0  0  0  0
 10 28  1  0  0  0  0
 11 29  1  0  0  0  0
 11 30  1  0  0  0  0
 11 31  1  0  0  0  0
 12 32  1  0  0  0  0
 12 33  1  0  0  0  0
 13 34  1  0  0  0  0
 13 35  1  0  0  0  0
 14 36  1  0  0  0  0
M  END
> <FRED Chemgauss4 score>
-10.890911

$$$$
C80744995	P126055637
  -OEChem-05122015313D

 40 41  0     1  0  0  0  0  0999 V2000
  126.2543  107.8904  107.2607 C   0  0  0  0  0  0  0  0  0  0  0  0
  124.5950  105.1834  106.6893 C   0  0  0  0  0  0  0  0  0  0  0  0
  124.1195  106.6637  108.6555 C   0  0  0  0  0  0  0  0  0  0  0  0
  123.2277  104.5308  106.9028 C   0  0  0  0  0  0  0  0  0  0  0  0
  122.7681  105.9617  108.8042 C   0  0  0  0  0  0  0  0  0  0  0  0
  118.6945  104.9775  104.1042 C   0  0  0  0  0  0  0  0  0  0  0  0
  118.8739  104.2530  106.3867 C   0  0  0  0  0  0  0  0  0  0  0  0
  120.2064  105.1621  104.0681 C   0  0  0  0  0  0  0  0  0  0  0  0
  125.1558  105.7444  108.0005 C   0  0  0  0  0  0  0  0  0  0  0  0
  120.3908  104.4452  106.3073 C   0  0  2  0  0  0  0  0  0  0  0  0
  126.4712  106.4812  107.7637 C   0  0  0  0  0  0  0  0  0  0  0  0
  120.9632  104.8526  107.6578 C   0  0  0  0  0  0  0  0  0  0  0  0
  118.3349  103.9318  105.0630 N   0  0  0  0  0  0  0  0  0  0  0  0
  122.2785  105.4749  107.5076 N   0  0  0  0  0  0  0  0  0  0  0  0
  126.7736  108.8326  108.1225 N   0  0  0  0  0  0  0  0  0  0  0  0
  125.6834  108.1680  106.2100 O   0  0  0  0  0  0  0  0  0  0  0  0
  120.6993  105.4838  105.3698 O   0  0  0  0  0  0  0  0  0  0  0  0
  125.2891  104.4441  106.2719 H   0  0  0  0  0  0  0  0  0  0  0  0
  124.5023  105.9867  105.9464 H   0  0  0  0  0  0  0  0  0  0  0  0
  123.9920  107.5740  108.0548 H   0  0  0  0  0  0  0  0  0  0  0  0
  124.4738  106.9824  109.6431 H   0  0  0  0  0  0  0  0  0  0  0  0
  122.8518  104.2008  105.9266 H   0  0  0  0  0  0  0  0  0  0  0  0
  123.3409  103.6350  107.5278 H   0  0  0  0  0  0  0  0  0  0  0  0
  122.8588  105.1368  109.5233 H   0  0  0  0  0  0  0  0  0  0  0  0
  122.0548  106.6817  109.2235 H   0  0  0  0  0  0  0  0  0  0  0  0
  118.2070  105.9175  104.3901 H   0  0  0  0  0  0  0  0  0  0  0  0
  118.3297  104.7012  103.1096 H   0  0  0  0  0  0  0  0  0  0  0  0
  118.6339  103.4385  107.0787 H   0  0  0  0  0  0  0  0  0  0  0  0
  118.3882  105.1623  106.7628 H   0  0  0  0  0  0  0  0  0  0  0  0
  120.7153  104.2644  103.6964 H   0  0  0  0  0  0  0  0  0  0  0  0
  120.4651  105.9898  103.4003 H   0  0  0  0  0  0  0  0  0  0  0  0
  125.3541  104.9050  108.6804 H   0  0  0  0  0  0  0  0  0  0  0  0
  120.8876  103.5205  105.9939 H   0  0  0  0  0  0  0  0  0  0  0  0
  127.0646  105.9308  107.0290 H   0  0  0  0  0  0  0  0  0  0  0  0
  127.0335  106.5230  108.7002 H   0  0  0  0  0  0  0  0  0  0  0  0
  121.0797  103.9778  108.3046 H   0  0  0  0  0  0  0  0  0  0  0  0
  120.3082  105.5739  108.1553 H   0  0  0  0  0  0  0  0  0  0  0  0
  117.3197  103.8568  105.1190 H   0  0  0  0  0  0  0  0  0  0  0  0
  127.2333  108.5307  108.9756 H   0  0  0  0  0  0  0  0  0  0  0  0
  126.7028  109.8235  107.9162 H   0  0  0  0  0  0  0  0  0  0  0  0
  1 11  1  0  0  0  0
  1 15  1  0  0  0  0
  1 16  2  0  0  0  0
  2  4  1  0  0  0  0
  2  9  1  0  0  0  0
  3  5  1  0  0  0  0
  3  9  1  0  0  0  0
  4 14  1  0  0  0  0
  5 14  1  0  0  0  0
  6  8  1  0  0  0  0
  6 13  1  0  0  0  0
  7 10  1  0  0  0  0
  7 13  1  0  0  0  0
  8 17  1  0  0  0  0
  9 11  1  0  0  0  0
 10 12  1  0  0  0  0
 10 17  1  0  0  0  0
 12 14  1  0  0  0  0
  2 18  1  0  0  0  0
  2 19  1  0  0  0  0
  3 20  1  0  0  0  0
  3 21  1  0  0  0  0
  4 22  1  0  0  0  0
  4 23  1  0  0  0  0
  5 24  1  0  0  0  0
  5 25  1  0  0  0  0
  6 26  1  0  0  0  0
  6 27  1  0  0  0  0
  7 28  1  0  0  0  0
  7 29  1  0  0  0  0
  8 30  1  0  0  0  0
  8 31  1  0  0  0  0
  9 32  1  0  0  0  0
 10 33  1  0  0  0  0
 11 34  1  0  0  0  0
 11 35  1  0  0  0  0
 12 36  1  0  0  0  0
 12 37  1  0  0  0  0
 13 38  1  0  0  0  0
 15 39  1  0  0  0  0
 15 40  1  0  0  0  0
M  END
> <FRED Chemgauss4 score>
-10.877682

$$$$
C40369350	P61284191
  -OEChem-05122015313D

 31 31  0     0  0  0  0  0  0999 V2000
  118.8644  105.5547  104.0766 C   0  0  0  0  0  0  0  0  0  0  0  0
  118.0321  104.4490  103.9031 C   0  0  0  0  0  0  0  0  0  0  0  0
  118.3761  106.8395  103.8384 C   0  0  0  0  0  0  0  0  0  0  0  0
  116.7114  104.6279  103.4914 C   0  0  0  0  0  0  0  0  0  0  0  0
  117.0555  107.0184  103.4267 C   0  0  0  0  0  0  0  0  0  0  0  0
  116.2231  105.9127  103.2532 C   0  0  0  0  0  0  0  0  0  0  0  0
  120.2576  105.3658  104.5110 C   0  0  0  0  0  0  0  0  0  0  0  0
  123.3090  104.8452  108.2811 C   0  0  0  0  0  0  0  0  0  0  0  0
  119.2961  104.3296  106.5298 C   0  0  0  0  0  0  0  0  0  0  0  0
  121.9364  105.1392  107.6885 C   0  0  0  0  0  0  0  0  0  0  0  0
  121.7555  104.4509  106.3424 C   0  0  0  0  0  0  0  0  0  0  0  0
  124.2763  105.6359  107.9202 N   0  0  0  0  0  0  0  0  0  0  0  0
  123.3858  103.7630  109.1263 N   0  0  0  0  0  0  0  0  0  0  0  0
  120.4739  104.7357  105.7563 N   0  0  0  0  0  0  0  0  0  0  0  0
  121.1277  105.7676  103.7393 O   0  0  0  0  0  0  0  0  0  0  0  0
  125.4711  105.2434  108.5307 O   0  0  0  0  0  0  0  0  0  0  0  0
  118.4907  103.2100  104.1300 F   0  0  0  0  0  0  0  0  0  0  0  0
  119.1665  107.9099  104.0025 F   0  0  0  0  0  0  0  0  0  0  0  0
  115.9117  103.5665  103.3259 F   0  0  0  0  0  0  0  0  0  0  0  0
  116.5862  108.2521  103.1994 F   0  0  0  0  0  0  0  0  0  0  0  0
  114.9544  106.0845  102.8598 F   0  0  0  0  0  0  0  0  0  0  0  0
  119.0045  103.3104  106.2631 H   0  0  0  0  0  0  0  0  0  0  0  0
  118.4582  105.0009  106.3229 H   0  0  0  0  0  0  0  0  0  0  0  0
  119.5165  104.3639  107.6001 H   0  0  0  0  0  0  0  0  0  0  0  0
  121.1582  104.8277  108.3950 H   0  0  0  0  0  0  0  0  0  0  0  0
  121.8482  106.2242  107.5568 H   0  0  0  0  0  0  0  0  0  0  0  0
  122.5146  104.8002  105.6357 H   0  0  0  0  0  0  0  0  0  0  0  0
  121.8408  103.3632  106.4309 H   0  0  0  0  0  0  0  0  0  0  0  0
  122.5765  103.1895  109.3390 H   0  0  0  0  0  0  0  0  0  0  0  0
  124.2655  103.4992  109.5567 H   0  0  0  0  0  0  0  0  0  0  0  0
  126.0942  105.9031  108.1822 H   0  0  0  0  0  0  0  0  0  0  0  0
  1  2  1  0  0  0  0
  1  3  2  0  0  0  0
  1  7  1  0  0  0  0
  2  4  2  0  0  0  0
  2 17  1  0  0  0  0
  3  5  1  0  0  0  0
  3 18  1  0  0  0  0
  4  6  1  0  0  0  0
  4 19  1  0  0  0  0
  5  6  2  0  0  0  0
  5 20  1  0  0  0  0
  6 21  1  0  0  0  0
  7 14  1  0  0  0  0
  7 15  2  0  0  0  0
  8 10  1  0  0  0  0
  8 12  2  0  0  0  0
  8 13  1  0  0  0  0
  9 14  1  0  0  0  0
 10 11  1  0  0  0  0
 11 14  1  0  0  0  0
 12 16  1  0  0  0  0
  9 22  1  0  0  0  0
  9 23  1  0  0  0  0
  9 24  1  0  0  0  0
 10 25  1  0  0  0  0
 10 26  1  0  0  0  0
 11 27  1  0  0  0  0
 11 28  1  0  0  0  0
 13 29  1  0  0  0  0
 13 30  1  0  0  0  0
 16 31  1  0  0  0  0
M  END
> <FRED Chemgauss4 score>
-10.876976

$$$$
C48881700	P73030881
  -OEChem-05122015313D

 37 38  0     1  0  0  0  0  0999 V2000
  118.9246  105.4353  106.4246 C   0  0  0  0  0  0  0  0  0  0  0  0
  119.4140  103.7660  104.7480 C   0  0  0  0  0  0  0  0  0  0  0  0
  117.7007  105.6957  105.8082 C   0  0  0  0  0  0  0  0  0  0  0  0
  118.1901  104.0263  104.1316 C   0  0  0  0  0  0  0  0  0  0  0  0
  123.7247  104.2745  107.7222 C   0  0  0  0  0  0  0  0  0  0  0  0
  125.7493  105.5286  108.1284 C   0  0  0  0  0  0  0  0  0  0  0  0
  124.1818  106.2760  106.4486 C   0  0  0  0  0  0  0  0  0  0  0  0
  119.7813  104.4705  105.8945 C   0  0  0  0  0  0  0  0  0  0  0  0
  124.9220  104.4434  108.4175 C   0  0  0  0  0  0  0  0  0  0  0  0
  123.3546  105.1908  106.7377 C   0  0  0  0  0  0  0  0  0  0  0  0
  125.3792  106.4450  107.1440 C   0  0  0  0  0  0  0  0  0  0  0  0
  117.3335  104.9912  104.6617 C   0  0  0  0  0  0  0  0  0  0  0  0
  121.9583  105.6845  104.7460 C   0  0  0  0  0  0  0  0  0  0  0  0
  121.0898  104.1922  106.5536 C   0  0  0  0  0  0  0  0  0  0  0  0
  125.2962  103.5170  109.4129 N   0  0  0  0  0  0  0  0  0  0  0  0
  125.8079  108.9739  107.8691 N   0  0  0  0  0  0  0  0  0  0  0  0
  122.1500  105.0208  106.0381 N   0  0  3  0  0  0  0  0  0  0  0  0
  127.7752  107.4607  107.1721 O   0  0  0  0  0  0  0  0  0  0  0  0
  126.1415  108.2436  105.4211 O   0  0  0  0  0  0  0  0  0  0  0  0
  126.4147  107.8035  106.7821 S   0  0  0  0  0  0  0  0  0  0  0  0
  115.6753  105.3449  103.8268 Br  0  0  0  0  0  0  0  0  0  0  0  0
  119.2024  105.9890  107.3176 H   0  0  0  0  0  0  0  0  0  0  0  0
  120.0755  103.0132  104.3274 H   0  0  0  0  0  0  0  0  0  0  0  0
  117.0453  106.4514  106.2336 H   0  0  0  0  0  0  0  0  0  0  0  0
  117.9188  103.4685  103.2392 H   0  0  0  0  0  0  0  0  0  0  0  0
  123.0794  103.4281  107.9477 H   0  0  0  0  0  0  0  0  0  0  0  0
  126.6829  105.6604  108.6707 H   0  0  0  0  0  0  0  0  0  0  0  0
  123.8933  106.9905  105.6810 H   0  0  0  0  0  0  0  0  0  0  0  0
  120.9707  105.4450  104.3435 H   0  0  0  0  0  0  0  0  0  0  0  0
  122.7186  105.3523  104.0339 H   0  0  0  0  0  0  0  0  0  0  0  0
  122.0374  106.7687  104.8627 H   0  0  0  0  0  0  0  0  0  0  0  0
  121.0325  104.3662  107.6373 H   0  0  0  0  0  0  0  0  0  0  0  0
  121.3958  103.1460  106.4162 H   0  0  0  0  0  0  0  0  0  0  0  0
  124.6726  102.7702  109.6436 H   0  0  0  0  0  0  0  0  0  0  0  0
  126.1334  103.6753  109.9364 H   0  0  0  0  0  0  0  0  0  0  0  0
  124.8854  109.3812  107.6730 H   0  0  0  0  0  0  0  0  0  0  0  0
  126.0022  108.8487  108.8700 H   0  0  0  0  0  0  0  0  0  0  0  0
  1  3  2  0  0  0  0
  1  8  1  0  0  0  0
  2  4  1  0  0  0  0
  2  8  2  0  0  0  0
  3 12  1  0  0  0  0
  4 12  2  0  0  0  0
  5  9  2  0  0  0  0
  5 10  1  0  0  0  0
  6  9  1  0  0  0  0
  6 11  2  0  0  0  0
  7 10  2  0  0  0  0
  7 11  1  0  0  0  0
  8 14  1  0  0  0  0
  9 15  1  0  0  0  0
 10 17  1  0  0  0  0
 11 20  1  0  0  0  0
 12 21  1  0  0  0  0
 13 17  1  0  0  0  0
 14 17  1  0  0  0  0
 16 20  1  0  0  0  0
 18 20  2  0  0  0  0
 19 20  2  0  0  0  0
  1 22  1  0  0  0  0
  2 23  1  0  0  0  0
  3 24  1  0  0  0  0
  4 25  1  0  0  0  0
  5 26  1  0  0  0  0
  6 27  1  0  0  0  0
  7 28  1  0  0  0  0
 13 29  1  0  0  0  0
 13 30  1  0  0  0  0
 13 31  1  0  0  0  0
 14 32  1  0  0  0  0
 14 33  1  0  0  0  0
 15 34  1  0  0  0  0
 15 35  1  0  0  0  0
 16 36  1  0  0  0  0
 16 37  1  0  0  0  0
M  END
> <FRED Chemgauss4 score>
-10.874781

$$$$
C00095001	P13284027
  -OEChem-05122015313D

 43 46  0     0  0  0  0  0  0999 V2000
  126.5981  108.0307  106.9089 C   0  0  0  0  0  0  0  0  0  0  0  0
  127.1741  107.1855  107.8687 C   0  0  0  0  0  0  0  0  0  0  0  0
  125.4033  107.6781  106.2808 C   0  0  0  0  0  0  0  0  0  0  0  0
  115.8965  106.2340  104.9645 C   0  0  0  0  0  0  0  0  0  0  0  0
  116.0841  105.3703  102.7160 C   0  0  0  0  0  0  0  0  0  0  0  0
  117.2253  105.8870  105.2087 C   0  0  0  0  0  0  0  0  0  0  0  0
  117.4129  105.0233  102.9601 C   0  0  0  0  0  0  0  0  0  0  0  0
  126.5625  105.9764  108.2129 C   0  0  0  0  0  0  0  0  0  0  0  0
  124.8113  106.4747  106.6351 C   0  0  0  0  0  0  0  0  0  0  0  0
  121.1785  104.3310  105.4115 C   0  0  0  0  0  0  0  0  0  0  0  0
  115.3259  105.9756  103.7182 C   0  0  0  0  0  0  0  0  0  0  0  0
  117.9834  105.2817  104.2065 C   0  0  0  0  0  0  0  0  0  0  0  0
  125.3742  105.6271  107.5873 C   0  0  0  0  0  0  0  0  0  0  0  0
  121.3366  104.5687  104.0330 C   0  0  0  0  0  0  0  0  0  0  0  0
  119.8490  104.5779  105.6523 C   0  0  0  0  0  0  0  0  0  0  0  0
  123.5597  105.9454  106.0789 C   0  0  0  0  0  0  0  0  0  0  0  0
  123.2428  104.6320  106.7013 C   0  0  0  0  0  0  0  0  0  0  0  0
  122.1578  103.9258  106.3781 C   0  0  0  0  0  0  0  0  0  0  0  0
  113.9052  106.3466  103.4571 C   0  0  0  0  0  0  0  0  0  0  0  0
  122.5654  104.4576  103.2259 C   0  0  0  0  0  0  0  0  0  0  0  0
  119.0579  104.5090  106.8996 C   0  0  0  0  0  0  0  0  0  0  0  0
  120.1983  104.9380  103.4396 N   0  0  0  0  0  0  0  0  0  0  0  0
  119.3124  104.9341  104.4501 N   0  0  0  0  0  0  0  0  0  0  0  0
  122.8951  106.5142  105.2323 O   0  0  0  0  0  0  0  0  0  0  0  0
  124.4321  104.1510  107.8665 S   0  0  0  0  0  0  0  0  0  0  0  0
  127.0866  108.9672  106.6547 H   0  0  0  0  0  0  0  0  0  0  0  0
  128.1045  107.4747  108.3502 H   0  0  0  0  0  0  0  0  0  0  0  0
  124.9601  108.3341  105.5391 H   0  0  0  0  0  0  0  0  0  0  0  0
  115.3127  106.7053  105.7507 H   0  0  0  0  0  0  0  0  0  0  0  0
  115.6477  105.1650  101.7421 H   0  0  0  0  0  0  0  0  0  0  0  0
  117.6577  106.0932  106.1848 H   0  0  0  0  0  0  0  0  0  0  0  0
  117.9918  104.5519  102.1697 H   0  0  0  0  0  0  0  0  0  0  0  0
  127.0181  105.3323  108.9584 H   0  0  0  0  0  0  0  0  0  0  0  0
  121.9907  102.9868  106.9059 H   0  0  0  0  0  0  0  0  0  0  0  0
  113.8437  107.3672  103.0599 H   0  0  0  0  0  0  0  0  0  0  0  0
  113.4413  105.6633  102.7339 H   0  0  0  0  0  0  0  0  0  0  0  0
  113.3045  106.2935  104.3745 H   0  0  0  0  0  0  0  0  0  0  0  0
  122.6808  103.4416  102.8126 H   0  0  0  0  0  0  0  0  0  0  0  0
  122.5713  105.1652  102.3785 H   0  0  0  0  0  0  0  0  0  0  0  0
  123.4714  104.6831  103.8154 H   0  0  0  0  0  0  0  0  0  0  0  0
  119.0647  105.4769  107.4252 H   0  0  0  0  0  0  0  0  0  0  0  0
  118.0071  104.2379  106.7056 H   0  0  0  0  0  0  0  0  0  0  0  0
  119.4487  103.7459  107.5928 H   0  0  0  0  0  0  0  0  0  0  0  0
  1  2  1  0  0  0  0
  1  3  2  0  0  0  0
  2  8  2  0  0  0  0
  3  9  1  0  0  0  0
  4  6  2  0  0  0  0
  4 11  1  0  0  0  0
  5  7  1  0  0  0  0
  5 11  2  0  0  0  0
  6 12  1  0  0  0  0
  7 12  2  0  0  0  0
  8 13  1  0  0  0  0
  9 13  2  0  0  0  0
  9 16  1  0  0  0  0
 10 14  1  0  0  0  0
 10 15  2  0  0  0  0
 10 18  1  0  0  0  0
 11 19  1  0  0  0  0
 12 23  1  0  0  0  0
 13 25  1  0  0  0  0
 14 20  1  0  0  0  0
 14 22  2  0  0  0  0
 15 21  1  0  0  0  0
 15 23  1  0  0  0  0
 16 17  1  0  0  0  0
 16 24  2  0  0  0  0
 17 18  2  0  0  0  0
 17 25  1  0  0  0  0
 22 23  1  0  0  0  0
  1 26  1  0  0  0  0
  2 27  1  0  0  0  0
  3 28  1  0  0  0  0
  4 29  1  0  0  0  0
  5 30  1  0  0  0  0
  6 31  1  0  0  0  0
  7 32  1  0  0  0  0
  8 33  1  0  0  0  0
 18 34  1  0  0  0  0
 19 35  1  0  0  0  0
 19 36  1  0  0  0  0
 19 37  1  0  0  0  0
 20 38  1  0  0  0  0
 20 39  1  0  0  0  0
 20 40  1  0  0  0  0
 21 41  1  0  0  0  0
 21 42  1  0  0  0  0
 21 43  1  0  0  0  0
M  END
> <FRED Chemgauss4 score>
-10.874371

$$$$
C40261514	P61120112
  -OEChem-05122015313D

 26 27  0     1  0  0  0  0  0999 V2000
  123.0842  106.3399  106.1201 C   0  0  0  0  0  0  0  0  0  0  0  0
  125.0992  106.2721  107.4514 C   0  0  0  0  0  0  0  0  0  0  0  0
  123.8472  104.2450  107.0510 C   0  0  0  0  0  0  0  0  0  0  0  0
  123.4459  108.4839  110.7626 C   0  0  0  0  0  0  0  0  0  0  0  0
  123.4774  109.8575  110.8143 C   0  0  0  0  0  0  0  0  0  0  0  0
  124.1732  106.9930  106.6974 C   0  0  0  0  0  0  0  0  0  0  0  0
  122.9212  104.9659  106.2970 C   0  0  0  0  0  0  0  0  0  0  0  0
  124.9362  104.8981  107.6282 C   0  0  0  0  0  0  0  0  0  0  0  0
  124.4228  109.0983  108.9742 C   0  0  0  0  0  0  0  0  0  0  0  0
  125.1311  109.1564  107.6441 C   0  0  0  0  0  0  0  0  0  0  0  0
  124.3478  108.4619  106.5064 C   0  0  1  0  0  0  0  0  0  0  0  0
  124.0363  108.0175  109.6148 N   0  0  0  0  0  0  0  0  0  0  0  0
  124.1065  110.2367  109.6621 N   0  0  0  0  0  0  0  0  0  0  0  0
  125.0450  108.6963  105.2735 O   0  0  0  0  0  0  0  0  0  0  0  0
  121.5767  104.1606  105.5859 Cl  0  0  0  0  0  0  0  0  0  0  0  0
  126.0797  104.0089  108.5579 Cl  0  0  0  0  0  0  0  0  0  0  0  0
  122.3649  106.9063  105.5327 H   0  0  0  0  0  0  0  0  0  0  0  0
  125.9464  106.7867  107.8993 H   0  0  0  0  0  0  0  0  0  0  0  0
  123.7191  103.1734  107.1890 H   0  0  0  0  0  0  0  0  0  0  0  0
  123.0295  107.8071  111.4941 H   0  0  0  0  0  0  0  0  0  0  0  0
  123.1222  110.5756  111.5390 H   0  0  0  0  0  0  0  0  0  0  0  0
  125.3108  110.2104  107.3911 H   0  0  0  0  0  0  0  0  0  0  0  0
  126.1370  108.7244  107.7302 H   0  0  0  0  0  0  0  0  0  0  0  0
  123.3679  108.9568  106.3890 H   0  0  0  0  0  0  0  0  0  0  0  0
  124.2994  111.1861  109.3715 H   0  0  0  0  0  0  0  0  0  0  0  0
  125.1327  109.6560  105.1961 H   0  0  0  0  0  0  0  0  0  0  0  0
  1  6  1  0  0  0  0
  1  7  2  0  0  0  0
  2  6  2  0  0  0  0
  2  8  1  0  0  0  0
  3  7  1  0  0  0  0
  3  8  2  0  0  0  0
  4  5  2  0  0  0  0
  4 12  1  0  0  0  0
  5 13  1  0  0  0  0
  6 11  1  0  0  0  0
  7 15  1  0  0  0  0
  8 16  1  0  0  0  0
  9 10  1  0  0  0  0
  9 12  2  0  0  0  0
  9 13  1  0  0  0  0
 10 11  1  0  0  0  0
 11 14  1  0  0  0  0
  1 17  1  0  0  0  0
  2 18  1  0  0  0  0
  3 19  1  0  0  0  0
  4 20  1  0  0  0  0
  5 21  1  0  0  0  0
 10 22  1  0  0  0  0
 10 23  1  0  0  0  0
 11 24  1  0  0  0  0
 13 25  1  0  0  0  0
 14 26  1  0  0  0  0
M  END
> <FRED Chemgauss4 score>
-10.831138

$$$$
C71321549	P110267855
  -OEChem-05122015313D

 29 30  0     0  0  0  0  0  0999 V2000
  119.4821  105.9879  106.8932 C   0  0  0  0  0  0  0  0  0  0  0  0
  118.4842  106.9562  106.5823 C   0  0  0  0  0  0  0  0  0  0  0  0
  124.4560  106.5481  107.3120 C   0  0  0  0  0  0  0  0  0  0  0  0
  124.4174  104.1694  107.6657 C   0  0  0  0  0  0  0  0  0  0  0  0
  123.8595  105.3102  107.0995 C   0  0  0  0  0  0  0  0  0  0  0  0
  119.6355  105.0611  105.8857 C   0  0  0  0  0  0  0  0  0  0  0  0
  125.6001  106.5912  108.0924 C   0  0  0  0  0  0  0  0  0  0  0  0
  125.5634  104.3190  108.4301 C   0  0  0  0  0  0  0  0  0  0  0  0
  117.9130  106.7327  105.3487 C   0  0  0  0  0  0  0  0  0  0  0  0
  122.6567  105.2091  106.2886 C   0  0  0  0  0  0  0  0  0  0  0  0
  120.5745  103.8910  105.8272 C   0  0  0  0  0  0  0  0  0  0  0  0
  126.1712  105.5047  108.6589 N   0  0  0  0  0  0  0  0  0  0  0  0
  125.5326  109.0222  108.0021 N   0  0  0  0  0  0  0  0  0  0  0  0
  126.1965  107.8595  108.3008 N   0  0  0  0  0  0  0  0  0  0  0  0
  121.7950  104.1399  106.5603 N   0  0  0  0  0  0  0  0  0  0  0  0
  122.4330  106.0342  105.3850 O   0  0  0  0  0  0  0  0  0  0  0  0
  118.5792  105.3600  104.5715 S   0  0  0  0  0  0  0  0  0  0  0  0
  126.3213  102.9677  109.1675 Cl  0  0  0  0  0  0  0  0  0  0  0  0
  116.5471  107.8095  104.5856 Br  0  0  0  0  0  0  0  0  0  0  0  0
  120.0562  105.9754  107.8110 H   0  0  0  0  0  0  0  0  0  0  0  0
  118.2066  107.7723  107.2378 H   0  0  0  0  0  0  0  0  0  0  0  0
  124.0352  107.4506  106.8786 H   0  0  0  0  0  0  0  0  0  0  0  0
  123.9673  103.1935  107.5118 H   0  0  0  0  0  0  0  0  0  0  0  0
  120.1037  102.9967  106.2497 H   0  0  0  0  0  0  0  0  0  0  0  0
  120.8471  103.6572  104.7927 H   0  0  0  0  0  0  0  0  0  0  0  0
  126.1844  109.6453  107.5279 H   0  0  0  0  0  0  0  0  0  0  0  0
  125.2842  109.4865  108.8747 H   0  0  0  0  0  0  0  0  0  0  0  0
  127.0284  107.8984  108.8669 H   0  0  0  0  0  0  0  0  0  0  0  0
  122.0563  103.4593  107.2662 H   0  0  0  0  0  0  0  0  0  0  0  0
  1  2  1  0  0  0  0
  1  6  2  0  0  0  0
  2  9  2  0  0  0  0
  3  5  1  0  0  0  0
  3  7  2  0  0  0  0
  4  5  2  0  0  0  0
  4  8  1  0  0  0  0
  5 10  1  0  0  0  0
  6 11  1  0  0  0  0
  6 17  1  0  0  0  0
  7 12  1  0  0  0  0
  7 14  1  0  0  0  0
  8 12  2  0  0  0  0
  8 18  1  0  0  0  0
  9 17  1  0  0  0  0
  9 19  1  0  0  0  0
 10 15  1  0  0  0  0
 10 16  2  0  0  0  0
 11 15  1  0  0  0  0
 13 14  1  0  0  0  0
  1 20  1  0  0  0  0
  2 21  1  0  0  0  0
  3 22  1  0  0  0  0
  4 23  1  0  0  0  0
 11 24  1  0  0  0  0
 11 25  1  0  0  0  0
 13 26  1  0  0  0  0
 13 27  1  0  0  0  0
 14 28  1  0  0  0  0
 15 29  1  0  0  0  0
M  END
> <FRED Chemgauss4 score>
-10.820234

$$$$
C63132327	P96937982
  -OEChem-05122015313D

 38 39  0     0  0  0  0  0  0999 V2000
  126.1087  103.9118  108.1421 C   0  0  0  0  0  0  0  0  0  0  0  0
  125.5284  105.1167  108.5385 C   0  0  0  0  0  0  0  0  0  0  0  0
  124.4519  103.6876  106.3981 C   0  0  0  0  0  0  0  0  0  0  0  0
  116.2028  105.7448  104.3907 C   0  0  0  0  0  0  0  0  0  0  0  0
  115.7449  104.4701  104.1309 C   0  0  0  0  0  0  0  0  0  0  0  0
  123.8715  104.8924  106.7945 C   0  0  0  0  0  0  0  0  0  0  0  0
  125.5705  103.1973  107.0718 C   0  0  0  0  0  0  0  0  0  0  0  0
  124.4098  105.6070  107.8647 C   0  0  0  0  0  0  0  0  0  0  0  0
  117.8340  104.6123  105.3216 C   0  0  0  0  0  0  0  0  0  0  0  0
  122.7038  105.3781  106.0699 C   0  0  0  0  0  0  0  0  0  0  0  0
  124.6211  108.0479  108.2616 C   0  0  0  0  0  0  0  0  0  0  0  0
  122.4586  106.8807  108.7196 C   0  0  0  0  0  0  0  0  0  0  0  0
  119.1156  104.2953  106.0523 C   0  0  0  0  0  0  0  0  0  0  0  0
  120.3497  104.8842  105.3732 C   0  0  0  0  0  0  0  0  0  0  0  0
  117.4004  105.8283  105.0738 N   0  0  0  0  0  0  0  0  0  0  0  0
  126.1575  101.9790  106.6714 N   0  0  0  0  0  0  0  0  0  0  0  0
  121.5746  104.5535  106.0653 N   0  0  0  0  0  0  0  0  0  0  0  0
  123.8381  106.8297  108.2814 N   0  0  0  0  0  0  0  0  0  0  0  0
  122.7424  106.4677  105.4747 O   0  0  0  0  0  0  0  0  0  0  0  0
  116.8517  103.3216  104.7612 S   0  0  0  0  0  0  0  0  0  0  0  0
  126.9804  103.5389  108.6738 H   0  0  0  0  0  0  0  0  0  0  0  0
  125.9572  105.6651  109.3734 H   0  0  0  0  0  0  0  0  0  0  0  0
  124.0331  103.1291  105.5634 H   0  0  0  0  0  0  0  0  0  0  0  0
  115.6970  106.6560  104.1006 H   0  0  0  0  0  0  0  0  0  0  0  0
  114.8438  104.1689  103.6157 H   0  0  0  0  0  0  0  0  0  0  0  0
  124.0179  108.8880  108.6155 H   0  0  0  0  0  0  0  0  0  0  0  0
  124.9608  108.2623  107.2447 H   0  0  0  0  0  0  0  0  0  0  0  0
  125.4960  107.9454  108.9091 H   0  0  0  0  0  0  0  0  0  0  0  0
  122.1917  107.9023  109.0023 H   0  0  0  0  0  0  0  0  0  0  0  0
  122.3121  106.2267  109.5835 H   0  0  0  0  0  0  0  0  0  0  0  0
  121.7942  106.5530  107.9154 H   0  0  0  0  0  0  0  0  0  0  0  0
  119.2210  103.2047  106.1130 H   0  0  0  0  0  0  0  0  0  0  0  0
  119.0494  104.6502  107.0887 H   0  0  0  0  0  0  0  0  0  0  0  0
  120.4430  104.4851  104.3582 H   0  0  0  0  0  0  0  0  0  0  0  0
  120.2921  105.9756  105.3068 H   0  0  0  0  0  0  0  0  0  0  0  0
  126.9866  101.6622  107.1320 H   0  0  0  0  0  0  0  0  0  0  0  0
  125.7912  101.5003  105.8735 H   0  0  0  0  0  0  0  0  0  0  0  0
  121.6196  103.6451  106.5152 H   0  0  0  0  0  0  0  0  0  0  0  0
  1  2  2  0  0  0  0
  1  7  1  0  0  0  0
  2  8  1  0  0  0  0
  3  6  1  0  0  0  0
  3  7  2  0  0  0  0
  4  5  2  0  0  0  0
  4 15  1  0  0  0  0
  5 20  1  0  0  0  0
  6  8  2  0  0  0  0
  6 10  1  0  0  0  0
  7 16  1  0  0  0  0
  8 18  1  0  0  0  0
  9 13  1  0  0  0  0
  9 15  2  0  0  0  0
  9 20  1  0  0  0  0
 10 17  1  0  0  0  0
 10 19  2  0  0  0  0
 11 18  1  0  0  0  0
 12 18  1  0  0  0  0
 13 14  1  0  0  0  0
 14 17  1  0  0  0  0
  1 21  1  0  0  0  0
  2 22  1  0  0  0  0
  3 23  1  0  0  0  0
  4 24  1  0  0  0  0
  5 25  1  0  0  0  0
 11 26  1  0  0  0  0
 11 27  1  0  0  0  0
 11 28  1  0  0  0  0
 12 29  1  0  0  0  0
 12 30  1  0  0  0  0
 12 31  1  0  0  0  0
 13 32  1  0  0  0  0
 13 33  1  0  0  0  0
 14 34  1  0  0  0  0
 14 35  1  0  0  0  0
 16 36  1  0  0  0  0
 16 37  1  0  0  0  0
 17 38  1  0  0  0  0
M  END
> <FRED Chemgauss4 score>
-10.820028

$$$$
C90433671	P141417571
  -OEChem-05122015313D

 44 45  0     1  0  0  0  0  0999 V2000
  120.6068  105.2448  107.1035 C   0  0  0  0  0  0  0  0  0  0  0  0
  126.7336  108.2599  107.5294 C   0  0  0  0  0  0  0  0  0  0  0  0
  122.8170  106.6496  108.6785 C   0  0  0  0  0  0  0  0  0  0  0  0
  123.5595  104.5720  107.4870 C   0  0  0  0  0  0  0  0  0  0  0  0
  124.2897  107.0017  108.8954 C   0  0  0  0  0  0  0  0  0  0  0  0
  125.0077  104.9931  107.7423 C   0  0  0  0  0  0  0  0  0  0  0  0
  119.1070  103.4777  106.2317 C   0  0  0  0  0  0  0  0  0  0  0  0
  118.6550  105.2093  104.7264 C   0  0  0  0  0  0  0  0  0  0  0  0
  119.1782  104.7891  106.9954 C   0  0  2  0  0  0  0  0  0  0  0  0
  122.6207  105.1387  108.5518 C   0  0  0  0  0  0  0  0  0  0  0  0
  118.3262  105.6966  106.1264 C   0  0  1  0  0  0  0  0  0  0  0  0
  117.8128  107.6248  107.4595 C   0  0  0  0  0  0  0  0  0  0  0  0
  126.5258  106.8435  108.0138 C   0  0  0  0  0  0  0  0  0  0  0  0
  125.1288  106.4556  107.8198 N   0  0  0  0  0  0  0  0  0  0  0  0
  127.7190  108.9158  108.2356 N   0  0  0  0  0  0  0  0  0  0  0  0
  121.2481  104.8170  108.2500 N   0  0  0  0  0  0  0  0  0  0  0  0
  118.5472  107.1200  106.3053 N   0  0  0  0  0  0  0  0  0  0  0  0
  121.0909  105.9321  106.2118 O   0  0  0  0  0  0  0  0  0  0  0  0
  126.1272  108.7569  106.5843 O   0  0  0  0  0  0  0  0  0  0  0  0
  118.9280  103.8043  104.8421 O   0  0  0  0  0  0  0  0  0  0  0  0
  122.2337  107.0157  109.5295 H   0  0  0  0  0  0  0  0  0  0  0  0
  122.4462  107.1623  107.7867 H   0  0  0  0  0  0  0  0  0  0  0  0
  123.2541  104.9001  106.4897 H   0  0  0  0  0  0  0  0  0  0  0  0
  123.4984  103.4789  107.5017 H   0  0  0  0  0  0  0  0  0  0  0  0
  124.4073  108.0908  108.9692 H   0  0  0  0  0  0  0  0  0  0  0  0
  124.6020  106.5776  109.8578 H   0  0  0  0  0  0  0  0  0  0  0  0
  125.3294  104.5460  108.6911 H   0  0  0  0  0  0  0  0  0  0  0  0
  125.6594  104.5873  106.9572 H   0  0  0  0  0  0  0  0  0  0  0  0
  120.0031  102.8578  106.3376 H   0  0  0  0  0  0  0  0  0  0  0  0
  118.2384  102.8842  106.5390 H   0  0  0  0  0  0  0  0  0  0  0  0
  117.8319  105.3654  104.0224 H   0  0  0  0  0  0  0  0  0  0  0  0
  119.5529  105.6850  104.3157 H   0  0  0  0  0  0  0  0  0  0  0  0
  118.7882  104.6946  108.0138 H   0  0  0  0  0  0  0  0  0  0  0  0
  122.8315  104.6613  109.5145 H   0  0  0  0  0  0  0  0  0  0  0  0
  117.2724  105.4849  106.3278 H   0  0  0  0  0  0  0  0  0  0  0  0
  118.1300  107.1012  108.3651 H   0  0  0  0  0  0  0  0  0  0  0  0
  116.7392  107.4704  107.3214 H   0  0  0  0  0  0  0  0  0  0  0  0
  117.9994  108.6945  107.5879 H   0  0  0  0  0  0  0  0  0  0  0  0
  126.7564  106.7574  109.0791 H   0  0  0  0  0  0  0  0  0  0  0  0
  127.1599  106.1636  107.4385 H   0  0  0  0  0  0  0  0  0  0  0  0
  128.2184  108.4519  108.9871 H   0  0  0  0  0  0  0  0  0  0  0  0
  127.9839  109.8752  108.0363 H   0  0  0  0  0  0  0  0  0  0  0  0
  120.7280  104.2489  108.9116 H   0  0  0  0  0  0  0  0  0  0  0  0
  118.2386  107.6195  105.4700 H   0  0  0  0  0  0  0  0  0  0  0  0
  1  9  1  0  0  0  0
  1 16  1  0  0  0  0
  1 18  2  0  0  0  0
  2 13  1  0  0  0  0
  2 15  1  0  0  0  0
  2 19  2  0  0  0  0
  3  5  1  0  0  0  0
  3 10  1  0  0  0  0
  4  6  1  0  0  0  0
  4 10  1  0  0  0  0
  5 14  1  0  0  0  0
  6 14  1  0  0  0  0
  7  9  1  0  0  0  0
  7 20  1  0  0  0  0
  8 11  1  0  0  0  0
  8 20  1  0  0  0  0
  9 11  1  0  0  0  0
 10 16  1  0  0  0  0
 11 17  1  0  0  0  0
 12 17  1  0  0  0  0
 13 14  1  0  0  0  0
  3 21  1  0  0  0  0
  3 22  1  0  0  0  0
  4 23  1  0  0  0  0
  4 24  1  0  0  0  0
  5 25  1  0  0  0  0
  5 26  1  0  0  0  0
  6 27  1  0  0  0  0
  6 28  1  0  0  0  0
  7 29  1  0  0  0  0
  7 30  1  0  0  0  0
  8 31  1  0  0  0  0
  8 32  1  0  0  0  0
  9 33  1  0  0  0  0
 10 34  1  0  0  0  0
 11 35  1  0  0  0  0
 12 36  1  0  0  0  0
 12 37  1  0  0  0  0
 12 38  1  0  0  0  0
 13 39  1  0  0  0  0
 13 40  1  0  0  0  0
 15 41  1  0  0  0  0
 15 42  1  0  0  0  0
 16 43  1  0  0  0  0
 17 44  1  0  0  0  0
M  END
> <FRED Chemgauss4 score>
-10.812069

$$$$
Y-2-triFBP	P10000004
  -OEChem-05122015313D

 33 34  0     1  0  0  0  0  0999 V2000
  120.7886  107.8909  107.4897 C   0  0  0  0  0  0  0  0  0  0  0  0
  121.9059  107.3011  108.0809 C   0  0  0  0  0  0  0  0  0  0  0  0
  119.8144  107.0932  106.8895 C   0  0  0  0  0  0  0  0  0  0  0  0
  121.0748  105.1160  107.4714 C   0  0  0  0  0  0  0  0  0  0  0  0
  122.0490  105.9137  108.0718 C   0  0  0  0  0  0  0  0  0  0  0  0
  119.9576  105.7057  106.8803 C   0  0  0  0  0  0  0  0  0  0  0  0
  126.3507  108.5050  107.4223 C   0  0  0  0  0  0  0  0  0  0  0  0
  124.9176  106.4944  107.2212 C   0  0  0  0  0  0  0  0  0  0  0  0
  125.7170  105.5443  109.2433 C   0  0  0  0  0  0  0  0  0  0  0  0
  126.3494  106.9920  107.3776 C   0  0  2  0  0  0  0  0  0  0  0  0
  124.4747  106.1807  108.6471 C   0  0  2  0  0  0  0  0  0  0  0  0
  123.2557  105.2772  108.7121 C   0  0  0  0  0  0  0  0  0  0  0  0
  118.9161  104.8529  106.2377 C   0  0  0  0  0  0  0  0  0  0  0  0
  126.8370  106.3451  108.6487 N   0  3  0  0  0  0  0  0  0  0  0  0
  125.6400  109.0181  108.3306 O   0  5  0  0  0  0  0  0  0  0  0  0
  127.0654  109.0603  106.5414 O   0  0  0  0  0  0  0  0  0  0  0  0
  117.8813  105.5642  105.7003 F   0  0  0  0  0  0  0  0  0  0  0  0
  119.3929  104.0877  105.2118 F   0  0  0  0  0  0  0  0  0  0  0  0
  118.3424  103.9763  107.1125 F   0  0  0  0  0  0  0  0  0  0  0  0
  120.6772  108.9714  107.4970 H   0  0  0  0  0  0  0  0  0  0  0  0
  122.6596  107.9307  108.5468 H   0  0  0  0  0  0  0  0  0  0  0  0
  118.9476  107.5614  106.4306 H   0  0  0  0  0  0  0  0  0  0  0  0
  121.1854  104.0341  107.4648 H   0  0  0  0  0  0  0  0  0  0  0  0
  124.2528  107.2218  106.7429 H   0  0  0  0  0  0  0  0  0  0  0  0
  124.9097  105.5851  106.6066 H   0  0  0  0  0  0  0  0  0  0  0  0
  125.7770  105.6217  110.3320 H   0  0  0  0  0  0  0  0  0  0  0  0
  125.8628  104.5077  108.9223 H   0  0  0  0  0  0  0  0  0  0  0  0
  126.9913  106.6482  106.5607 H   0  0  0  0  0  0  0  0  0  0  0  0
  124.2533  107.1174  109.1755 H   0  0  0  0  0  0  0  0  0  0  0  0
  123.0301  105.0304  109.7574 H   0  0  0  0  0  0  0  0  0  0  0  0
  123.4732  104.3217  108.2176 H   0  0  0  0  0  0  0  0  0  0  0  0
  127.1481  107.0637  109.3168 H   0  0  0  0  0  0  0  0  0  0  0  0
  127.6541  105.7459  108.4683 H   0  0  0  0  0  0  0  0  0  0  0  0
  1  2  1  0  0  0  0
  1  3  2  0  0  0  0
  2  5  2  0  0  0  0
  3  6  1  0  0  0  0
  4  5  1  0  0  0  0
  4  6  2  0  0  0  0
  5 12  1  0  0  0  0
  6 13  1  0  0  0  0
  7 10  1  0  0  0  0
  7 15  1  0  0  0  0
  7 16  2  0  0  0  0
  8 10  1  0  0  0  0
  8 11  1  0  0  0  0
  9 11  1  0  0  0  0
  9 14  1  0  0  0  0
 10 14  1  0  0  0  0
 11 12  1  0  0  0  0
 13 17  1  0  0  0  0
 13 18  1  0  0  0  0
 13 19  1  0  0  0  0
  1 20  1  0  0  0  0
  2 21  1  0  0  0  0
  3 22  1  0  0  0  0
  4 23  1  0  0  0  0
  8 24  1  0  0  0  0
  8 25  1  0  0  0  0
  9 26  1  0  0  0  0
  9 27  1  0  0  0  0
 10 28  1  0  0  0  0
 11 29  1  0  0  0  0
 12 30  1  0  0  0  0
 12 31  1  0  0  0  0
 14 32  1  0  0  0  0
 14 33  1  0  0  0  0
M  CHG  2  14   1  15  -1
M  END
> <FRED Chemgauss4 score>
-10.800710

$$$$
C94090624	P147455962
  -OEChem-05122015313D

 35 37  0     1  0  0  0  0  0999 V2000
  124.3014  107.0145  106.1254 C   0  0  0  0  0  0  0  0  0  0  0  0
  125.2933  107.9285  106.4891 C   0  0  0  0  0  0  0  0  0  0  0  0
  126.1264  106.4135  108.1984 C   0  0  0  0  0  0  0  0  0  0  0  0
  118.5783  103.4288  106.0908 C   0  0  0  0  0  0  0  0  0  0  0  0
  117.9160  105.7246  106.3961 C   0  0  0  0  0  0  0  0  0  0  0  0
  124.2220  105.8145  106.8155 C   0  0  0  0  0  0  0  0  0  0  0  0
  125.1317  105.5185  107.8399 C   0  0  0  0  0  0  0  0  0  0  0  0
  126.1986  107.6306  107.5188 C   0  0  0  0  0  0  0  0  0  0  0  0
  119.5814  104.2992  106.4628 C   0  0  0  0  0  0  0  0  0  0  0  0
  124.8919  104.1489  108.3929 C   0  0  0  0  0  0  0  0  0  0  0  0
  123.4605  103.8800  107.9085 C   0  0  0  0  0  0  0  0  0  0  0  0
  123.2885  104.6603  106.5914 C   0  0  1  0  0  0  0  0  0  0  0  0
  121.7292  105.4751  104.9837 C   0  0  0  0  0  0  0  0  0  0  0  0
  121.0206  103.9339  106.6853 C   0  0  0  0  0  0  0  0  0  0  0  0
  119.2036  105.6161  106.6379 N   0  0  0  0  0  0  0  0  0  0  0  0
  127.1884  108.5731  107.8729 N   0  0  0  0  0  0  0  0  0  0  0  0
  121.9223  105.0421  106.3682 N   0  0  1  0  0  0  0  0  0  0  0  0
  117.0973  104.2828  105.9537 S   0  0  0  0  0  0  0  0  0  0  0  0
  123.6097  107.2451  105.3210 H   0  0  0  0  0  0  0  0  0  0  0  0
  125.3531  108.8803  105.9658 H   0  0  0  0  0  0  0  0  0  0  0  0
  126.8291  106.1691  108.9892 H   0  0  0  0  0  0  0  0  0  0  0  0
  118.6369  102.3665  105.8995 H   0  0  0  0  0  0  0  0  0  0  0  0
  117.3943  106.6689  106.4702 H   0  0  0  0  0  0  0  0  0  0  0  0
  125.5931  103.4093  107.9951 H   0  0  0  0  0  0  0  0  0  0  0  0
  124.9469  104.1676  109.4866 H   0  0  0  0  0  0  0  0  0  0  0  0
  123.3522  102.8062  107.6989 H   0  0  0  0  0  0  0  0  0  0  0  0
  122.7105  104.1272  108.6674 H   0  0  0  0  0  0  0  0  0  0  0  0
  123.6481  104.0310  105.7473 H   0  0  0  0  0  0  0  0  0  0  0  0
  120.6874  105.7638  104.8222 H   0  0  0  0  0  0  0  0  0  0  0  0
  121.9802  104.6634  104.2954 H   0  0  0  0  0  0  0  0  0  0  0  0
  122.3704  106.3327  104.7629 H   0  0  0  0  0  0  0  0  0  0  0  0
  121.1898  103.6496  107.7296 H   0  0  0  0  0  0  0  0  0  0  0  0
  121.3096  103.0791  106.0647 H   0  0  0  0  0  0  0  0  0  0  0  0
  127.2597  109.4223  107.3515 H   0  0  0  0  0  0  0  0  0  0  0  0
  127.8582  108.3340  108.5747 H   0  0  0  0  0  0  0  0  0  0  0  0
  1  2  1  0  0  0  0
  1  6  2  0  0  0  0
  2  8  2  0  0  0  0
  3  7  2  0  0  0  0
  3  8  1  0  0  0  0
  4  9  2  0  0  0  0
  4 18  1  0  0  0  0
  5 15  2  0  0  0  0
  5 18  1  0  0  0  0
  6  7  1  0  0  0  0
  6 12  1  0  0  0  0
  7 10  1  0  0  0  0
  8 16  1  0  0  0  0
  9 14  1  0  0  0  0
  9 15  1  0  0  0  0
 10 11  1  0  0  0  0
 11 12  1  0  0  0  0
 12 17  1  0  0  0  0
 13 17  1  0  0  0  0
 14 17  1  0  0  0  0
  1 19  1  0  0  0  0
  2 20  1  0  0  0  0
  3 21  1  0  0  0  0
  4 22  1  0  0  0  0
  5 23  1  0  0  0  0
 10 24  1  0  0  0  0
 10 25  1  0  0  0  0
 11 26  1  0  0  0  0
 11 27  1  0  0  0  0
 12 28  1  0  0  0  0
 13 29  1  0  0  0  0
 13 30  1  0  0  0  0
 13 31  1  0  0  0  0
 14 32  1  0  0  0  0
 14 33  1  0  0  0  0
 16 34  1  0  0  0  0
 16 35  1  0  0  0  0
M  END
> <FRED Chemgauss4 score>
-10.790473

$$$$
C97300902	P154083584
  -OEChem-05122015313D

 42 42  0     1  0  0  0  0  0999 V2000
  124.6912  108.9465  109.0581 C   0  0  0  0  0  0  0  0  0  0  0  0
  125.9675  107.8306  107.2504 C   0  0  0  0  0  0  0  0  0  0  0  0
  119.6435  107.1182  105.3515 C   0  0  0  0  0  0  0  0  0  0  0  0
  124.0385  107.6317  109.3947 C   0  0  0  0  0  0  0  0  0  0  0  0
  125.3950  106.4783  107.7027 C   0  0  0  0  0  0  0  0  0  0  0  0
  125.3455  105.5565  106.4639 C   0  0  0  0  0  0  0  0  0  0  0  0
  126.3823  105.8728  108.7207 C   0  0  0  0  0  0  0  0  0  0  0  0
  119.0541  105.3617  107.0328 C   0  0  0  0  0  0  0  0  0  0  0  0
  119.4663  107.6525  107.8931 C   0  0  0  0  0  0  0  0  0  0  0  0
  121.7640  105.8282  108.4351 C   0  0  0  0  0  0  0  0  0  0  0  0
  121.3952  106.2714  107.0119 C   0  0  0  0  0  0  0  0  0  0  0  0
  123.2622  105.5401  108.5457 C   0  0  0  0  0  0  0  0  0  0  0  0
  119.8952  106.6411  106.8075 C   0  0  0  0  0  0  0  0  0  0  0  0
  125.6032  108.9259  108.0194 N   0  0  0  0  0  0  0  0  0  0  0  0
  124.0371  106.7429  108.2298 N   0  0  1  0  0  0  0  0  0  0  0  0
  118.3409  107.4254  105.0391 N   0  0  0  0  0  0  0  0  0  0  0  0
  124.4473  109.9633  109.7088 O   0  0  0  0  0  0  0  0  0  0  0  0
  126.7514  107.9394  106.3061 O   0  0  0  0  0  0  0  0  0  0  0  0
  120.8271  107.2994  104.1752 S   0  0  0  0  0  0  0  0  0  0  0  0
  124.5383  107.1957  110.2654 H   0  0  0  0  0  0  0  0  0  0  0  0
  123.0052  107.8641  109.6792 H   0  0  0  0  0  0  0  0  0  0  0  0
  124.9444  104.5944  106.7576 H   0  0  0  0  0  0  0  0  0  0  0  0
  126.3490  105.4362  106.0751 H   0  0  0  0  0  0  0  0  0  0  0  0
  124.7094  106.0097  105.7138 H   0  0  0  0  0  0  0  0  0  0  0  0
  126.0017  104.9153  109.0571 H   0  0  0  0  0  0  0  0  0  0  0  0
  126.4799  106.5469  109.5638 H   0  0  0  0  0  0  0  0  0  0  0  0
  127.3460  105.7386  108.2430 H   0  0  0  0  0  0  0  0  0  0  0  0
  119.1913  104.9755  108.0497 H   0  0  0  0  0  0  0  0  0  0  0  0
  119.3407  104.5698  106.3312 H   0  0  0  0  0  0  0  0  0  0  0  0
  117.9826  105.5441  106.8967 H   0  0  0  0  0  0  0  0  0  0  0  0
  119.6581  107.2835  108.9057 H   0  0  0  0  0  0  0  0  0  0  0  0
  119.9979  108.6053  107.7853 H   0  0  0  0  0  0  0  0  0  0  0  0
  118.3945  107.8728  107.8234 H   0  0  0  0  0  0  0  0  0  0  0  0
  121.4916  106.6092  109.1544 H   0  0  0  0  0  0  0  0  0  0  0  0
  121.2035  104.9260  108.7045 H   0  0  0  0  0  0  0  0  0  0  0  0
  121.6619  105.4636  106.3165 H   0  0  0  0  0  0  0  0  0  0  0  0
  122.0333  107.1202  106.7356 H   0  0  0  0  0  0  0  0  0  0  0  0
  123.5450  104.7422  107.8507 H   0  0  0  0  0  0  0  0  0  0  0  0
  123.5099  105.2047  109.5588 H   0  0  0  0  0  0  0  0  0  0  0  0
  126.0294  109.8147  107.7724 H   0  0  0  0  0  0  0  0  0  0  0  0
  117.6072  107.3354  105.7344 H   0  0  0  0  0  0  0  0  0  0  0  0
  118.0515  107.7453  104.1214 H   0  0  0  0  0  0  0  0  0  0  0  0
  1  4  1  0  0  0  0
  1 14  1  0  0  0  0
  1 17  2  0  0  0  0
  2  5  1  0  0  0  0
  2 14  1  0  0  0  0
  2 18  2  0  0  0  0
  3 13  1  0  0  0  0
  3 16  1  0  0  0  0
  3 19  2  0  0  0  0
  4 15  1  0  0  0  0
  5  6  1  0  0  0  0
  5  7  1  0  0  0  0
  5 15  1  0  0  0  0
  8 13  1  0  0  0  0
  9 13  1  0  0  0  0
 10 11  1  0  0  0  0
 10 12  1  0  0  0  0
 11 13  1  0  0  0  0
 12 15  1  0  0  0  0
  4 20  1  0  0  0  0
  4 21  1  0  0  0  0
  6 22  1  0  0  0  0
  6 23  1  0  0  0  0
  6 24  1  0  0  0  0
  7 25  1  0  0  0  0
  7 26  1  0  0  0  0
  7 27  1  0  0  0  0
  8 28  1  0  0  0  0
  8 29  1  0  0  0  0
  8 30  1  0  0  0  0
  9 31  1  0  0  0  0
  9 32  1  0  0  0  0
  9 33  1  0  0  0  0
 10 34  1  0  0  0  0
 10 35  1  0  0  0  0
 11 36  1  0  0  0  0
 11 37  1  0  0  0  0
 12 38  1  0  0  0  0
 12 39  1  0  0  0  0
 14 40  1  0  0  0  0
 16 41  1  0  0  0  0
 16 42  1  0  0  0  0
M  END
> <FRED Chemgauss4 score>
-10.787846

$$$$
C37661522	P56014844
  -OEChem-05122015313D

 41 42  0     1  0  0  0  0  0999 V2000
  119.4763  103.6104  105.8123 C   0  0  0  0  0  0  0  0  0  0  0  0
  118.9583  103.4777  104.5288 C   0  0  0  0  0  0  0  0  0  0  0  0
  120.2988  104.6896  106.1159 C   0  0  0  0  0  0  0  0  0  0  0  0
  119.2902  104.4435  103.5924 C   0  0  0  0  0  0  0  0  0  0  0  0
  120.5709  105.6010  105.1084 C   0  0  0  0  0  0  0  0  0  0  0  0
  123.6529  108.5230  109.9710 C   0  0  0  0  0  0  0  0  0  0  0  0
  124.6948  104.7934  108.0125 C   0  0  0  0  0  0  0  0  0  0  0  0
  125.4683  104.2036  109.1790 C   0  0  0  0  0  0  0  0  0  0  0  0
  126.6604  106.0984  108.5742 C   0  0  0  0  0  0  0  0  0  0  0  0
  125.4058  106.1090  107.7078 C   0  0  2  0  0  0  0  0  0  0  0  0
  121.4602  106.7849  105.4022 C   0  0  0  0  0  0  0  0  0  0  0  0
  124.0132  107.1495  109.4535 C   0  0  0  0  0  0  0  0  0  0  0  0
  122.5018  106.4954  106.4763 C   0  0  0  0  0  0  0  0  0  0  0  0
  120.0860  105.5056  103.8501 N   0  0  0  0  0  0  0  0  0  0  0  0
  126.8247  104.6964  108.9561 N   0  0  0  0  0  0  0  0  0  0  0  0
  122.6006  108.4882  110.8604 N   0  0  0  0  0  0  0  0  0  0  0  0
  124.5481  107.2589  108.0716 N   0  0  2  0  0  0  0  0  0  0  0  0
  124.2572  109.5489  109.6703 O   0  0  0  0  0  0  0  0  0  0  0  0
  122.6479  108.9106  107.4596 O   0  0  0  0  0  0  0  0  0  0  0  0
  124.2873  108.2267  105.6783 O   0  0  0  0  0  0  0  0  0  0  0  0
  123.5118  107.9096  106.8627 S   0  0  0  0  0  0  0  0  0  0  0  0
  119.2394  102.8741  106.5744 H   0  0  0  0  0  0  0  0  0  0  0  0
  118.3150  102.6446  104.2696 H   0  0  0  0  0  0  0  0  0  0  0  0
  120.7093  104.8046  107.1133 H   0  0  0  0  0  0  0  0  0  0  0  0
  118.9118  104.3858  102.5771 H   0  0  0  0  0  0  0  0  0  0  0  0
  124.7790  104.1282  107.1438 H   0  0  0  0  0  0  0  0  0  0  0  0
  123.6308  104.9061  108.2448 H   0  0  0  0  0  0  0  0  0  0  0  0
  125.0770  104.5747  110.1336 H   0  0  0  0  0  0  0  0  0  0  0  0
  125.4300  103.1107  109.1871 H   0  0  0  0  0  0  0  0  0  0  0  0
  127.5346  106.4551  108.0209 H   0  0  0  0  0  0  0  0  0  0  0  0
  126.5498  106.7226  109.4695 H   0  0  0  0  0  0  0  0  0  0  0  0
  125.6494  106.1755  106.6417 H   0  0  0  0  0  0  0  0  0  0  0  0
  120.8303  107.6195  105.7369 H   0  0  0  0  0  0  0  0  0  0  0  0
  121.9544  107.1263  104.4837 H   0  0  0  0  0  0  0  0  0  0  0  0
  123.1343  106.4996  109.4261 H   0  0  0  0  0  0  0  0  0  0  0  0
  124.7836  106.7087  110.0920 H   0  0  0  0  0  0  0  0  0  0  0  0
  122.0046  106.2180  107.4114 H   0  0  0  0  0  0  0  0  0  0  0  0
  123.1791  105.6842  106.1927 H   0  0  0  0  0  0  0  0  0  0  0  0
  127.3839  104.6162  109.8035 H   0  0  0  0  0  0  0  0  0  0  0  0
  122.1543  107.6107  111.1060 H   0  0  0  0  0  0  0  0  0  0  0  0
  122.2338  109.3253  111.3019 H   0  0  0  0  0  0  0  0  0  0  0  0
  1  2  1  0  0  0  0
  1  3  2  0  0  0  0
  2  4  2  0  0  0  0
  3  5  1  0  0  0  0
  4 14  1  0  0  0  0
  5 11  1  0  0  0  0
  5 14  2  0  0  0  0
  6 12  1  0  0  0  0
  6 16  1  0  0  0  0
  6 18  2  0  0  0  0
  7  8  1  0  0  0  0
  7 10  1  0  0  0  0
  8 15  1  0  0  0  0
  9 10  1  0  0  0  0
  9 15  1  0  0  0  0
 10 17  1  0  0  0  0
 11 13  1  0  0  0  0
 12 17  1  0  0  0  0
 13 21  1  0  0  0  0
 17 21  1  0  0  0  0
 19 21  2  0  0  0  0
 20 21  2  0  0  0  0
  1 22  1  0  0  0  0
  2 23  1  0  0  0  0
  3 24  1  0  0  0  0
  4 25  1  0  0  0  0
  7 26  1  0  0  0  0
  7 27  1  0  0  0  0
  8 28  1  0  0  0  0
  8 29  1  0  0  0  0
  9 30  1  0  0  0  0
  9 31  1  0  0  0  0
 10 32  1  0  0  0  0
 11 33  1  0  0  0  0
 11 34  1  0  0  0  0
 12 35  1  0  0  0  0
 12 36  1  0  0  0  0
 13 37  1  0  0  0  0
 13 38  1  0  0  0  0
 15 39  1  0  0  0  0
 16 40  1  0  0  0  0
 16 41  1  0  0  0  0
M  END
> <FRED Chemgauss4 score>
-10.766052

$$$$
C90493141	P141528232
  -OEChem-05122015313D

 48 49  0     1  0  0  0  0  0999 V2000
  123.0976  105.4831  106.3455 C   0  0  0  0  0  0  0  0  0  0  0  0
  117.7625  104.8594  104.3077 C   0  0  0  0  0  0  0  0  0  0  0  0
  118.2009  103.8716  106.5905 C   0  0  0  0  0  0  0  0  0  0  0  0
  119.2270  104.6333  103.9267 C   0  0  0  0  0  0  0  0  0  0  0  0
  119.6666  103.6456  106.2126 C   0  0  0  0  0  0  0  0  0  0  0  0
  125.0280  104.2529  107.3219 C   0  0  0  0  0  0  0  0  0  0  0  0
  125.9067  105.9309  108.6695 C   0  0  0  0  0  0  0  0  0  0  0  0
  123.9282  105.2760  107.5724 C   0  0  1  0  0  0  0  0  0  0  0  0
  117.2884  103.8476  105.3582 C   0  0  0  0  0  0  0  0  0  0  0  0
  124.7080  106.5207  107.9566 C   0  0  1  0  0  0  0  0  0  0  0  0
  120.1555  104.6415  105.1509 C   0  0  0  0  0  0  0  0  0  0  0  0
  115.8389  104.1216  105.7550 C   0  0  0  0  0  0  0  0  0  0  0  0
  123.8287  109.6787  109.7141 C   0  0  0  0  0  0  0  0  0  0  0  0
  121.5942  104.3220  104.7411 C   0  0  0  0  0  0  0  0  0  0  0  0
  124.5968  108.7341  108.8536 C   0  0  0  0  0  0  0  0  0  0  0  0
  122.4360  104.3444  105.8886 N   0  0  0  0  0  0  0  0  0  0  0  0
  123.9515  107.4324  108.7975 N   0  0  0  0  0  0  0  0  0  0  0  0
  123.0450  106.5946  105.8321 O   0  0  0  0  0  0  0  0  0  0  0  0
  126.2264  104.7348  107.9496 O   0  0  0  0  0  0  0  0  0  0  0  0
  120.1478  105.9479  105.7340 O   0  0  0  0  0  0  0  0  0  0  0  0
  117.6356  105.8814  104.6868 H   0  0  0  0  0  0  0  0  0  0  0  0
  117.1417  104.7795  103.4071 H   0  0  0  0  0  0  0  0  0  0  0  0
  117.8900  103.0949  107.2997 H   0  0  0  0  0  0  0  0  0  0  0  0
  118.1016  104.8318  107.1126 H   0  0  0  0  0  0  0  0  0  0  0  0
  119.3143  103.6760  103.3971 H   0  0  0  0  0  0  0  0  0  0  0  0
  119.5236  105.4225  103.2247 H   0  0  0  0  0  0  0  0  0  0  0  0
  120.2726  103.7354  107.1227 H   0  0  0  0  0  0  0  0  0  0  0  0
  119.7851  102.6187  105.8439 H   0  0  0  0  0  0  0  0  0  0  0  0
  124.7850  103.2863  107.7802 H   0  0  0  0  0  0  0  0  0  0  0  0
  125.2297  104.0832  106.2577 H   0  0  0  0  0  0  0  0  0  0  0  0
  126.7679  106.5954  108.6034 H   0  0  0  0  0  0  0  0  0  0  0  0
  125.7335  105.6943  109.7172 H   0  0  0  0  0  0  0  0  0  0  0  0
  123.2403  104.9303  108.3637 H   0  0  0  0  0  0  0  0  0  0  0  0
  117.3323  102.8435  104.9153 H   0  0  0  0  0  0  0  0  0  0  0  0
  125.0453  107.0923  107.0529 H   0  0  0  0  0  0  0  0  0  0  0  0
  115.7590  105.1124  106.1990 H   0  0  0  0  0  0  0  0  0  0  0  0
  115.5079  103.3785  106.4785 H   0  0  0  0  0  0  0  0  0  0  0  0
  115.2000  104.0723  104.8748 H   0  0  0  0  0  0  0  0  0  0  0  0
  122.8164  109.8282  109.3232 H   0  0  0  0  0  0  0  0  0  0  0  0
  123.7673  109.3076  110.7429 H   0  0  0  0  0  0  0  0  0  0  0  0
  124.3303  110.6536  109.7350 H   0  0  0  0  0  0  0  0  0  0  0  0
  121.9261  105.0712  104.0358 H   0  0  0  0  0  0  0  0  0  0  0  0
  121.6198  103.3380  104.2949 H   0  0  0  0  0  0  0  0  0  0  0  0
  125.6065  108.5894  109.2495 H   0  0  0  0  0  0  0  0  0  0  0  0
  124.6706  109.1138  107.8303 H   0  0  0  0  0  0  0  0  0  0  0  0
  122.5633  103.4704  106.4105 H   0  0  0  0  0  0  0  0  0  0  0  0
  123.0152  107.5329  108.4130 H   0  0  0  0  0  0  0  0  0  0  0  0
  119.2306  106.1257  105.9880 H   0  0  0  0  0  0  0  0  0  0  0  0
  1  8  1  0  0  0  0
  1 16  1  0  0  0  0
  1 18  2  0  0  0  0
  2  4  1  0  0  0  0
  2  9  1  0  0  0  0
  3  5  1  0  0  0  0
  3  9  1  0  0  0  0
  4 11  1  0  0  0  0
  5 11  1  0  0  0  0
  6  8  1  0  0  0  0
  6 19  1  0  0  0  0
  7 10  1  0  0  0  0
  7 19  1  0  0  0  0
  8 10  1  0  0  0  0
  9 12  1  0  0  0  0
 10 17  1  0  0  0  0
 11 14  1  0  0  0  0
 11 20  1  0  0  0  0
 13 15  1  0  0  0  0
 14 16  1  0  0  0  0
 15 17  1  0  0  0  0
  2 21  1  0  0  0  0
  2 22  1  0  0  0  0
  3 23  1  0  0  0  0
  3 24  1  0  0  0  0
  4 25  1  0  0  0  0
  4 26  1  0  0  0  0
  5 27  1  0  0  0  0
  5 28  1  0  0  0  0
  6 29  1  0  0  0  0
  6 30  1  0  0  0  0
  7 31  1  0  0  0  0
  7 32  1  0  0  0  0
  8 33  1  0  0  0  0
  9 34  1  0  0  0  0
 10 35  1  0  0  0  0
 12 36  1  0  0  0  0
 12 37  1  0  0  0  0
 12 38  1  0  0  0  0
 13 39  1  0  0  0  0
 13 40  1  0  0  0  0
 13 41  1  0  0  0  0
 14 42  1  0  0  0  0
 14 43  1  0  0  0  0
 15 44  1  0  0  0  0
 15 45  1  0  0  0  0
 16 46  1  0  0  0  0
 17 47  1  0  0  0  0
 20 48  1  0  0  0  0
M  END
> <FRED Chemgauss4 score>
-10.762155

$$$$
C35329488	P52423136
  -OEChem-05122015313D

 43 44  0     1  0  0  0  0  0999 V2000
  120.3990  106.5123  107.0414 C   0  0  0  0  0  0  0  0  0  0  0  0
  119.4287  106.9023  106.1185 C   0  0  0  0  0  0  0  0  0  0  0  0
  119.0381  104.5867  105.5507 C   0  0  0  0  0  0  0  0  0  0  0  0
  120.6890  105.1595  107.2189 C   0  0  0  0  0  0  0  0  0  0  0  0
  120.0085  104.1967  106.4736 C   0  0  0  0  0  0  0  0  0  0  0  0
  118.7481  105.9395  105.3731 C   0  0  0  0  0  0  0  0  0  0  0  0
  125.5796  104.3197  108.3591 C   0  0  0  0  0  0  0  0  0  0  0  0
  124.4549  104.4387  107.3363 C   0  0  0  0  0  0  0  0  0  0  0  0
  125.7700  105.7246  108.9188 C   0  0  0  0  0  0  0  0  0  0  0  0
  123.8057  105.7917  107.6194 C   0  0  1  0  0  0  0  0  0  0  0  0
  123.8641  108.7085  107.6892 C   0  0  0  0  0  0  0  0  0  0  0  0
  116.0201  106.4530  105.1540 C   0  0  0  0  0  0  0  0  0  0  0  0
  122.6736  105.6666  108.6438 C   0  0  0  0  0  0  0  0  0  0  0  0
  124.6786  107.8755  108.6194 C   0  0  0  0  0  0  0  0  0  0  0  0
  124.9717  106.5767  108.0396 N   0  0  1  0  0  0  0  0  0  0  0  0
  120.2866  102.8213  106.6377 N   0  0  0  0  0  0  0  0  0  0  0  0
  121.6640  104.7911  108.1476 N   0  0  0  0  0  0  0  0  0  0  0  0
  117.8274  107.7931  103.8076 O   0  0  0  0  0  0  0  0  0  0  0  0
  117.3917  105.3845  103.2121 O   0  0  0  0  0  0  0  0  0  0  0  0
  117.5327  106.4278  104.2187 S   0  0  0  0  0  0  0  0  0  0  0  0
  120.9231  107.2716  107.6163 H   0  0  0  0  0  0  0  0  0  0  0  0
  119.2112  107.9589  105.9876 H   0  0  0  0  0  0  0  0  0  0  0  0
  118.5069  103.8365  104.9690 H   0  0  0  0  0  0  0  0  0  0  0  0
  125.2850  103.6242  109.1546 H   0  0  0  0  0  0  0  0  0  0  0  0
  126.5025  103.9391  107.9085 H   0  0  0  0  0  0  0  0  0  0  0  0
  124.8436  104.3928  106.3145 H   0  0  0  0  0  0  0  0  0  0  0  0
  123.7536  103.6068  107.4650 H   0  0  0  0  0  0  0  0  0  0  0  0
  125.4397  105.7850  109.9652 H   0  0  0  0  0  0  0  0  0  0  0  0
  126.8386  105.9912  108.8843 H   0  0  0  0  0  0  0  0  0  0  0  0
  123.3987  106.1781  106.6697 H   0  0  0  0  0  0  0  0  0  0  0  0
  124.3985  108.8796  106.7483 H   0  0  0  0  0  0  0  0  0  0  0  0
  122.9025  108.2290  107.4762 H   0  0  0  0  0  0  0  0  0  0  0  0
  123.6620  109.6850  108.1453 H   0  0  0  0  0  0  0  0  0  0  0  0
  115.2089  106.7531  104.4888 H   0  0  0  0  0  0  0  0  0  0  0  0
  115.8416  105.4511  105.5471 H   0  0  0  0  0  0  0  0  0  0  0  0
  116.1313  107.1697  105.9691 H   0  0  0  0  0  0  0  0  0  0  0  0
  122.2438  106.6463  108.8132 H   0  0  0  0  0  0  0  0  0  0  0  0
  123.0721  105.2636  109.5665 H   0  0  0  0  0  0  0  0  0  0  0  0
  124.1392  107.7086  109.5567 H   0  0  0  0  0  0  0  0  0  0  0  0
  125.6318  108.3633  108.8435 H   0  0  0  0  0  0  0  0  0  0  0  0
  119.7504  102.1530  106.1245 H   0  0  0  0  0  0  0  0  0  0  0  0
  120.9473  102.5393  107.3316 H   0  0  0  0  0  0  0  0  0  0  0  0
  121.6375  103.8250  108.4821 H   0  0  0  0  0  0  0  0  0  0  0  0
  1  2  2  0  0  0  0
  1  4  1  0  0  0  0
  2  6  1  0  0  0  0
  3  5  1  0  0  0  0
  3  6  2  0  0  0  0
  4  5  2  0  0  0  0
  4 17  1  0  0  0  0
  5 16  1  0  0  0  0
  6 20  1  0  0  0  0
  7  8  1  0  0  0  0
  7  9  1  0  0  0  0
  8 10  1  0  0  0  0
  9 15  1  0  0  0  0
 10 13  1  0  0  0  0
 10 15  1  0  0  0  0
 11 14  1  0  0  0  0
 12 20  1  0  0  0  0
 13 17  1  0  0  0  0
 14 15  1  0  0  0  0
 18 20  2  0  0  0  0
 19 20  2  0  0  0  0
  1 21  1  0  0  0  0
  2 22  1  0  0  0  0
  3 23  1  0  0  0  0
  7 24  1  0  0  0  0
  7 25  1  0  0  0  0
  8 26  1  0  0  0  0
  8 27  1  0  0  0  0
  9 28  1  0  0  0  0
  9 29  1  0  0  0  0
 10 30  1  0  0  0  0
 11 31  1  0  0  0  0
 11 32  1  0  0  0  0
 11 33  1  0  0  0  0
 12 34  1  0  0  0  0
 12 35  1  0  0  0  0
 12 36  1  0  0  0  0
 13 37  1  0  0  0  0
 13 38  1  0  0  0  0
 14 39  1  0  0  0  0
 14 40  1  0  0  0  0
 16 41  1  0  0  0  0
 16 42  1  0  0  0  0
 17 43  1  0  0  0  0
M  END
> <FRED Chemgauss4 score>
-10.750154

$$$$
C87427527	P136769775
  -OEChem-05122015313D

 36 37  0     0  0  0  0  0  0999 V2000
  124.9504  103.8742  107.3310 C   0  0  0  0  0  0  0  0  0  0  0  0
  124.0679  104.8038  106.7809 C   0  0  0  0  0  0  0  0  0  0  0  0
  125.8903  104.2805  108.2783 C   0  0  0  0  0  0  0  0  0  0  0  0
  125.0651  106.5460  108.1253 C   0  0  0  0  0  0  0  0  0  0  0  0
  124.1252  106.1397  107.1780 C   0  0  0  0  0  0  0  0  0  0  0  0
  125.9476  105.6164  108.6754 C   0  0  0  0  0  0  0  0  0  0  0  0
  119.8417  105.5648  105.9533 C   0  0  0  0  0  0  0  0  0  0  0  0
  118.4723  105.7007  105.8423 C   0  0  0  0  0  0  0  0  0  0  0  0
  120.9445  106.5193  105.7580 C   0  0  0  0  0  0  0  0  0  0  0  0
  120.8920  108.1267  108.6612 C   0  0  0  0  0  0  0  0  0  0  0  0
  117.7423  106.9298  105.4721 C   0  0  0  0  0  0  0  0  0  0  0  0
  123.1820  107.1333  106.5891 C   0  0  0  0  0  0  0  0  0  0  0  0
  121.3871  106.7611  108.2440 C   0  0  0  0  0  0  0  0  0  0  0  0
  117.7357  104.5564  106.1050 N   0  0  0  0  0  0  0  0  0  0  0  0
  118.5187  103.5363  106.4180 N   0  0  0  0  0  0  0  0  0  0  0  0
  126.8977  106.0271  109.6335 N   0  0  0  0  0  0  0  0  0  0  0  0
  121.0939  108.3696  110.0029 N   0  0  0  0  0  0  0  0  0  0  0  0
  121.8036  106.7940  106.8368 N   0  0  0  0  0  0  0  0  0  0  0  0
  121.0476  107.0096  104.6341 O   0  0  0  0  0  0  0  0  0  0  0  0
  120.4068  108.9461  107.8859 O   0  0  0  0  0  0  0  0  0  0  0  0
  120.1452  103.9364  106.4011 S   0  0  0  0  0  0  0  0  0  0  0  0
  124.9057  102.8338  107.0218 H   0  0  0  0  0  0  0  0  0  0  0  0
  123.3387  104.4782  106.0434 H   0  0  0  0  0  0  0  0  0  0  0  0
  126.5731  103.5478  108.7008 H   0  0  0  0  0  0  0  0  0  0  0  0
  125.1083  107.5880  108.4340 H   0  0  0  0  0  0  0  0  0  0  0  0
  117.6002  106.9933  104.3811 H   0  0  0  0  0  0  0  0  0  0  0  0
  116.7462  106.9766  105.9437 H   0  0  0  0  0  0  0  0  0  0  0  0
  118.2758  107.8401  105.7948 H   0  0  0  0  0  0  0  0  0  0  0  0
  123.3541  108.1368  107.0032 H   0  0  0  0  0  0  0  0  0  0  0  0
  123.3088  107.2136  105.5007 H   0  0  0  0  0  0  0  0  0  0  0  0
  120.5977  106.0115  108.3462 H   0  0  0  0  0  0  0  0  0  0  0  0
  122.2486  106.4817  108.8565 H   0  0  0  0  0  0  0  0  0  0  0  0
  127.4926  105.3429  110.0551 H   0  0  0  0  0  0  0  0  0  0  0  0
  126.8973  106.9776  109.9442 H   0  0  0  0  0  0  0  0  0  0  0  0
  121.5316  107.6746  110.5985 H   0  0  0  0  0  0  0  0  0  0  0  0
  120.8191  109.2410  110.4451 H   0  0  0  0  0  0  0  0  0  0  0  0
  1  2  2  0  0  0  0
  1  3  1  0  0  0  0
  2  5  1  0  0  0  0
  3  6  2  0  0  0  0
  4  5  2  0  0  0  0
  4  6  1  0  0  0  0
  5 12  1  0  0  0  0
  6 16  1  0  0  0  0
  7  8  2  0  0  0  0
  7  9  1  0  0  0  0
  7 21  1  0  0  0  0
  8 11  1  0  0  0  0
  8 14  1  0  0  0  0
  9 18  1  0  0  0  0
  9 19  2  0  0  0  0
 10 13  1  0  0  0  0
 10 17  1  0  0  0  0
 10 20  2  0  0  0  0
 12 18  1  0  0  0  0
 13 18  1  0  0  0  0
 14 15  2  0  0  0  0
 15 21  1  0  0  0  0
  1 22  1  0  0  0  0
  2 23  1  0  0  0  0
  3 24  1  0  0  0  0
  4 25  1  0  0  0  0
 11 26  1  0  0  0  0
 11 27  1  0  0  0  0
 11 28  1  0  0  0  0
 12 29  1  0  0  0  0
 12 30  1  0  0  0  0
 13 31  1  0  0  0  0
 13 32  1  0  0  0  0
 16 33  1  0  0  0  0
 16 34  1  0  0  0  0
 17 35  1  0  0  0  0
 17 36  1  0  0  0  0
M  END
> <FRED Chemgauss4 score>
-10.732253

$$$$
C35354185	P52456381
  -OEChem-05122015313D

 34 35  0     0  0  0  0  0  0999 V2000
  126.3869  104.5086  108.5763 C   0  0  0  0  0  0  0  0  0  0  0  0
  125.5017  103.6910  107.8738 C   0  0  0  0  0  0  0  0  0  0  0  0
  126.2627  105.8961  108.5029 C   0  0  0  0  0  0  0  0  0  0  0  0
  120.4429  104.4834  106.5829 C   0  0  0  0  0  0  0  0  0  0  0  0
  124.4923  104.2608  107.0978 C   0  0  0  0  0  0  0  0  0  0  0  0
  119.2156  103.9038  106.2614 C   0  0  0  0  0  0  0  0  0  0  0  0
  119.3766  106.6444  106.7575 C   0  0  0  0  0  0  0  0  0  0  0  0
  118.1493  106.0647  106.4360 C   0  0  0  0  0  0  0  0  0  0  0  0
  120.5234  105.8537  106.8309 C   0  0  0  0  0  0  0  0  0  0  0  0
  125.2533  106.4659  107.7270 C   0  0  0  0  0  0  0  0  0  0  0  0
  124.3681  105.6483  107.0244 C   0  0  0  0  0  0  0  0  0  0  0  0
  118.0688  104.6944  106.1880 C   0  0  0  0  0  0  0  0  0  0  0  0
  116.9475  106.9508  106.3688 C   0  0  0  0  0  0  0  0  0  0  0  0
  126.1588  108.6914  108.1134 N   0  0  0  0  0  0  0  0  0  0  0  0
  125.1483  107.8731  107.6688 N   0  0  0  0  0  0  0  0  0  0  0  0
  121.7799  106.4465  107.1606 N   0  0  0  0  0  0  0  0  0  0  0  0
  122.7405  105.3341  105.0299 O   0  0  0  0  0  0  0  0  0  0  0  0
  123.4889  107.6577  105.6129 O   0  0  0  0  0  0  0  0  0  0  0  0
  123.0739  106.3319  106.0292 S   0  0  0  0  0  0  0  0  0  0  0  0
  116.4234  103.8607  105.7474 Br  0  0  0  0  0  0  0  0  0  0  0  0
  127.1724  104.0649  109.1810 H   0  0  0  0  0  0  0  0  0  0  0  0
  125.5989  102.6108  107.9310 H   0  0  0  0  0  0  0  0  0  0  0  0
  126.9583  106.5227  109.0554 H   0  0  0  0  0  0  0  0  0  0  0  0
  121.3305  103.8580  106.6380 H   0  0  0  0  0  0  0  0  0  0  0  0
  123.8086  103.6129  106.5557 H   0  0  0  0  0  0  0  0  0  0  0  0
  119.1724  102.8343  106.0718 H   0  0  0  0  0  0  0  0  0  0  0  0
  119.4397  107.7127  106.9510 H   0  0  0  0  0  0  0  0  0  0  0  0
  116.8241  107.3453  105.3540 H   0  0  0  0  0  0  0  0  0  0  0  0
  116.0378  106.4047  106.6457 H   0  0  0  0  0  0  0  0  0  0  0  0
  117.0389  107.7940  107.0640 H   0  0  0  0  0  0  0  0  0  0  0  0
  125.7414  109.4485  108.6526 H   0  0  0  0  0  0  0  0  0  0  0  0
  126.5989  109.1307  107.3059 H   0  0  0  0  0  0  0  0  0  0  0  0
  124.4127  108.2694  107.1030 H   0  0  0  0  0  0  0  0  0  0  0  0
  121.7243  107.3364  107.6820 H   0  0  0  0  0  0  0  0  0  0  0  0
  1  2  1  0  0  0  0
  1  3  2  0  0  0  0
  2  5  2  0  0  0  0
  3 10  1  0  0  0  0
  4  6  2  0  0  0  0
  4  9  1  0  0  0  0
  5 11  1  0  0  0  0
  6 12  1  0  0  0  0
  7  8  1  0  0  0  0
  7  9  2  0  0  0  0
  8 12  2  0  0  0  0
  8 13  1  0  0  0  0
  9 16  1  0  0  0  0
 10 11  2  0  0  0  0
 10 15  1  0  0  0  0
 11 19  1  0  0  0  0
 12 20  1  0  0  0  0
 14 15  1  0  0  0  0
 16 19  1  0  0  0  0
 17 19  2  0  0  0  0
 18 19  2  0  0  0  0
  1 21  1  0  0  0  0
  2 22  1  0  0  0  0
  3 23  1  0  0  0  0
  4 24  1  0  0  0  0
  5 25  1  0  0  0  0
  6 26  1  0  0  0  0
  7 27  1  0  0  0  0
 13 28  1  0  0  0  0
 13 29  1  0  0  0  0
 13 30  1  0  0  0  0
 14 31  1  0  0  0  0
 14 32  1  0  0  0  0
 15 33  1  0  0  0  0
 16 34  1  0  0  0  0
M  END
> <FRED Chemgauss4 score>
-10.726971

$$$$
C63405356	P97370607
  -OEChem-05122015313D

 40 42  0     1  0  0  0  0  0999 V2000
  115.1484  106.8636  106.6944 C   0  0  0  0  0  0  0  0  0  0  0  0
  115.8055  106.5901  105.4601 C   0  0  0  0  0  0  0  0  0  0  0  0
  115.6796  107.9638  107.3307 C   0  0  0  0  0  0  0  0  0  0  0  0
  116.8139  107.4921  105.1999 C   0  0  0  0  0  0  0  0  0  0  0  0
  123.5683  104.8866  106.9766 C   0  0  0  0  0  0  0  0  0  0  0  0
  125.6460  105.9877  107.4650 C   0  0  0  0  0  0  0  0  0  0  0  0
  126.2547  108.0577  107.6153 C   0  0  0  0  0  0  0  0  0  0  0  0
  119.5337  106.1863  105.1574 C   0  0  0  0  0  0  0  0  0  0  0  0
  122.9333  105.0631  108.3352 C   0  0  0  0  0  0  0  0  0  0  0  0
  121.4358  105.0121  106.2359 C   0  0  2  0  0  0  0  0  0  0  0  0
  125.0635  107.3884  105.4585 C   0  0  0  0  0  0  0  0  0  0  0  0
  117.7362  107.5497  104.0098 C   0  0  0  0  0  0  0  0  0  0  0  0
  125.0606  104.7452  106.9003 C   0  0  0  0  0  0  0  0  0  0  0  0
  119.2035  107.4764  104.4281 C   0  0  0  0  0  0  0  0  0  0  0  0
  122.8561  104.8587  105.8924 N   0  0  0  0  0  0  0  0  0  0  0  0
  126.2051  106.0410  108.6394 N   0  0  0  0  0  0  0  0  0  0  0  0
  126.5991  107.3386  108.7594 N   0  0  0  0  0  0  0  0  0  0  0  0
  125.6234  107.1579  106.7839 N   0  0  0  0  0  0  0  0  0  0  0  0
  120.8693  106.1369  105.5294 N   0  0  0  0  0  0  0  0  0  0  0  0
  118.7062  105.3065  105.3793 O   0  0  0  0  0  0  0  0  0  0  0  0
  126.5882  109.6696  107.3925 S   0  0  0  0  0  0  0  0  0  0  0  0
  116.9652  108.6622  106.4410 S   0  0  0  0  0  0  0  0  0  0  0  0
  121.1752  105.2022  108.0111 S   0  0  0  0  0  0  0  0  0  0  0  0
  114.3274  106.2838  107.0954 H   0  0  0  0  0  0  0  0  0  0  0  0
  115.5468  105.7726  104.7990 H   0  0  0  0  0  0  0  0  0  0  0  0
  115.3745  108.3907  108.2757 H   0  0  0  0  0  0  0  0  0  0  0  0
  123.1487  104.1942  108.9619 H   0  0  0  0  0  0  0  0  0  0  0  0
  123.3167  105.9695  108.8101 H   0  0  0  0  0  0  0  0  0  0  0  0
  120.8924  104.1238  105.8990 H   0  0  0  0  0  0  0  0  0  0  0  0
  124.0122  107.6765  105.5397 H   0  0  0  0  0  0  0  0  0  0  0  0
  125.1337  106.4793  104.8552 H   0  0  0  0  0  0  0  0  0  0  0  0
  125.6095  108.1885  104.9515 H   0  0  0  0  0  0  0  0  0  0  0  0
  117.4961  106.7297  103.3206 H   0  0  0  0  0  0  0  0  0  0  0  0
  117.5477  108.4720  103.4450 H   0  0  0  0  0  0  0  0  0  0  0  0
  125.3667  104.6266  105.8637 H   0  0  0  0  0  0  0  0  0  0  0  0
  125.3811  103.8911  107.4928 H   0  0  0  0  0  0  0  0  0  0  0  0
  119.4523  108.3160  105.0892 H   0  0  0  0  0  0  0  0  0  0  0  0
  119.8535  107.5472  103.5469 H   0  0  0  0  0  0  0  0  0  0  0  0
  127.0764  107.6610  109.5915 H   0  0  0  0  0  0  0  0  0  0  0  0
  121.4893  106.8985  105.2694 H   0  0  0  0  0  0  0  0  0  0  0  0
  1  2  1  0  0  0  0
  1  3  2  0  0  0  0
  2  4  2  0  0  0  0
  3 22  1  0  0  0  0
  4 12  1  0  0  0  0
  4 22  1  0  0  0  0
  5  9  1  0  0  0  0
  5 13  1  0  0  0  0
  5 15  2  0  0  0  0
  6 13  1  0  0  0  0
  6 16  2  0  0  0  0
  6 18  1  0  0  0  0
  7 17  1  0  0  0  0
  7 18  1  0  0  0  0
  7 21  2  0  0  0  0
  8 14  1  0  0  0  0
  8 19  1  0  0  0  0
  8 20  2  0  0  0  0
  9 23  1  0  0  0  0
 10 15  1  0  0  0  0
 10 19  1  0  0  0  0
 10 23  1  0  0  0  0
 11 18  1  0  0  0  0
 12 14  1  0  0  0  0
 16 17  1  0  0  0  0
  1 24  1  0  0  0  0
  2 25  1  0  0  0  0
  3 26  1  0  0  0  0
  9 27  1  0  0  0  0
  9 28  1  0  0  0  0
 10 29  1  0  0  0  0
 11 30  1  0  0  0  0
 11 31  1  0  0  0  0
 11 32  1  0  0  0  0
 12 33  1  0  0  0  0
 12 34  1  0  0  0  0
 13 35  1  0  0  0  0
 13 36  1  0  0  0  0
 14 37  1  0  0  0  0
 14 38  1  0  0  0  0
 17 39  1  0  0  0  0
 19 40  1  0  0  0  0
M  END
> <FRED Chemgauss4 score>
-10.725606

$$$$
C97753120	P155083024
  -OEChem-05122015313D

 40 42  0     1  0  0  0  0  0999 V2000
  116.5410  106.9062  103.7351 C   0  0  0  0  0  0  0  0  0  0  0  0
  116.4515  108.2149  104.2132 C   0  0  0  0  0  0  0  0  0  0  0  0
  117.2941  105.9407  104.4150 C   0  0  0  0  0  0  0  0  0  0  0  0
  122.6232  104.2885  106.6598 C   0  0  0  0  0  0  0  0  0  0  0  0
  117.1093  108.6046  105.3844 C   0  0  0  0  0  0  0  0  0  0  0  0
  123.7677  105.0478  106.8766 C   0  0  0  0  0  0  0  0  0  0  0  0
  121.8419  105.9825  105.1845 C   0  0  0  0  0  0  0  0  0  0  0  0
  117.9605  106.3169  105.5932 C   0  0  0  0  0  0  0  0  0  0  0  0
  121.6372  104.7577  105.7991 C   0  0  0  0  0  0  0  0  0  0  0  0
  117.8545  107.6268  106.0471 C   0  0  0  0  0  0  0  0  0  0  0  0
  123.8772  106.2595  106.2136 C   0  0  0  0  0  0  0  0  0  0  0  0
  118.7901  105.6835  106.5434 C   0  0  0  0  0  0  0  0  0  0  0  0
  125.0922  107.1002  106.4224 C   0  0  0  0  0  0  0  0  0  0  0  0
  118.8073  108.8227  108.0432 C   0  0  0  0  0  0  0  0  0  0  0  0
  119.2356  104.2787  106.5563 C   0  0  0  0  0  0  0  0  0  0  0  0
  120.3750  103.9525  105.5413 C   0  0  1  0  0  0  0  0  0  0  0  0
  122.9404  106.7483  105.3703 N   0  0  0  0  0  0  0  0  0  0  0  0
  119.1826  106.5058  107.5189 N   0  0  0  0  0  0  0  0  0  0  0  0
  118.6021  107.6727  107.1929 N   0  0  0  0  0  0  0  0  0  0  0  0
  120.9352  103.6692  103.2892 N   0  0  0  0  0  0  0  0  0  0  0  0
  119.9095  104.1350  104.1598 N   0  0  0  0  0  0  0  0  0  0  0  0
  116.0180  106.6314  102.8228 H   0  0  0  0  0  0  0  0  0  0  0  0
  115.8605  108.9454  103.6661 H   0  0  0  0  0  0  0  0  0  0  0  0
  117.3552  104.9265  104.0324 H   0  0  0  0  0  0  0  0  0  0  0  0
  122.5081  103.3335  107.1649 H   0  0  0  0  0  0  0  0  0  0  0  0
  117.0386  109.6215  105.7542 H   0  0  0  0  0  0  0  0  0  0  0  0
  124.5443  104.6931  107.5456 H   0  0  0  0  0  0  0  0  0  0  0  0
  121.1072  106.3998  104.5027 H   0  0  0  0  0  0  0  0  0  0  0  0
  125.8649  106.8423  105.6882 H   0  0  0  0  0  0  0  0  0  0  0  0
  124.8590  108.1679  106.3226 H   0  0  0  0  0  0  0  0  0  0  0  0
  125.5061  106.9577  107.4289 H   0  0  0  0  0  0  0  0  0  0  0  0
  118.0174  108.8286  108.7989 H   0  0  0  0  0  0  0  0  0  0  0  0
  119.7901  108.7538  108.5179 H   0  0  0  0  0  0  0  0  0  0  0  0
  118.7652  109.7322  107.4374 H   0  0  0  0  0  0  0  0  0  0  0  0
  118.3732  103.6151  106.3317 H   0  0  0  0  0  0  0  0  0  0  0  0
  119.5518  103.9618  107.5735 H   0  0  0  0  0  0  0  0  0  0  0  0
  120.6187  102.8872  105.6435 H   0  0  0  0  0  0  0  0  0  0  0  0
  121.2728  104.4402  102.7135 H   0  0  0  0  0  0  0  0  0  0  0  0
  121.7295  103.3779  103.8576 H   0  0  0  0  0  0  0  0  0  0  0  0
  119.0674  103.5850  104.0221 H   0  0  0  0  0  0  0  0  0  0  0  0
  1  2  1  0  0  0  0
  1  3  2  0  0  0  0
  2  5  2  0  0  0  0
  3  8  1  0  0  0  0
  4  6  2  0  0  0  0
  4  9  1  0  0  0  0
  5 10  1  0  0  0  0
  6 11  1  0  0  0  0
  7  9  2  0  0  0  0
  7 17  1  0  0  0  0
  8 10  2  0  0  0  0
  8 12  1  0  0  0  0
  9 16  1  0  0  0  0
 10 19  1  0  0  0  0
 11 13  1  0  0  0  0
 11 17  2  0  0  0  0
 12 15  1  0  0  0  0
 12 18  2  0  0  0  0
 14 19  1  0  0  0  0
 15 16  1  0  0  0  0
 16 21  1  0  0  0  0
 18 19  1  0  0  0  0
 20 21  1  0  0  0  0
  1 22  1  0  0  0  0
  2 23  1  0  0  0  0
  3 24  1  0  0  0  0
  4 25  1  0  0  0  0
  5 26  1  0  0  0  0
  6 27  1  0  0  0  0
  7 28  1  0  0  0  0
 13 29  1  0  0  0  0
 13 30  1  0  0  0  0
 13 31  1  0  0  0  0
 14 32  1  0  0  0  0
 14 33  1  0  0  0  0
 14 34  1  0  0  0  0
 15 35  1  0  0  0  0
 15 36  1  0  0  0  0
 16 37  1  0  0  0  0
 20 38  1  0  0  0  0
 20 39  1  0  0  0  0
 21 40  1  0  0  0  0
M  END
> <FRED Chemgauss4 score>
-10.722471

$$$$
C00098547	P08554384
  -OEChem-05122015313D

 33 35  0     0  0  0  0  0  0999 V2000
  125.7922  104.2678  108.5720 C   0  0  0  0  0  0  0  0  0  0  0  0
  126.4153  105.4902  108.8228 C   0  0  0  0  0  0  0  0  0  0  0  0
  124.4964  104.2382  108.0564 C   0  0  0  0  0  0  0  0  0  0  0  0
  117.9202  106.0937  104.8105 C   0  0  0  0  0  0  0  0  0  0  0  0
  117.5391  104.0331  106.0128 C   0  0  0  0  0  0  0  0  0  0  0  0
  117.0006  105.6973  103.8395 C   0  0  0  0  0  0  0  0  0  0  0  0
  116.6194  103.6366  105.0418 C   0  0  0  0  0  0  0  0  0  0  0  0
  125.7426  106.6832  108.5582 C   0  0  0  0  0  0  0  0  0  0  0  0
  123.8237  105.4311  107.7918 C   0  0  0  0  0  0  0  0  0  0  0  0
  118.1895  105.2616  105.8972 C   0  0  0  0  0  0  0  0  0  0  0  0
  116.3502  104.4688  103.9552 C   0  0  0  0  0  0  0  0  0  0  0  0
  124.4468  106.6536  108.0427 C   0  0  0  0  0  0  0  0  0  0  0  0
  122.4716  105.3444  107.2536 C   0  0  0  0  0  0  0  0  0  0  0  0
  120.4468  105.4326  106.8407 C   0  0  0  0  0  0  0  0  0  0  0  0
  121.0787  104.7086  105.7180 C   0  0  0  0  0  0  0  0  0  0  0  0
  119.1353  105.6691  106.8959 C   0  0  0  0  0  0  0  0  0  0  0  0
  115.3654  104.0466  102.9179 C   0  0  0  0  0  0  0  0  0  0  0  0
  121.3845  105.7995  107.7642 N   0  0  0  0  0  0  0  0  0  0  0  0
  120.5692  104.2354  104.7231 O   0  0  0  0  0  0  0  0  0  0  0  0
  122.3970  104.6974  106.0703 O   0  0  0  0  0  0  0  0  0  0  0  0
  123.5755  108.3049  107.7040 Br  0  0  0  0  0  0  0  0  0  0  0  0
  126.3161  103.3391  108.7780 H   0  0  0  0  0  0  0  0  0  0  0  0
  127.4244  105.5130  109.2241 H   0  0  0  0  0  0  0  0  0  0  0  0
  124.0228  103.2787  107.8657 H   0  0  0  0  0  0  0  0  0  0  0  0
  118.4194  107.0542  104.7066 H   0  0  0  0  0  0  0  0  0  0  0  0
  117.7381  103.3737  106.8543 H   0  0  0  0  0  0  0  0  0  0  0  0
  116.7966  106.3522  102.9966 H   0  0  0  0  0  0  0  0  0  0  0  0
  116.1172  102.6777  105.1396 H   0  0  0  0  0  0  0  0  0  0  0  0
  126.2449  107.6260  108.7602 H   0  0  0  0  0  0  0  0  0  0  0  0
  118.7593  106.2358  107.7482 H   0  0  0  0  0  0  0  0  0  0  0  0
  115.8681  103.4886  102.1185 H   0  0  0  0  0  0  0  0  0  0  0  0
  114.5823  103.4088  103.3480 H   0  0  0  0  0  0  0  0  0  0  0  0
  114.8598  104.9133  102.4723 H   0  0  0  0  0  0  0  0  0  0  0  0
  1  2  1  0  0  0  0
  1  3  2  0  0  0  0
  2  8  2  0  0  0  0
  3  9  1  0  0  0  0
  4  6  2  0  0  0  0
  4 10  1  0  0  0  0
  5  7  1  0  0  0  0
  5 10  2  0  0  0  0
  6 11  1  0  0  0  0
  7 11  2  0  0  0  0
  8 12  1  0  0  0  0
  9 12  2  0  0  0  0
  9 13  1  0  0  0  0
 10 16  1  0  0  0  0
 11 17  1  0  0  0  0
 12 21  1  0  0  0  0
 13 18  2  0  0  0  0
 13 20  1  0  0  0  0
 14 15  1  0  0  0  0
 14 16  2  0  0  0  0
 14 18  1  0  0  0  0
 15 19  2  0  0  0  0
 15 20  1  0  0  0  0
  1 22  1  0  0  0  0
  2 23  1  0  0  0  0
  3 24  1  0  0  0  0
  4 25  1  0  0  0  0
  5 26  1  0  0  0  0
  6 27  1  0  0  0  0
  7 28  1  0  0  0  0
  8 29  1  0  0  0  0
 16 30  1  0  0  0  0
 17 31  1  0  0  0  0
 17 32  1  0  0  0  0
 17 33  1  0  0  0  0
M  END
> <FRED Chemgauss4 score>
-10.716929

$$$$
C91548579	P143269050
  -OEChem-05122015313D

 55 57  0     1  0  0  0  0  0999 V2000
  125.4596  105.0068  107.5587 C   0  0  0  0  0  0  0  0  0  0  0  0
  124.9214  106.2098  107.0638 C   0  0  0  0  0  0  0  0  0  0  0  0
  126.2511  105.3928  108.6128 C   0  0  0  0  0  0  0  0  0  0  0  0
  121.5876  106.3120  105.0791 C   0  0  0  0  0  0  0  0  0  0  0  0
  118.4654  104.9706  103.9708 C   0  0  0  0  0  0  0  0  0  0  0  0
  118.9125  104.2802  106.3669 C   0  0  0  0  0  0  0  0  0  0  0  0
  115.7146  104.0691  105.0145 C   0  0  0  0  0  0  0  0  0  0  0  0
  119.2658  106.2485  104.2261 C   0  0  0  0  0  0  0  0  0  0  0  0
  119.6547  105.5979  106.5701 C   0  0  0  0  0  0  0  0  0  0  0  0
  116.9323  103.1398  105.1879 C   0  0  2  0  0  0  0  0  0  0  0  0
  116.5189  105.1611  105.7604 C   0  0  1  0  0  0  0  0  0  0  0  0
  117.8341  104.4315  105.2755 C   0  0  0  0  0  0  0  0  0  0  0  0
  125.2285  103.6388  107.0631 C   0  0  0  0  0  0  0  0  0  0  0  0
  127.0875  104.6278  109.5530 C   0  0  0  0  0  0  0  0  0  0  0  0
  123.9761  106.3918  105.9012 C   0  0  0  0  0  0  0  0  0  0  0  0
  122.5206  106.0832  106.2412 C   0  0  0  0  0  0  0  0  0  0  0  0
  115.3528  107.4866  107.2835 C   0  0  0  0  0  0  0  0  0  0  0  0
  115.1070  107.0374  105.8566 C   0  0  0  0  0  0  0  0  0  0  0  0
  125.3358  107.2799  107.7474 N   0  0  0  0  0  0  0  0  0  0  0  0
  126.1428  106.7506  108.6827 N   0  0  0  0  0  0  0  0  0  0  0  0
  120.2362  106.0538  105.3031 N   0  0  0  0  0  0  0  0  0  0  0  0
  114.0859  108.0037  107.8596 N   0  3  0  0  0  0  0  0  0  0  0  0
  117.1613  102.3156  104.0769 O   0  5  0  0  0  0  0  0  0  0  0  0
  122.0484  106.7066  104.0048 O   0  0  0  0  0  0  0  0  0  0  0  0
  116.3027  106.5100  105.3132 O   0  0  0  0  0  0  0  0  0  0  0  0
  117.7016  105.1658  103.2094 H   0  0  0  0  0  0  0  0  0  0  0  0
  119.1488  104.2170  103.5584 H   0  0  0  0  0  0  0  0  0  0  0  0
  119.6262  103.5008  106.0702 H   0  0  0  0  0  0  0  0  0  0  0  0
  118.4680  103.9641  107.3181 H   0  0  0  0  0  0  0  0  0  0  0  0
  115.4524  104.3445  103.9849 H   0  0  0  0  0  0  0  0  0  0  0  0
  114.8032  103.7409  105.5245 H   0  0  0  0  0  0  0  0  0  0  0  0
  119.7693  106.5502  103.3018 H   0  0  0  0  0  0  0  0  0  0  0  0
  118.6192  107.0801  104.5205 H   0  0  0  0  0  0  0  0  0  0  0  0
  118.9707  106.3825  106.9136 H   0  0  0  0  0  0  0  0  0  0  0  0
  120.4129  105.4701  107.3445 H   0  0  0  0  0  0  0  0  0  0  0  0
  116.8914  102.5472  106.1100 H   0  0  0  0  0  0  0  0  0  0  0  0
  116.3697  105.1024  106.8459 H   0  0  0  0  0  0  0  0  0  0  0  0
  125.9665  103.3631  106.2906 H   0  0  0  0  0  0  0  0  0  0  0  0
  125.2942  102.8870  107.8695 H   0  0  0  0  0  0  0  0  0  0  0  0
  124.2234  103.5203  106.6206 H   0  0  0  0  0  0  0  0  0  0  0  0
  128.1170  104.5139  109.1722 H   0  0  0  0  0  0  0  0  0  0  0  0
  127.1514  105.1123  110.5437 H   0  0  0  0  0  0  0  0  0  0  0  0
  126.6876  103.6147  109.7378 H   0  0  0  0  0  0  0  0  0  0  0  0
  124.3080  105.7849  105.0487 H   0  0  0  0  0  0  0  0  0  0  0  0
  124.0428  107.4347  105.5647 H   0  0  0  0  0  0  0  0  0  0  0  0
  122.4044  105.0503  106.5740 H   0  0  0  0  0  0  0  0  0  0  0  0
  122.1902  106.7321  107.0542 H   0  0  0  0  0  0  0  0  0  0  0  0
  116.0740  108.3068  107.3389 H   0  0  0  0  0  0  0  0  0  0  0  0
  115.6709  106.6565  107.9197 H   0  0  0  0  0  0  0  0  0  0  0  0
  114.3512  106.2459  105.8412 H   0  0  0  0  0  0  0  0  0  0  0  0
  114.7637  107.8639  105.2259 H   0  0  0  0  0  0  0  0  0  0  0  0
  126.5913  107.3783  109.3385 H   0  0  0  0  0  0  0  0  0  0  0  0
  113.5301  108.4869  107.1465 H   0  0  0  0  0  0  0  0  0  0  0  0
  114.2738  108.6672  108.6184 H   0  0  0  0  0  0  0  0  0  0  0  0
  113.5183  107.2393  108.2400 H   0  0  0  0  0  0  0  0  0  0  0  0
  1  2  1  0  0  0  0
  1  3  2  0  0  0  0
  1 13  1  0  0  0  0
  2 15  1  0  0  0  0
  2 19  2  0  0  0  0
  3 14  1  0  0  0  0
  3 20  1  0  0  0  0
  4 16  1  0  0  0  0
  4 21  1  0  0  0  0
  4 24  2  0  0  0  0
  5  8  1  0  0  0  0
  5 12  1  0  0  0  0
  6  9  1  0  0  0  0
  6 12  1  0  0  0  0
  7 10  1  0  0  0  0
  7 11  1  0  0  0  0
  8 21  1  0  0  0  0
  9 21  1  0  0  0  0
 10 12  1  0  0  0  0
 10 23  1  0  0  0  0
 11 12  1  0  0  0  0
 11 25  1  0  0  0  0
 15 16  1  0  0  0  0
 17 18  1  0  0  0  0
 17 22  1  0  0  0  0
 18 25  1  0  0  0  0
 19 20  1  0  0  0  0
  5 26  1  0  0  0  0
  5 27  1  0  0  0  0
  6 28  1  0  0  0  0
  6 29  1  0  0  0  0
  7 30  1  0  0  0  0
  7 31  1  0  0  0  0
  8 32  1  0  0  0  0
  8 33  1  0  0  0  0
  9 34  1  0  0  0  0
  9 35  1  0  0  0  0
 10 36  1  0  0  0  0
 11 37  1  0  0  0  0
 13 38  1  0  0  0  0
 13 39  1  0  0  0  0
 13 40  1  0  0  0  0
 14 41  1  0  0  0  0
 14 42  1  0  0  0  0
 14 43  1  0  0  0  0
 15 44  1  0  0  0  0
 15 45  1  0  0  0  0
 16 46  1  0  0  0  0
 16 47  1  0  0  0  0
 17 48  1  0  0  0  0
 17 49  1  0  0  0  0
 18 50  1  0  0  0  0
 18 51  1  0  0  0  0
 20 52  1  0  0  0  0
 22 53  1  0  0  0  0
 22 54  1  0  0  0  0
 22 55  1  0  0  0  0
M  CHG  2  22   1  23  -1
M  END
> <FRED Chemgauss4 score>
-10.715121

$$$$
C83746314	P131018925
  -OEChem-05122015313D

 29 30  0     1  0  0  0  0  0999 V2000
  124.8969  104.3384  107.7671 C   0  0  0  0  0  0  0  0  0  0  0  0
  123.7929  105.8351  106.5940 C   0  0  0  0  0  0  0  0  0  0  0  0
  122.8976  109.0093  110.2446 C   0  0  0  0  0  0  0  0  0  0  0  0
  124.9170  105.6887  107.3695 C   0  0  0  0  0  0  0  0  0  0  0  0
  124.2449  108.3183  108.8078 C   0  0  0  0  0  0  0  0  0  0  0  0
  120.7365  104.7631  106.6209 C   0  0  0  0  0  0  0  0  0  0  0  0
  125.9423  106.7433  107.7186 C   0  0  0  0  0  0  0  0  0  0  0  0
  121.9703  104.2680  105.8860 C   0  0  0  0  0  0  0  0  0  0  0  0
  125.3520  108.1699  107.7781 C   0  0  1  0  0  0  0  0  0  0  0  0
  123.8434  103.6743  107.2842 N   0  0  0  0  0  0  0  0  0  0  0  0
  123.9436  109.4138  109.4654 N   0  0  0  0  0  0  0  0  0  0  0  0
  123.4101  107.3133  109.1858 N   0  0  0  0  0  0  0  0  0  0  0  0
  122.5329  107.7325  110.1104 N   0  0  0  0  0  0  0  0  0  0  0  0
  123.1911  104.6113  106.5752 N   0  0  0  0  0  0  0  0  0  0  0  0
  124.8821  108.5622  106.4425 N   0  0  0  0  0  0  0  0  0  0  0  0
  125.6043  103.8086  108.3892 H   0  0  0  0  0  0  0  0  0  0  0  0
  123.3795  106.6850  106.0681 H   0  0  0  0  0  0  0  0  0  0  0  0
  122.3950  109.6807  110.9284 H   0  0  0  0  0  0  0  0  0  0  0  0
  120.6792  104.3386  107.6288 H   0  0  0  0  0  0  0  0  0  0  0  0
  119.8308  104.4761  106.0777 H   0  0  0  0  0  0  0  0  0  0  0  0
  120.7452  105.8538  106.7182 H   0  0  0  0  0  0  0  0  0  0  0  0
  126.7351  106.6997  106.9587 H   0  0  0  0  0  0  0  0  0  0  0  0
  126.4331  106.4812  108.6652 H   0  0  0  0  0  0  0  0  0  0  0  0
  122.0188  104.6979  104.8792 H   0  0  0  0  0  0  0  0  0  0  0  0
  121.9415  103.1783  105.7733 H   0  0  0  0  0  0  0  0  0  0  0  0
  126.1584  108.8684  108.0359 H   0  0  0  0  0  0  0  0  0  0  0  0
  121.8257  107.1275  110.5187 H   0  0  0  0  0  0  0  0  0  0  0  0
  125.3873  108.2219  105.6585 H   0  0  0  0  0  0  0  0  0  0  0  0
  124.2206  109.3005  106.3860 H   0  0  0  0  0  0  0  0  0  0  0  0
  1  4  1  0  0  0  0
  1 10  2  0  0  0  0
  2  4  2  0  0  0  0
  2 14  1  0  0  0  0
  3 11  2  0  0  0  0
  3 13  1  0  0  0  0
  4  7  1  0  0  0  0
  5  9  1  0  0  0  0
  5 11  1  0  0  0  0
  5 12  2  0  0  0  0
  6  8  1  0  0  0  0
  7  9  1  0  0  0  0
  8 14  1  0  0  0  0
  9 15  1  0  0  0  0
 10 14  1  0  0  0  0
 12 13  1  0  0  0  0
  1 16  1  0  0  0  0
  2 17  1  0  0  0  0
  3 18  1  0  0  0  0
  6 19  1  0  0  0  0
  6 20  1  0  0  0  0
  6 21  1  0  0  0  0
  7 22  1  0  0  0  0
  7 23  1  0  0  0  0
  8 24  1  0  0  0  0
  8 25  1  0  0  0  0
  9 26  1  0  0  0  0
 13 27  1  0  0  0  0
 15 28  1  0  0  0  0
 15 29  1  0  0  0  0
M  END
> <FRED Chemgauss4 score>
-10.703917

$$$$
C78953608	P123234585
  -OEChem-05122015313D

 36 37  0     0  0  0  0  0  0999 V2000
  122.7767  107.4816  109.6457 C   0  0  0  0  0  0  0  0  0  0  0  0
  124.7029  108.3490  108.4733 C   0  0  0  0  0  0  0  0  0  0  0  0
  122.7823  106.3559  108.8220 C   0  0  0  0  0  0  0  0  0  0  0  0
  124.7085  107.2233  107.6496 C   0  0  0  0  0  0  0  0  0  0  0  0
  121.3663  105.6941  105.4690 C   0  0  0  0  0  0  0  0  0  0  0  0
  120.2099  106.0151  104.7583 C   0  0  0  0  0  0  0  0  0  0  0  0
  120.2287  103.8123  106.4700 C   0  0  0  0  0  0  0  0  0  0  0  0
  123.7370  108.4781  109.4713 C   0  0  0  0  0  0  0  0  0  0  0  0
  123.7481  106.2267  107.8240 C   0  0  0  0  0  0  0  0  0  0  0  0
  119.0722  104.1334  105.7593 C   0  0  0  0  0  0  0  0  0  0  0  0
  121.3758  104.5926  106.3249 C   0  0  0  0  0  0  0  0  0  0  0  0
  119.0628  105.2349  104.9035 C   0  0  0  0  0  0  0  0  0  0  0  0
  123.7325  109.6521  110.3299 C   0  0  0  0  0  0  0  0  0  0  0  0
  117.8669  103.2697  105.9472 C   0  0  0  0  0  0  0  0  0  0  0  0
  123.7543  105.0223  106.9442 C   0  0  0  0  0  0  0  0  0  0  0  0
  123.8778  109.4345  111.6249 N   0  0  0  0  0  0  0  0  0  0  0  0
  123.5821  110.9498  109.8313 N   0  0  0  0  0  0  0  0  0  0  0  0
  122.5262  104.2739  107.0318 N   0  0  0  0  0  0  0  0  0  0  0  0
  123.8598  110.6235  112.3611 O   0  0  0  0  0  0  0  0  0  0  0  0
  117.5146  105.7110  103.9170 Br  0  0  0  0  0  0  0  0  0  0  0  0
  122.0199  107.5726  110.4204 H   0  0  0  0  0  0  0  0  0  0  0  0
  125.4560  109.1192  108.3282 H   0  0  0  0  0  0  0  0  0  0  0  0
  122.0306  105.5842  108.9651 H   0  0  0  0  0  0  0  0  0  0  0  0
  125.4651  107.1305  106.8748 H   0  0  0  0  0  0  0  0  0  0  0  0
  122.2554  106.3076  105.3472 H   0  0  0  0  0  0  0  0  0  0  0  0
  120.2231  106.8762  104.0947 H   0  0  0  0  0  0  0  0  0  0  0  0
  120.2367  102.9541  107.1386 H   0  0  0  0  0  0  0  0  0  0  0  0
  117.2520  103.6516  106.7699 H   0  0  0  0  0  0  0  0  0  0  0  0
  117.2559  103.2405  105.0372 H   0  0  0  0  0  0  0  0  0  0  0  0
  118.1532  102.2357  106.1741 H   0  0  0  0  0  0  0  0  0  0  0  0
  123.8959  105.3021  105.8909 H   0  0  0  0  0  0  0  0  0  0  0  0
  124.5739  104.3382  107.2036 H   0  0  0  0  0  0  0  0  0  0  0  0
  123.4895  111.1358  108.8392 H   0  0  0  0  0  0  0  0  0  0  0  0
  123.6024  111.7571  110.4454 H   0  0  0  0  0  0  0  0  0  0  0  0
  122.4993  103.4651  107.6449 H   0  0  0  0  0  0  0  0  0  0  0  0
  123.9752  110.2928  113.2679 H   0  0  0  0  0  0  0  0  0  0  0  0
  1  3  2  0  0  0  0
  1  8  1  0  0  0  0
  2  4  1  0  0  0  0
  2  8  2  0  0  0  0
  3  9  1  0  0  0  0
  4  9  2  0  0  0  0
  5  6  2  0  0  0  0
  5 11  1  0  0  0  0
  6 12  1  0  0  0  0
  7 10  1  0  0  0  0
  7 11  2  0  0  0  0
  8 13  1  0  0  0  0
  9 15  1  0  0  0  0
 10 12  2  0  0  0  0
 10 14  1  0  0  0  0
 11 18  1  0  0  0  0
 12 20  1  0  0  0  0
 13 16  2  0  0  0  0
 13 17  1  0  0  0  0
 15 18  1  0  0  0  0
 16 19  1  0  0  0  0
  1 21  1  0  0  0  0
  2 22  1  0  0  0  0
  3 23  1  0  0  0  0
  4 24  1  0  0  0  0
  5 25  1  0  0  0  0
  6 26  1  0  0  0  0
  7 27  1  0  0  0  0
 14 28  1  0  0  0  0
 14 29  1  0  0  0  0
 14 30  1  0  0  0  0
 15 31  1  0  0  0  0
 15 32  1  0  0  0  0
 17 33  1  0  0  0  0
 17 34  1  0  0  0  0
 18 35  1  0  0  0  0
 19 36  1  0  0  0  0
M  END
> <FRED Chemgauss4 score>
-10.697319

$$$$
C94718071	P148459693
  -OEChem-05122015313D

 39 40  0     0  0  0  0  0  0999 V2000
  122.0996  106.8144  106.1608 C   0  0  0  0  0  0  0  0  0  0  0  0
  123.3901  107.3373  106.0779 C   0  0  0  0  0  0  0  0  0  0  0  0
  115.8923  104.1713  104.2283 C   0  0  0  0  0  0  0  0  0  0  0  0
  117.6049  104.0781  105.9298 C   0  0  0  0  0  0  0  0  0  0  0  0
  118.1860  104.6771  103.6625 C   0  0  0  0  0  0  0  0  0  0  0  0
  124.1286  105.7839  107.7746 C   0  0  0  0  0  0  0  0  0  0  0  0
  116.2695  103.9405  105.5512 C   0  0  0  0  0  0  0  0  0  0  0  0
  116.8506  104.5396  103.2839 C   0  0  0  0  0  0  0  0  0  0  0  0
  118.5632  104.4464  104.9855 C   0  0  0  0  0  0  0  0  0  0  0  0
  122.8380  105.2611  107.8576 C   0  0  0  0  0  0  0  0  0  0  0  0
  121.8236  105.7763  107.0507 C   0  0  0  0  0  0  0  0  0  0  0  0
  124.4046  106.8220  106.8847 C   0  0  0  0  0  0  0  0  0  0  0  0
  115.2443  103.5472  106.5605 C   0  0  0  0  0  0  0  0  0  0  0  0
  116.4478  104.7868  101.8693 C   0  0  0  0  0  0  0  0  0  0  0  0
  119.9911  104.5934  105.3907 C   0  0  0  0  0  0  0  0  0  0  0  0
  122.5958  104.2097  108.7710 N   0  0  0  0  0  0  0  0  0  0  0  0
  125.9403  108.7201  107.9541 N   0  0  0  0  0  0  0  0  0  0  0  0
  126.9583  106.4634  107.2356 O   0  0  0  0  0  0  0  0  0  0  0  0
  126.1883  108.0867  105.4694 O   0  0  0  0  0  0  0  0  0  0  0  0
  120.1729  105.1521  107.1119 S   0  0  0  0  0  0  0  0  0  0  0  0
  126.0188  107.4793  106.7821 S   0  0  0  0  0  0  0  0  0  0  0  0
  121.3242  107.2311  105.5222 H   0  0  0  0  0  0  0  0  0  0  0  0
  123.5938  108.1454  105.3803 H   0  0  0  0  0  0  0  0  0  0  0  0
  114.8513  104.0638  103.9324 H   0  0  0  0  0  0  0  0  0  0  0  0
  117.8989  103.8982  106.9613 H   0  0  0  0  0  0  0  0  0  0  0  0
  118.9333  104.9642  102.9266 H   0  0  0  0  0  0  0  0  0  0  0  0
  124.9212  105.3848  108.4034 H   0  0  0  0  0  0  0  0  0  0  0  0
  115.1458  102.4554  106.5993 H   0  0  0  0  0  0  0  0  0  0  0  0
  115.5121  103.9082  107.5620 H   0  0  0  0  0  0  0  0  0  0  0  0
  114.2631  103.9768  106.3200 H   0  0  0  0  0  0  0  0  0  0  0  0
  116.1806  105.8410  101.7270 H   0  0  0  0  0  0  0  0  0  0  0  0
  117.2599  104.5368  101.1743 H   0  0  0  0  0  0  0  0  0  0  0  0
  115.5861  104.1681  101.5865 H   0  0  0  0  0  0  0  0  0  0  0  0
  120.5303  103.6413  105.2775 H   0  0  0  0  0  0  0  0  0  0  0  0
  120.5081  105.3131  104.7392 H   0  0  0  0  0  0  0  0  0  0  0  0
  123.3595  103.8383  109.2960 H   0  0  0  0  0  0  0  0  0  0  0  0
  121.6874  103.7968  108.8045 H   0  0  0  0  0  0  0  0  0  0  0  0
  125.3818  109.5544  107.7361 H   0  0  0  0  0  0  0  0  0  0  0  0
  125.9095  108.4470  108.9439 H   0  0  0  0  0  0  0  0  0  0  0  0
  1  2  2  0  0  0  0
  1 11  1  0  0  0  0
  2 12  1  0  0  0  0
  3  7  2  0  0  0  0
  3  8  1  0  0  0  0
  4  7  1  0  0  0  0
  4  9  2  0  0  0  0
  5  8  2  0  0  0  0
  5  9  1  0  0  0  0
  6 10  1  0  0  0  0
  6 12  2  0  0  0  0
  7 13  1  0  0  0  0
  8 14  1  0  0  0  0
  9 15  1  0  0  0  0
 10 11  2  0  0  0  0
 10 16  1  0  0  0  0
 11 20  1  0  0  0  0
 12 21  1  0  0  0  0
 15 20  1  0  0  0  0
 17 21  1  0  0  0  0
 18 21  2  0  0  0  0
 19 21  2  0  0  0  0
  1 22  1  0  0  0  0
  2 23  1  0  0  0  0
  3 24  1  0  0  0  0
  4 25  1  0  0  0  0
  5 26  1  0  0  0  0
  6 27  1  0  0  0  0
 13 28  1  0  0  0  0
 13 29  1  0  0  0  0
 13 30  1  0  0  0  0
 14 31  1  0  0  0  0
 14 32  1  0  0  0  0
 14 33  1  0  0  0  0
 15 34  1  0  0  0  0
 15 35  1  0  0  0  0
 16 36  1  0  0  0  0
 16 37  1  0  0  0  0
 17 38  1  0  0  0  0
 17 39  1  0  0  0  0
M  END
> <FRED Chemgauss4 score>
-10.696795

$$$$
C52925068	P79325338
  -OEChem-05122015313D

 33 33  0     0  0  0  0  0  0999 V2000
  122.7951  105.7786  106.0029 C   0  0  0  0  0  0  0  0  0  0  0  0
  123.9398  106.5682  105.8934 C   0  0  0  0  0  0  0  0  0  0  0  0
  123.7033  104.7368  107.9845 C   0  0  0  0  0  0  0  0  0  0  0  0
  122.6768  104.8629  107.0485 C   0  0  0  0  0  0  0  0  0  0  0  0
  124.9662  106.4420  106.8294 C   0  0  0  0  0  0  0  0  0  0  0  0
  124.8480  105.5263  107.8750 C   0  0  0  0  0  0  0  0  0  0  0  0
  125.0379  109.4041  108.0585 C   0  0  0  0  0  0  0  0  0  0  0  0
  124.7690  109.7118  109.5202 C   0  0  0  0  0  0  0  0  0  0  0  0
  122.1552  111.8244  111.0177 C   0  0  0  0  0  0  0  0  0  0  0  0
  123.3484  110.8893  110.9757 C   0  0  0  0  0  0  0  0  0  0  0  0
  121.5192  104.0648  107.1584 N   0  0  0  0  0  0  0  0  0  0  0  0
  126.2255  108.5452  107.9459 N   0  0  0  0  0  0  0  0  0  0  0  0
  127.5673  106.6524  106.8264 O   0  0  0  0  0  0  0  0  0  0  0  0
  126.2074  108.2079  105.3927 O   0  0  0  0  0  0  0  0  0  0  0  0
  121.0433  111.1860  110.4016 O   0  0  0  0  0  0  0  0  0  0  0  0
  123.6409  110.5715  109.6220 O   0  0  0  0  0  0  0  0  0  0  0  0
  126.3757  107.4648  106.6320 S   0  0  0  0  0  0  0  0  0  0  0  0
  126.2062  105.3039  109.1824 Br  0  0  0  0  0  0  0  0  0  0  0  0
  122.0013  105.8849  105.2679 H   0  0  0  0  0  0  0  0  0  0  0  0
  124.0185  107.2775  105.0737 H   0  0  0  0  0  0  0  0  0  0  0  0
  123.6022  104.0198  108.7967 H   0  0  0  0  0  0  0  0  0  0  0  0
  124.1920  108.8814  107.6008 H   0  0  0  0  0  0  0  0  0  0  0  0
  125.2309  110.3275  107.5041 H   0  0  0  0  0  0  0  0  0  0  0  0
  125.6283  110.2287  109.9586 H   0  0  0  0  0  0  0  0  0  0  0  0
  124.5700  108.8005  110.0935 H   0  0  0  0  0  0  0  0  0  0  0  0
  122.3608  112.7511  110.4732 H   0  0  0  0  0  0  0  0  0  0  0  0
  121.8869  112.0564  112.0525 H   0  0  0  0  0  0  0  0  0  0  0  0
  123.1373  109.9560  111.5070 H   0  0  0  0  0  0  0  0  0  0  0  0
  124.2280  111.3712  111.4123 H   0  0  0  0  0  0  0  0  0  0  0  0
  120.7711  104.1982  106.5085 H   0  0  0  0  0  0  0  0  0  0  0  0
  121.4257  103.4462  107.9386 H   0  0  0  0  0  0  0  0  0  0  0  0
  127.0790  108.8949  108.3984 H   0  0  0  0  0  0  0  0  0  0  0  0
  120.3023  111.8112  110.4470 H   0  0  0  0  0  0  0  0  0  0  0  0
  1  2  1  0  0  0  0
  1  4  2  0  0  0  0
  2  5  2  0  0  0  0
  3  4  1  0  0  0  0
  3  6  2  0  0  0  0
  4 11  1  0  0  0  0
  5  6  1  0  0  0  0
  5 17  1  0  0  0  0
  6 18  1  0  0  0  0
  7  8  1  0  0  0  0
  7 12  1  0  0  0  0
  8 16  1  0  0  0  0
  9 10  1  0  0  0  0
  9 15  1  0  0  0  0
 10 16  1  0  0  0  0
 12 17  1  0  0  0  0
 13 17  2  0  0  0  0
 14 17  2  0  0  0  0
  1 19  1  0  0  0  0
  2 20  1  0  0  0  0
  3 21  1  0  0  0  0
  7 22  1  0  0  0  0
  7 23  1  0  0  0  0
  8 24  1  0  0  0  0
  8 25  1  0  0  0  0
  9 26  1  0  0  0  0
  9 27  1  0  0  0  0
 10 28  1  0  0  0  0
 10 29  1  0  0  0  0
 11 30  1  0  0  0  0
 11 31  1  0  0  0  0
 12 32  1  0  0  0  0
 15 33  1  0  0  0  0
M  END
> <FRED Chemgauss4 score>
-10.696261

$$$$
C97581700	P154674553
  -OEChem-05122015313D

 46 47  0     1  0  0  0  0  0999 V2000
  124.8649  108.8495  108.4737 C   0  0  0  0  0  0  0  0  0  0  0  0
  124.1653  107.8956  110.3272 C   0  0  0  0  0  0  0  0  0  0  0  0
  124.7603  107.6053  109.1238 C   0  0  0  0  0  0  0  0  0  0  0  0
  120.3184  106.2544  106.4841 C   0  0  0  0  0  0  0  0  0  0  0  0
  120.8083  106.1707  107.9252 C   0  0  0  0  0  0  0  0  0  0  0  0
  121.3445  106.9706  105.6133 C   0  0  0  0  0  0  0  0  0  0  0  0
  122.2138  105.5723  108.0009 C   0  0  0  0  0  0  0  0  0  0  0  0
  122.7331  106.3471  105.7623 C   0  0  0  0  0  0  0  0  0  0  0  0
  124.3850  110.7786  112.1984 C   0  0  0  0  0  0  0  0  0  0  0  0
  125.3243  106.2407  106.0685 C   0  0  0  0  0  0  0  0  0  0  0  0
  124.4130  104.2384  107.2350 C   0  0  0  0  0  0  0  0  0  0  0  0
  123.3538  110.0189  111.3818 C   0  0  0  0  0  0  0  0  0  0  0  0
  125.2030  106.2443  108.6105 C   0  0  1  0  0  0  0  0  0  0  0  0
  124.5063  105.7751  107.2891 C   0  0  0  0  0  0  0  0  0  0  0  0
  124.3753  109.8554  109.2034 N   0  0  0  0  0  0  0  0  0  0  0  0
  123.9573  109.2436  110.3246 N   0  0  0  0  0  0  0  0  0  0  0  0
  123.1586  106.3307  107.1689 N   0  0  0  0  0  0  0  0  0  0  0  0
  127.1946  106.3847  109.8270 N   0  0  0  0  0  0  0  0  0  0  0  0
  126.6495  106.1881  108.5201 N   0  0  0  0  0  0  0  0  0  0  0  0
  125.2762  109.0676  107.4982 H   0  0  0  0  0  0  0  0  0  0  0  0
  123.8780  107.2732  111.1638 H   0  0  0  0  0  0  0  0  0  0  0  0
  120.1507  105.2426  106.0951 H   0  0  0  0  0  0  0  0  0  0  0  0
  119.3577  106.7795  106.4429 H   0  0  0  0  0  0  0  0  0  0  0  0
  120.8119  107.1742  108.3696 H   0  0  0  0  0  0  0  0  0  0  0  0
  120.1146  105.5622  108.5165 H   0  0  0  0  0  0  0  0  0  0  0  0
  121.0312  106.9299  104.5639 H   0  0  0  0  0  0  0  0  0  0  0  0
  121.3861  108.0310  105.8935 H   0  0  0  0  0  0  0  0  0  0  0  0
  122.5391  105.5972  109.0482 H   0  0  0  0  0  0  0  0  0  0  0  0
  122.1817  104.5183  107.6944 H   0  0  0  0  0  0  0  0  0  0  0  0
  122.7271  105.3319  105.3438 H   0  0  0  0  0  0  0  0  0  0  0  0
  123.4389  106.9403  105.1682 H   0  0  0  0  0  0  0  0  0  0  0  0
  125.1070  110.0955  112.6584 H   0  0  0  0  0  0  0  0  0  0  0  0
  123.8949  111.3450  112.9962 H   0  0  0  0  0  0  0  0  0  0  0  0
  124.9438  111.4829  111.5731 H   0  0  0  0  0  0  0  0  0  0  0  0
  125.4307  107.3311  106.0440 H   0  0  0  0  0  0  0  0  0  0  0  0
  126.3277  105.8008  106.0711 H   0  0  0  0  0  0  0  0  0  0  0  0
  124.8338  105.9516  105.1314 H   0  0  0  0  0  0  0  0  0  0  0  0
  123.8386  103.8480  108.0837 H   0  0  0  0  0  0  0  0  0  0  0  0
  125.4013  103.7688  107.2873 H   0  0  0  0  0  0  0  0  0  0  0  0
  123.9203  103.9021  106.3161 H   0  0  0  0  0  0  0  0  0  0  0  0
  122.6363  110.7104  110.9258 H   0  0  0  0  0  0  0  0  0  0  0  0
  122.7844  109.3336  112.0199 H   0  0  0  0  0  0  0  0  0  0  0  0
  124.9634  105.5047  109.3872 H   0  0  0  0  0  0  0  0  0  0  0  0
  127.7611  107.2326  109.8335 H   0  0  0  0  0  0  0  0  0  0  0  0
  126.4328  106.5540  110.4825 H   0  0  0  0  0  0  0  0  0  0  0  0
  126.9400  105.2718  108.1749 H   0  0  0  0  0  0  0  0  0  0  0  0
  1  3  1  0  0  0  0
  1 15  2  0  0  0  0
  2  3  2  0  0  0  0
  2 16  1  0  0  0  0
  3 13  1  0  0  0  0
  4  5  1  0  0  0  0
  4  6  1  0  0  0  0
  5  7  1  0  0  0  0
  6  8  1  0  0  0  0
  7 17  1  0  0  0  0
  8 17  1  0  0  0  0
  9 12  1  0  0  0  0
 10 14  1  0  0  0  0
 11 14  1  0  0  0  0
 12 16  1  0  0  0  0
 13 14  1  0  0  0  0
 13 19  1  0  0  0  0
 14 17  1  0  0  0  0
 15 16  1  0  0  0  0
 18 19  1  0  0  0  0
  1 20  1  0  0  0  0
  2 21  1  0  0  0  0
  4 22  1  0  0  0  0
  4 23  1  0  0  0  0
  5 24  1  0  0  0  0
  5 25  1  0  0  0  0
  6 26  1  0  0  0  0
  6 27  1  0  0  0  0
  7 28  1  0  0  0  0
  7 29  1  0  0  0  0
  8 30  1  0  0  0  0
  8 31  1  0  0  0  0
  9 32  1  0  0  0  0
  9 33  1  0  0  0  0
  9 34  1  0  0  0  0
 10 35  1  0  0  0  0
 10 36  1  0  0  0  0
 10 37  1  0  0  0  0
 11 38  1  0  0  0  0
 11 39  1  0  0  0  0
 11 40  1  0  0  0  0
 12 41  1  0  0  0  0
 12 42  1  0  0  0  0
 13 43  1  0  0  0  0
 18 44  1  0  0  0  0
 18 45  1  0  0  0  0
 19 46  1  0  0  0  0
M  END
> <FRED Chemgauss4 score>
-10.678852

$$$$
C02311442	P06871684
  -OEChem-05122015313D

 43 46  0     1  0  0  0  0  0999 V2000
  115.2096  104.4725  104.0869 C   0  0  0  0  0  0  0  0  0  0  0  0
  116.0993  105.4213  103.5830 C   0  0  0  0  0  0  0  0  0  0  0  0
  115.5122  103.7887  105.2643 C   0  0  0  0  0  0  0  0  0  0  0  0
  123.6878  105.4227  108.3641 C   0  0  0  0  0  0  0  0  0  0  0  0
  123.1469  107.1568  106.7711 C   0  0  0  0  0  0  0  0  0  0  0  0
  117.2917  105.6861  104.2566 C   0  0  0  0  0  0  0  0  0  0  0  0
  116.7046  104.0535  105.9379 C   0  0  0  0  0  0  0  0  0  0  0  0
  125.0254  105.8174  108.3395 C   0  0  0  0  0  0  0  0  0  0  0  0
  124.4845  107.5515  106.7466 C   0  0  0  0  0  0  0  0  0  0  0  0
  122.7485  106.0924  107.5798 C   0  0  0  0  0  0  0  0  0  0  0  0
  117.5944  105.0022  105.4340 C   0  0  0  0  0  0  0  0  0  0  0  0
  125.4238  106.8818  107.5308 C   0  0  0  0  0  0  0  0  0  0  0  0
  120.2753  106.7595  107.3542 C   0  0  0  0  0  0  0  0  0  0  0  0
  119.1474  106.5604  106.6312 C   0  0  0  0  0  0  0  0  0  0  0  0
  120.5062  108.0935  108.0168 C   0  0  0  0  0  0  0  0  0  0  0  0
  119.6919  104.1733  106.2887 C   0  0  0  0  0  0  0  0  0  0  0  0
  118.1068  107.6636  106.4731 C   0  0  0  0  0  0  0  0  0  0  0  0
  119.6533  109.2583  107.5913 C   0  0  0  0  0  0  0  0  0  0  0  0
  121.1228  104.5198  106.6124 C   0  0  0  0  0  0  0  0  0  0  0  0
  118.2205  108.7951  107.4868 C   0  0  0  0  0  0  0  0  0  0  0  0
  121.2848  105.6620  107.6076 C   0  0  1  0  0  0  0  0  0  0  0  0
  118.8257  105.2759  106.1295 N   0  0  0  0  0  0  0  0  0  0  0  0
  121.3797  108.2464  108.8695 O   0  0  0  0  0  0  0  0  0  0  0  0
  119.4114  102.9974  106.0408 O   0  0  0  0  0  0  0  0  0  0  0  0
  127.0739  107.3685  107.5009 Cl  0  0  0  0  0  0  0  0  0  0  0  0
  114.2806  104.2666  103.5631 H   0  0  0  0  0  0  0  0  0  0  0  0
  115.8636  105.9546  102.6668 H   0  0  0  0  0  0  0  0  0  0  0  0
  114.8187  103.0506  105.6569 H   0  0  0  0  0  0  0  0  0  0  0  0
  123.3853  104.5923  108.9967 H   0  0  0  0  0  0  0  0  0  0  0  0
  122.4212  107.6839  106.1573 H   0  0  0  0  0  0  0  0  0  0  0  0
  117.9774  106.4278  103.8545 H   0  0  0  0  0  0  0  0  0  0  0  0
  116.9299  103.5143  106.8547 H   0  0  0  0  0  0  0  0  0  0  0  0
  125.7460  105.2864  108.9562 H   0  0  0  0  0  0  0  0  0  0  0  0
  124.7803  108.3825  106.1115 H   0  0  0  0  0  0  0  0  0  0  0  0
  118.1729  108.0660  105.4456 H   0  0  0  0  0  0  0  0  0  0  0  0
  117.0904  107.2435  106.5746 H   0  0  0  0  0  0  0  0  0  0  0  0
  119.7292  110.0420  108.3426 H   0  0  0  0  0  0  0  0  0  0  0  0
  120.0236  109.6295  106.6382 H   0  0  0  0  0  0  0  0  0  0  0  0
  121.5882  103.6038  107.0166 H   0  0  0  0  0  0  0  0  0  0  0  0
  121.6498  104.7479  105.6702 H   0  0  0  0  0  0  0  0  0  0  0  0
  117.5756  109.6298  107.1881 H   0  0  0  0  0  0  0  0  0  0  0  0
  117.8642  108.4489  108.4665 H   0  0  0  0  0  0  0  0  0  0  0  0
  121.1290  105.2096  108.6170 H   0  0  0  0  0  0  0  0  0  0  0  0
  1  2  1  0  0  0  0
  1  3  2  0  0  0  0
  2  6  2  0  0  0  0
  3  7  1  0  0  0  0
  4  8  2  0  0  0  0
  4 10  1  0  0  0  0
  5  9  1  0  0  0  0
  5 10  2  0  0  0  0
  6 11  1  0  0  0  0
  7 11  2  0  0  0  0
  8 12  1  0  0  0  0
  9 12  2  0  0  0  0
 10 21  1  0  0  0  0
 11 22  1  0  0  0  0
 12 25  1  0  0  0  0
 13 14  2  0  0  0  0
 13 15  1  0  0  0  0
 13 21  1  0  0  0  0
 14 17  1  0  0  0  0
 14 22  1  0  0  0  0
 15 18  1  0  0  0  0
 15 23  2  0  0  0  0
 16 19  1  0  0  0  0
 16 22  1  0  0  0  0
 16 24  2  0  0  0  0
 17 20  1  0  0  0  0
 18 20  1  0  0  0  0
 19 21  1  0  0  0  0
  1 26  1  0  0  0  0
  2 27  1  0  0  0  0
  3 28  1  0  0  0  0
  4 29  1  0  0  0  0
  5 30  1  0  0  0  0
  6 31  1  0  0  0  0
  7 32  1  0  0  0  0
  8 33  1  0  0  0  0
  9 34  1  0  0  0  0
 17 35  1  0  0  0  0
 17 36  1  0  0  0  0
 18 37  1  0  0  0  0
 18 38  1  0  0  0  0
 19 39  1  0  0  0  0
 19 40  1  0  0  0  0
 20 41  1  0  0  0  0
 20 42  1  0  0  0  0
 21 43  1  0  0  0  0
M  END
> <FRED Chemgauss4 score>
-10.660669

$$$$
C87667525	P137128337
  -OEChem-05122015313D

 32 33  0     1  0  0  0  0  0999 V2000
  126.1628  106.5639  107.7914 C   0  0  0  0  0  0  0  0  0  0  0  0
  125.1252  104.7745  108.5374 C   0  0  0  0  0  0  0  0  0  0  0  0
  126.0769  105.6971  108.8974 C   0  0  0  0  0  0  0  0  0  0  0  0
  122.3826  105.1758  106.4547 C   0  0  0  0  0  0  0  0  0  0  0  0
  116.9420  103.6943  105.1284 C   0  0  0  0  0  0  0  0  0  0  0  0
  117.6229  104.3372  106.3274 C   0  0  0  0  0  0  0  0  0  0  0  0
  117.7800  104.0555  103.9140 C   0  0  0  0  0  0  0  0  0  0  0  0
  119.0899  103.9224  106.2624 C   0  0  2  0  0  0  0  0  0  0  0  0
  123.7101  104.4488  106.4768 C   0  0  0  0  0  0  0  0  0  0  0  0
  119.9959  104.8374  107.0680 C   0  0  0  0  0  0  0  0  0  0  0  0
  125.3320  106.2224  106.8029 N   0  0  0  0  0  0  0  0  0  0  0  0
  124.7151  105.1307  107.2864 N   0  0  0  0  0  0  0  0  0  0  0  0
  126.7685  105.7530  110.0510 N   0  0  0  0  0  0  0  0  0  0  0  0
  121.3489  104.3934  106.9751 N   0  0  0  0  0  0  0  0  0  0  0  0
  122.2434  106.3178  106.0250 O   0  0  0  0  0  0  0  0  0  0  0  0
  119.4995  103.9688  104.4865 S   0  0  0  0  0  0  0  0  0  0  0  0
  126.7943  107.4314  107.6613 H   0  0  0  0  0  0  0  0  0  0  0  0
  124.7146  103.9155  109.0509 H   0  0  0  0  0  0  0  0  0  0  0  0
  116.8984  102.6050  105.2546 H   0  0  0  0  0  0  0  0  0  0  0  0
  115.9130  104.0504  105.0151 H   0  0  0  0  0  0  0  0  0  0  0  0
  117.5145  105.4287  106.2784 H   0  0  0  0  0  0  0  0  0  0  0  0
  117.1635  104.0088  107.2660 H   0  0  0  0  0  0  0  0  0  0  0  0
  117.6074  103.3712  103.0790 H   0  0  0  0  0  0  0  0  0  0  0  0
  117.5714  105.0772  103.5818 H   0  0  0  0  0  0  0  0  0  0  0  0
  119.2047  102.8882  106.6056 H   0  0  0  0  0  0  0  0  0  0  0  0
  124.0995  104.3572  105.4566 H   0  0  0  0  0  0  0  0  0  0  0  0
  123.5749  103.4399  106.8827 H   0  0  0  0  0  0  0  0  0  0  0  0
  119.6880  104.8168  108.1078 H   0  0  0  0  0  0  0  0  0  0  0  0
  119.9281  105.8465  106.6770 H   0  0  0  0  0  0  0  0  0  0  0  0
  127.5039  106.4581  110.2201 H   0  0  0  0  0  0  0  0  0  0  0  0
  126.6679  105.0385  110.7899 H   0  0  0  0  0  0  0  0  0  0  0  0
  121.5743  103.4400  107.2735 H   0  0  0  0  0  0  0  0  0  0  0  0
  1  3  1  0  0  0  0
  1 11  2  0  0  0  0
  2  3  2  0  0  0  0
  2 12  1  0  0  0  0
  3 13  1  0  0  0  0
  4  9  1  0  0  0  0
  4 14  1  0  0  0  0
  4 15  2  0  0  0  0
  5  6  1  0  0  0  0
  5  7  1  0  0  0  0
  6  8  1  0  0  0  0
  7 16  1  0  0  0  0
  8 10  1  0  0  0  0
  8 16  1  0  0  0  0
  9 12  1  0  0  0  0
 10 14  1  0  0  0  0
 11 12  1  0  0  0  0
  1 17  1  0  0  0  0
  2 18  1  0  0  0  0
  5 19  1  0  0  0  0
  5 20  1  0  0  0  0
  6 21  1  0  0  0  0
  6 22  1  0  0  0  0
  7 23  1  0  0  0  0
  7 24  1  0  0  0  0
  8 25  1  0  0  0  0
  9 26  1  0  0  0  0
  9 27  1  0  0  0  0
 10 28  1  0  0  0  0
 10 29  1  0  0  0  0
 13 30  1  0  0  0  0
 13 31  1  0  0  0  0
 14 32  1  0  0  0  0
M  END
> <FRED Chemgauss4 score>
-10.655345

$$$$
C97591095	P154659382
  -OEChem-05122015313D

 49 50  0     1  0  0  0  0  0999 V2000
  119.5685  103.7993  105.8663 C   0  0  0  0  0  0  0  0  0  0  0  0
  120.9800  104.1402  103.9827 C   0  0  0  0  0  0  0  0  0  0  0  0
  118.7127  103.9685  103.6537 C   0  0  0  0  0  0  0  0  0  0  0  0
  120.8483  103.9747  105.3520 C   0  0  0  0  0  0  0  0  0  0  0  0
  118.4748  103.7948  105.0076 C   0  0  0  0  0  0  0  0  0  0  0  0
  126.6287  105.9148  108.3878 C   0  0  0  0  0  0  0  0  0  0  0  0
  126.0034  107.2750  108.6792 C   0  0  0  0  0  0  0  0  0  0  0  0
  125.7477  104.7068  108.7053 C   0  0  0  0  0  0  0  0  0  0  0  0
  124.6549  107.5338  108.0080 C   0  0  0  0  0  0  0  0  0  0  0  0
  124.6018  104.5371  107.7066 C   0  0  0  0  0  0  0  0  0  0  0  0
  123.5220  106.7206  108.6350 C   0  0  0  0  0  0  0  0  0  0  0  0
  123.3160  105.3195  108.0307 C   0  0  0  0  0  0  0  0  0  0  0  0
  123.3655  104.2564  110.2820 C   0  0  0  0  0  0  0  0  0  0  0  0
  121.2292  105.1651  109.3812 C   0  0  0  0  0  0  0  0  0  0  0  0
  122.0571  103.9857  106.2567 C   0  0  0  0  0  0  0  0  0  0  0  0
  122.4226  105.3827  106.7827 C   0  0  2  0  0  0  0  0  0  0  0  0
  119.9415  104.1415  103.1172 N   0  0  0  0  0  0  0  0  0  0  0  0
  122.1883  106.5725  104.7837 N   0  0  0  0  0  0  0  0  0  0  0  0
  123.1397  106.1298  105.7486 N   0  0  0  0  0  0  0  0  0  0  0  0
  122.5453  104.5242  109.0554 N   0  3  0  0  0  0  0  0  0  0  0  0
  116.7265  103.5577  105.6651 Br  0  0  0  0  0  0  0  0  0  0  0  0
  119.4312  103.6672  106.9370 H   0  0  0  0  0  0  0  0  0  0  0  0
  121.9538  104.2813  103.5240 H   0  0  0  0  0  0  0  0  0  0  0  0
  117.9029  103.9736  102.9302 H   0  0  0  0  0  0  0  0  0  0  0  0
  126.9401  105.8773  107.3364 H   0  0  0  0  0  0  0  0  0  0  0  0
  127.5499  105.8345  108.9788 H   0  0  0  0  0  0  0  0  0  0  0  0
  125.9044  107.4026  109.7646 H   0  0  0  0  0  0  0  0  0  0  0  0
  126.7078  108.0481  108.3473 H   0  0  0  0  0  0  0  0  0  0  0  0
  126.3839  103.8150  108.6356 H   0  0  0  0  0  0  0  0  0  0  0  0
  125.3847  104.7465  109.7379 H   0  0  0  0  0  0  0  0  0  0  0  0
  124.4209  108.5967  108.1501 H   0  0  0  0  0  0  0  0  0  0  0  0
  124.7178  107.3734  106.9262 H   0  0  0  0  0  0  0  0  0  0  0  0
  124.9608  104.8107  106.7056 H   0  0  0  0  0  0  0  0  0  0  0  0
  124.3608  103.4670  107.6406 H   0  0  0  0  0  0  0  0  0  0  0  0
  123.6901  106.6541  109.7184 H   0  0  0  0  0  0  0  0  0  0  0  0
  122.5899  107.2921  108.5264 H   0  0  0  0  0  0  0  0  0  0  0  0
  123.5902  105.2167  110.7496 H   0  0  0  0  0  0  0  0  0  0  0  0
  122.7747  103.6242  110.9475 H   0  0  0  0  0  0  0  0  0  0  0  0
  124.2799  103.7492  109.9682 H   0  0  0  0  0  0  0  0  0  0  0  0
  121.4342  106.1338  109.8405 H   0  0  0  0  0  0  0  0  0  0  0  0
  120.6747  105.2824  108.4482 H   0  0  0  0  0  0  0  0  0  0  0  0
  120.6993  104.5072  110.0727 H   0  0  0  0  0  0  0  0  0  0  0  0
  121.9002  103.2928  107.0944 H   0  0  0  0  0  0  0  0  0  0  0  0
  122.9002  103.5713  105.6866 H   0  0  0  0  0  0  0  0  0  0  0  0
  121.5186  105.9423  107.0400 H   0  0  0  0  0  0  0  0  0  0  0  0
  121.2482  106.3288  105.0942 H   0  0  0  0  0  0  0  0  0  0  0  0
  122.2142  107.5907  104.7472 H   0  0  0  0  0  0  0  0  0  0  0  0
  123.8157  105.5156  105.3015 H   0  0  0  0  0  0  0  0  0  0  0  0
  122.3402  103.6148  108.6243 H   0  0  0  0  0  0  0  0  0  0  0  0
  1  4  1  0  0  0  0
  1  5  2  0  0  0  0
  2  4  2  0  0  0  0
  2 17  1  0  0  0  0
  3  5  1  0  0  0  0
  3 17  2  0  0  0  0
  4 15  1  0  0  0  0
  5 21  1  0  0  0  0
  6  7  1  0  0  0  0
  6  8  1  0  0  0  0
  7  9  1  0  0  0  0
  8 10  1  0  0  0  0
  9 11  1  0  0  0  0
 10 12  1  0  0  0  0
 11 12  1  0  0  0  0
 12 16  1  0  0  0  0
 12 20  1  0  0  0  0
 13 20  1  0  0  0  0
 14 20  1  0  0  0  0
 15 16  1  0  0  0  0
 16 19  1  0  0  0  0
 18 19  1  0  0  0  0
  1 22  1  0  0  0  0
  2 23  1  0  0  0  0
  3 24  1  0  0  0  0
  6 25  1  0  0  0  0
  6 26  1  0  0  0  0
  7 27  1  0  0  0  0
  7 28  1  0  0  0  0
  8 29  1  0  0  0  0
  8 30  1  0  0  0  0
  9 31  1  0  0  0  0
  9 32  1  0  0  0  0
 10 33  1  0  0  0  0
 10 34  1  0  0  0  0
 11 35  1  0  0  0  0
 11 36  1  0  0  0  0
 13 37  1  0  0  0  0
 13 38  1  0  0  0  0
 13 39  1  0  0  0  0
 14 40  1  0  0  0  0
 14 41  1  0  0  0  0
 14 42  1  0  0  0  0
 15 43  1  0  0  0  0
 15 44  1  0  0  0  0
 16 45  1  0  0  0  0
 18 46  1  0  0  0  0
 18 47  1  0  0  0  0
 19 48  1  0  0  0  0
 20 49  1  0  0  0  0
M  CHG  1  20   1
M  END
> <FRED Chemgauss4 score>
-10.652939

$$$$
C80566884	P125793118
  -OEChem-05122015313D

 38 39  0     0  0  0  0  0  0999 V2000
  115.5580  104.9673  103.0101 C   0  0  0  0  0  0  0  0  0  0  0  0
  116.8060  105.5576  102.8114 C   0  0  0  0  0  0  0  0  0  0  0  0
  115.3409  104.1521  104.1210 C   0  0  0  0  0  0  0  0  0  0  0  0
  117.8371  105.3326  103.7235 C   0  0  0  0  0  0  0  0  0  0  0  0
  127.1013  105.0744  108.0078 C   0  0  0  0  0  0  0  0  0  0  0  0
  116.3720  103.9272  105.0331 C   0  0  0  0  0  0  0  0  0  0  0  0
  117.6201  104.5174  104.8344 C   0  0  0  0  0  0  0  0  0  0  0  0
  125.7160  106.3994  108.8338 C   0  0  0  0  0  0  0  0  0  0  0  0
  124.4972  107.1585  109.2980 C   0  0  0  0  0  0  0  0  0  0  0  0
  123.2171  106.7191  108.5914 C   0  0  0  0  0  0  0  0  0  0  0  0
  119.2664  105.9801  106.4663 C   0  0  0  0  0  0  0  0  0  0  0  0
  120.4101  106.0427  107.4616 C   0  0  0  0  0  0  0  0  0  0  0  0
  125.7589  105.2968  108.1226 N   0  0  0  0  0  0  0  0  0  0  0  0
  127.8916  105.9701  108.6032 N   0  0  0  0  0  0  0  0  0  0  0  0
  126.9809  106.8065  109.1239 N   0  0  0  0  0  0  0  0  0  0  0  0
  116.1147  103.0956  106.1471 N   0  0  0  0  0  0  0  0  0  0  0  0
  122.0368  107.4842  109.0319 N   0  0  0  0  0  0  0  0  0  0  0  0
  121.2137  108.4360  106.7711 O   0  0  0  0  0  0  0  0  0  0  0  0
  119.5944  108.1955  108.6886 O   0  0  0  0  0  0  0  0  0  0  0  0
  118.9623  104.2666  105.9554 S   0  0  0  0  0  0  0  0  0  0  0  0
  120.7442  107.7218  107.9422 S   0  0  0  0  0  0  0  0  0  0  0  0
  114.7549  105.1437  102.3007 H   0  0  0  0  0  0  0  0  0  0  0  0
  116.9751  106.1922  101.9462 H   0  0  0  0  0  0  0  0  0  0  0  0
  114.3633  103.6991  104.2651 H   0  0  0  0  0  0  0  0  0  0  0  0
  118.8020  105.8024  103.5484 H   0  0  0  0  0  0  0  0  0  0  0  0
  127.5167  104.2331  107.4734 H   0  0  0  0  0  0  0  0  0  0  0  0
  124.6630  108.2279  109.1160 H   0  0  0  0  0  0  0  0  0  0  0  0
  124.3847  107.0512  110.3844 H   0  0  0  0  0  0  0  0  0  0  0  0
  123.3127  106.8794  107.5128 H   0  0  0  0  0  0  0  0  0  0  0  0
  123.0055  105.6584  108.7615 H   0  0  0  0  0  0  0  0  0  0  0  0
  119.4962  106.5749  105.5762 H   0  0  0  0  0  0  0  0  0  0  0  0
  118.3485  106.3847  106.9049 H   0  0  0  0  0  0  0  0  0  0  0  0
  121.3406  105.6510  107.0381 H   0  0  0  0  0  0  0  0  0  0  0  0
  120.1798  105.4974  108.3824 H   0  0  0  0  0  0  0  0  0  0  0  0
  127.2940  107.6130  109.6515 H   0  0  0  0  0  0  0  0  0  0  0  0
  115.1945  102.7312  106.2775 H   0  0  0  0  0  0  0  0  0  0  0  0
  116.8309  102.9661  106.8305 H   0  0  0  0  0  0  0  0  0  0  0  0
  121.7913  107.3404  110.0200 H   0  0  0  0  0  0  0  0  0  0  0  0
  1  2  1  0  0  0  0
  1  3  2  0  0  0  0
  2  4  2  0  0  0  0
  3  6  1  0  0  0  0
  4  7  1  0  0  0  0
  5 13  1  0  0  0  0
  5 14  2  0  0  0  0
  6  7  2  0  0  0  0
  6 16  1  0  0  0  0
  7 20  1  0  0  0  0
  8  9  1  0  0  0  0
  8 13  2  0  0  0  0
  8 15  1  0  0  0  0
  9 10  1  0  0  0  0
 10 17  1  0  0  0  0
 11 12  1  0  0  0  0
 11 20  1  0  0  0  0
 12 21  1  0  0  0  0
 14 15  1  0  0  0  0
 17 21  1  0  0  0  0
 18 21  2  0  0  0  0
 19 21  2  0  0  0  0
  1 22  1  0  0  0  0
  2 23  1  0  0  0  0
  3 24  1  0  0  0  0
  4 25  1  0  0  0  0
  5 26  1  0  0  0  0
  9 27  1  0  0  0  0
  9 28  1  0  0  0  0
 10 29  1  0  0  0  0
 10 30  1  0  0  0  0
 11 31  1  0  0  0  0
 11 32  1  0  0  0  0
 12 33  1  0  0  0  0
 12 34  1  0  0  0  0
 15 35  1  0  0  0  0
 16 36  1  0  0  0  0
 16 37  1  0  0  0  0
 17 38  1  0  0  0  0
M  END
> <FRED Chemgauss4 score>
-10.648391

$$$$
C89752394	P140315060
  -OEChem-05122015313D

 35 36  0     1  0  0  0  0  0999 V2000
  120.2233  104.4092  105.6374 C   0  0  0  0  0  0  0  0  0  0  0  0
  118.6838  105.3719  107.2312 C   0  0  0  0  0  0  0  0  0  0  0  0
  119.1532  103.8384  104.9484 C   0  0  0  0  0  0  0  0  0  0  0  0
  117.6136  104.8011  106.5422 C   0  0  0  0  0  0  0  0  0  0  0  0
  119.9886  105.1759  106.7788 C   0  0  0  0  0  0  0  0  0  0  0  0
  117.8484  104.0344  105.4008 C   0  0  0  0  0  0  0  0  0  0  0  0
  126.2265  106.2972  108.5768 C   0  0  0  0  0  0  0  0  0  0  0  0
  125.1769  108.5102  108.0440 C   0  0  0  0  0  0  0  0  0  0  0  0
  125.2900  105.6240  107.6049 C   0  0  0  0  0  0  0  0  0  0  0  0
  124.9101  106.5516  106.4643 C   0  0  0  0  0  0  0  0  0  0  0  0
  124.3228  107.8565  106.9786 C   0  0  1  0  0  0  0  0  0  0  0  0
  121.1369  105.7887  107.5195 C   0  0  0  0  0  0  0  0  0  0  0  0
  126.0675  107.6723  108.7081 N   0  0  0  0  0  0  0  0  0  0  0  0
  116.7660  103.4591  104.7034 N   0  0  0  0  0  0  0  0  0  0  0  0
  123.0097  107.7069  107.5461 N   0  0  0  0  0  0  0  0  0  0  0  0
  127.0292  105.6495  109.2483 O   0  0  0  0  0  0  0  0  0  0  0  0
  125.0193  109.6900  108.3619 O   0  0  0  0  0  0  0  0  0  0  0  0
  122.2672  106.6302  105.3139 O   0  0  0  0  0  0  0  0  0  0  0  0
  120.6939  108.1679  106.5455 O   0  0  0  0  0  0  0  0  0  0  0  0
  121.7346  107.1578  106.5549 S   0  0  0  0  0  0  0  0  0  0  0  0
  121.2366  104.2504  105.2786 H   0  0  0  0  0  0  0  0  0  0  0  0
  118.4914  105.9662  108.1203 H   0  0  0  0  0  0  0  0  0  0  0  0
  119.3473  103.2415  104.0610 H   0  0  0  0  0  0  0  0  0  0  0  0
  116.6010  104.9598  106.9040 H   0  0  0  0  0  0  0  0  0  0  0  0
  125.7825  104.7215  107.2255 H   0  0  0  0  0  0  0  0  0  0  0  0
  124.3872  105.3182  108.1453 H   0  0  0  0  0  0  0  0  0  0  0  0
  125.7974  106.7541  105.8370 H   0  0  0  0  0  0  0  0  0  0  0  0
  124.1846  106.0416  105.8013 H   0  0  0  0  0  0  0  0  0  0  0  0
  124.2543  108.6042  106.1365 H   0  0  0  0  0  0  0  0  0  0  0  0
  121.9606  105.0823  107.6556 H   0  0  0  0  0  0  0  0  0  0  0  0
  120.8363  106.1684  108.5001 H   0  0  0  0  0  0  0  0  0  0  0  0
  126.6776  108.1245  109.3858 H   0  0  0  0  0  0  0  0  0  0  0  0
  116.9431  102.9523  103.8597 H   0  0  0  0  0  0  0  0  0  0  0  0
  115.8329  103.6462  105.0108 H   0  0  0  0  0  0  0  0  0  0  0  0
  122.7802  108.4164  108.2525 H   0  0  0  0  0  0  0  0  0  0  0  0
  1  3  1  0  0  0  0
  1  5  2  0  0  0  0
  2  4  2  0  0  0  0
  2  5  1  0  0  0  0
  3  6  2  0  0  0  0
  4  6  1  0  0  0  0
  5 12  1  0  0  0  0
  6 14  1  0  0  0  0
  7  9  1  0  0  0  0
  7 13  1  0  0  0  0
  7 16  2  0  0  0  0
  8 11  1  0  0  0  0
  8 13  1  0  0  0  0
  8 17  2  0  0  0  0
  9 10  1  0  0  0  0
 10 11  1  0  0  0  0
 11 15  1  0  0  0  0
 12 20  1  0  0  0  0
 15 20  1  0  0  0  0
 18 20  2  0  0  0  0
 19 20  2  0  0  0  0
  1 21  1  0  0  0  0
  2 22  1  0  0  0  0
  3 23  1  0  0  0  0
  4 24  1  0  0  0  0
  9 25  1  0  0  0  0
  9 26  1  0  0  0  0
 10 27  1  0  0  0  0
 10 28  1  0  0  0  0
 11 29  1  0  0  0  0
 12 30  1  0  0  0  0
 12 31  1  0  0  0  0
 13 32  1  0  0  0  0
 14 33  1  0  0  0  0
 14 34  1  0  0  0  0
 15 35  1  0  0  0  0
M  END
> <FRED Chemgauss4 score>
-10.637736

$$$$
C95393957	P149847473
  -OEChem-05122015313D

 52 54  0     1  0  0  0  0  0999 V2000
  123.3952  107.2611  109.5090 C   0  0  0  0  0  0  0  0  0  0  0  0
  123.2260  108.2736  110.4467 C   0  0  0  0  0  0  0  0  0  0  0  0
  124.4180  108.8453  108.0597 C   0  0  0  0  0  0  0  0  0  0  0  0
  124.0017  107.5441  108.2902 C   0  0  0  0  0  0  0  0  0  0  0  0
  123.6772  109.5422  110.1197 C   0  0  0  0  0  0  0  0  0  0  0  0
  120.4745  105.4910  104.3276 C   0  0  0  0  0  0  0  0  0  0  0  0
  121.0087  105.6123  105.5527 C   0  0  0  0  0  0  0  0  0  0  0  0
  122.2094  106.3722  105.7846 C   0  0  0  0  0  0  0  0  0  0  0  0
  120.3475  104.9845  106.7471 C   0  0  0  0  0  0  0  0  0  0  0  0
  118.9181  104.5600  106.4140 C   0  0  0  0  0  0  0  0  0  0  0  0
  123.1565  112.6137  113.0750 C   0  0  0  0  0  0  0  0  0  0  0  0
  124.5334  112.2448  112.5419 C   0  0  0  0  0  0  0  0  0  0  0  0
  122.2333  111.4018  113.0201 C   0  0  0  0  0  0  0  0  0  0  0  0
  124.4597  111.6607  111.1334 C   0  0  0  0  0  0  0  0  0  0  0  0
  118.8769  103.9073  105.0385 C   0  0  0  0  0  0  0  0  0  0  0  0
  122.1451  110.7802  111.6180 C   0  0  1  0  0  0  0  0  0  0  0  0
  124.1963  106.4827  107.2665 C   0  0  0  0  0  0  0  0  0  0  0  0
  121.3212  111.6452  110.6581 C   0  0  0  0  0  0  0  0  0  0  0  0
  119.8346  111.4730  110.8985 C   0  0  0  0  0  0  0  0  0  0  0  0
  124.2709  109.8553  108.9462 N   0  0  0  0  0  0  0  0  0  0  0  0
  123.5001  110.5508  111.0748 N   0  0  1  0  0  0  0  0  0  0  0  0
  122.9517  105.8877  106.8451 N   0  0  0  0  0  0  0  0  0  0  0  0
  122.4858  107.3350  105.0775 O   0  0  0  0  0  0  0  0  0  0  0  0
  119.3468  104.7800  104.0037 O   0  0  0  0  0  0  0  0  0  0  0  0
  119.1336  112.2853  109.9671 O   0  0  0  0  0  0  0  0  0  0  0  0
  123.0518  106.2554  109.7358 H   0  0  0  0  0  0  0  0  0  0  0  0
  122.7533  108.0616  111.4004 H   0  0  0  0  0  0  0  0  0  0  0  0
  124.8973  109.1264  107.1270 H   0  0  0  0  0  0  0  0  0  0  0  0
  120.8973  105.9340  103.4353 H   0  0  0  0  0  0  0  0  0  0  0  0
  120.9144  104.1103  107.0867 H   0  0  0  0  0  0  0  0  0  0  0  0
  120.3381  105.7102  107.5692 H   0  0  0  0  0  0  0  0  0  0  0  0
  118.5758  103.8379  107.1664 H   0  0  0  0  0  0  0  0  0  0  0  0
  118.2463  105.4240  106.4544 H   0  0  0  0  0  0  0  0  0  0  0  0
  123.2432  112.9653  114.1093 H   0  0  0  0  0  0  0  0  0  0  0  0
  122.7367  113.4407  112.4914 H   0  0  0  0  0  0  0  0  0  0  0  0
  125.1817  113.1282  112.5418 H   0  0  0  0  0  0  0  0  0  0  0  0
  124.9948  111.5103  113.2144 H   0  0  0  0  0  0  0  0  0  0  0  0
  122.6152  110.6434  113.7165 H   0  0  0  0  0  0  0  0  0  0  0  0
  121.2350  111.6788  113.3785 H   0  0  0  0  0  0  0  0  0  0  0  0
  124.1742  112.4399  110.4160 H   0  0  0  0  0  0  0  0  0  0  0  0
  125.4609  111.3111  110.8510 H   0  0  0  0  0  0  0  0  0  0  0  0
  119.5140  103.0168  105.0301 H   0  0  0  0  0  0  0  0  0  0  0  0
  117.8591  103.5837  104.7874 H   0  0  0  0  0  0  0  0  0  0  0  0
  121.6377  109.8146  111.7187 H   0  0  0  0  0  0  0  0  0  0  0  0
  124.6898  106.8804  106.3668 H   0  0  0  0  0  0  0  0  0  0  0  0
  124.8348  105.6687  107.6406 H   0  0  0  0  0  0  0  0  0  0  0  0
  121.5714  111.3766  109.6299 H   0  0  0  0  0  0  0  0  0  0  0  0
  121.6058  112.6916  110.7851 H   0  0  0  0  0  0  0  0  0  0  0  0
  119.5285  110.4321  110.7526 H   0  0  0  0  0  0  0  0  0  0  0  0
  119.5591  111.7864  111.9106 H   0  0  0  0  0  0  0  0  0  0  0  0
  122.6051  105.0758  107.3506 H   0  0  0  0  0  0  0  0  0  0  0  0
  118.1868  112.1580  110.1407 H   0  0  0  0  0  0  0  0  0  0  0  0
  1  2  1  0  0  0  0
  1  4  2  0  0  0  0
  2  5  2  0  0  0  0
  3  4  1  0  0  0  0
  3 20  2  0  0  0  0
  4 17  1  0  0  0  0
  5 20  1  0  0  0  0
  5 21  1  0  0  0  0
  6  7  2  0  0  0  0
  6 24  1  0  0  0  0
  7  8  1  0  0  0  0
  7  9  1  0  0  0  0
  8 22  1  0  0  0  0
  8 23  2  0  0  0  0
  9 10  1  0  0  0  0
 10 15  1  0  0  0  0
 11 12  1  0  0  0  0
 11 13  1  0  0  0  0
 12 14  1  0  0  0  0
 13 16  1  0  0  0  0
 14 21  1  0  0  0  0
 15 24  1  0  0  0  0
 16 18  1  0  0  0  0
 16 21  1  0  0  0  0
 17 22  1  0  0  0  0
 18 19  1  0  0  0  0
 19 25  1  0  0  0  0
  1 26  1  0  0  0  0
  2 27  1  0  0  0  0
  3 28  1  0  0  0  0
  6 29  1  0  0  0  0
  9 30  1  0  0  0  0
  9 31  1  0  0  0  0
 10 32  1  0  0  0  0
 10 33  1  0  0  0  0
 11 34  1  0  0  0  0
 11 35  1  0  0  0  0
 12 36  1  0  0  0  0
 12 37  1  0  0  0  0
 13 38  1  0  0  0  0
 13 39  1  0  0  0  0
 14 40  1  0  0  0  0
 14 41  1  0  0  0  0
 15 42  1  0  0  0  0
 15 43  1  0  0  0  0
 16 44  1  0  0  0  0
 17 45  1  0  0  0  0
 17 46  1  0  0  0  0
 18 47  1  0  0  0  0
 18 48  1  0  0  0  0
 19 49  1  0  0  0  0
 19 50  1  0  0  0  0
 22 51  1  0  0  0  0
 25 52  1  0  0  0  0
M  END
> <FRED Chemgauss4 score>
-10.637064

$$$$
C43057664	P118380554
  -OEChem-05122015313D

 46 48  0     1  0  0  0  0  0999 V2000
  124.0375  105.0112  107.4011 C   0  0  0  0  0  0  0  0  0  0  0  0
  125.2500  105.6676  107.7698 C   0  0  0  0  0  0  0  0  0  0  0  0
  123.3488  105.7006  106.4263 C   0  0  0  0  0  0  0  0  0  0  0  0
  125.4313  106.8320  107.0479 C   0  0  0  0  0  0  0  0  0  0  0  0
  122.1077  105.3700  105.8043 C   0  0  0  0  0  0  0  0  0  0  0  0
  117.7001  103.7861  105.9438 C   0  0  0  0  0  0  0  0  0  0  0  0
  126.2490  105.1923  108.7789 C   0  0  0  0  0  0  0  0  0  0  0  0
  126.5857  107.7713  107.2069 C   0  0  0  0  0  0  0  0  0  0  0  0
  127.2176  106.3114  109.1925 C   0  0  0  0  0  0  0  0  0  0  0  0
  127.7316  107.0935  107.9749 C   0  0  0  0  0  0  0  0  0  0  0  0
  115.9353  105.0226  102.9074 C   0  0  0  0  0  0  0  0  0  0  0  0
  115.8514  106.5378  103.0734 C   0  0  0  0  0  0  0  0  0  0  0  0
  114.7936  105.1119  105.0695 C   0  0  0  0  0  0  0  0  0  0  0  0
  115.9231  104.4122  104.3128 C   0  0  2  0  0  0  0  0  0  0  0  0
  119.0446  104.2663  106.4602 C   0  0  0  0  0  0  0  0  0  0  0  0
  120.2112  103.7024  105.6607 C   0  0  0  0  0  0  0  0  0  0  0  0
  121.4585  104.1832  106.2102 N   0  0  0  0  0  0  0  0  0  0  0  0
  117.1924  104.6379  104.9739 N   0  0  0  0  0  0  0  0  0  0  0  0
  121.6076  106.0947  104.9061 O   0  0  0  0  0  0  0  0  0  0  0  0
  117.1503  102.7654  106.3485 O   0  0  0  0  0  0  0  0  0  0  0  0
  113.4487  107.1098  103.9949 O   0  0  0  0  0  0  0  0  0  0  0  0
  115.4687  107.6387  105.4350 O   0  0  0  0  0  0  0  0  0  0  0  0
  124.1606  107.1331  105.9557 S   0  0  0  0  0  0  0  0  0  0  0  0
  114.7789  106.8004  104.4763 S   0  0  0  0  0  0  0  0  0  0  0  0
  123.6918  104.0788  107.8304 H   0  0  0  0  0  0  0  0  0  0  0  0
  125.7377  104.8041  109.6671 H   0  0  0  0  0  0  0  0  0  0  0  0
  126.8185  104.3636  108.3403 H   0  0  0  0  0  0  0  0  0  0  0  0
  126.9532  108.1138  106.2330 H   0  0  0  0  0  0  0  0  0  0  0  0
  126.2499  108.6547  107.7641 H   0  0  0  0  0  0  0  0  0  0  0  0
  126.7085  107.0051  109.8743 H   0  0  0  0  0  0  0  0  0  0  0  0
  128.0605  105.8803  109.7445 H   0  0  0  0  0  0  0  0  0  0  0  0
  128.2640  106.4049  107.3064 H   0  0  0  0  0  0  0  0  0  0  0  0
  128.4553  107.8517  108.2949 H   0  0  0  0  0  0  0  0  0  0  0  0
  115.0548  104.6711  102.3551 H   0  0  0  0  0  0  0  0  0  0  0  0
  116.8237  104.7392  102.3336 H   0  0  0  0  0  0  0  0  0  0  0  0
  116.8297  106.9648  103.3121 H   0  0  0  0  0  0  0  0  0  0  0  0
  115.4354  107.0310  102.1924 H   0  0  0  0  0  0  0  0  0  0  0  0
  113.8259  104.6728  104.8073 H   0  0  0  0  0  0  0  0  0  0  0  0
  114.9232  105.1083  106.1544 H   0  0  0  0  0  0  0  0  0  0  0  0
  115.7738  103.3402  104.2864 H   0  0  0  0  0  0  0  0  0  0  0  0
  119.0577  105.3627  106.4217 H   0  0  0  0  0  0  0  0  0  0  0  0
  119.1347  103.9738  107.5138 H   0  0  0  0  0  0  0  0  0  0  0  0
  120.1387  104.0031  104.6100 H   0  0  0  0  0  0  0  0  0  0  0  0
  120.2023  102.6074  105.6873 H   0  0  0  0  0  0  0  0  0  0  0  0
  121.9216  103.5907  106.8914 H   0  0  0  0  0  0  0  0  0  0  0  0
  117.7349  105.4569  104.7155 H   0  0  0  0  0  0  0  0  0  0  0  0
  1  2  1  0  0  0  0
  1  3  2  0  0  0  0
  2  4  2  0  0  0  0
  2  7  1  0  0  0  0
  3  5  1  0  0  0  0
  3 23  1  0  0  0  0
  4  8  1  0  0  0  0
  4 23  1  0  0  0  0
  5 17  1  0  0  0  0
  5 19  2  0  0  0  0
  6 15  1  0  0  0  0
  6 18  1  0  0  0  0
  6 20  2  0  0  0  0
  7  9  1  0  0  0  0
  8 10  1  0  0  0  0
  9 10  1  0  0  0  0
 11 12  1  0  0  0  0
 11 14  1  0  0  0  0
 12 24  1  0  0  0  0
 13 14  1  0  0  0  0
 13 24  1  0  0  0  0
 14 18  1  0  0  0  0
 15 16  1  0  0  0  0
 16 17  1  0  0  0  0
 21 24  2  0  0  0  0
 22 24  2  0  0  0  0
  1 25  1  0  0  0  0
  7 26  1  0  0  0  0
  7 27  1  0  0  0  0
  8 28  1  0  0  0  0
  8 29  1  0  0  0  0
  9 30  1  0  0  0  0
  9 31  1  0  0  0  0
 10 32  1  0  0  0  0
 10 33  1  0  0  0  0
 11 34  1  0  0  0  0
 11 35  1  0  0  0  0
 12 36  1  0  0  0  0
 12 37  1  0  0  0  0
 13 38  1  0  0  0  0
 13 39  1  0  0  0  0
 14 40  1  0  0  0  0
 15 41  1  0  0  0  0
 15 42  1  0  0  0  0
 16 43  1  0  0  0  0
 16 44  1  0  0  0  0
 17 45  1  0  0  0  0
 18 46  1  0  0  0  0
M  END
> <FRED Chemgauss4 score>
-10.636750

$$$$
C39941818	P60607622
  -OEChem-05122015313D

 56 59  0     1  0  0  0  0  0999 V2000
  120.1654  103.9268  106.6673 C   0  0  0  0  0  0  0  0  0  0  0  0
  124.7101  106.2055  108.1515 C   0  0  0  0  0  0  0  0  0  0  0  0
  118.8059  103.9384  105.9994 C   0  0  0  0  0  0  0  0  0  0  0  0
  115.5034  104.4081  103.0353 C   0  0  0  0  0  0  0  0  0  0  0  0
  116.7749  103.8681  103.7110 C   0  0  0  0  0  0  0  0  0  0  0  0
  118.6561  107.5802  104.7522 C   0  0  0  0  0  0  0  0  0  0  0  0
  123.0029  106.3975  105.8662 C   0  0  0  0  0  0  0  0  0  0  0  0
  115.5084  105.9341  103.2433 C   0  0  0  0  0  0  0  0  0  0  0  0
  117.1506  107.5768  104.3885 C   0  0  0  0  0  0  0  0  0  0  0  0
  121.6007  106.5146  105.2730 C   0  0  0  0  0  0  0  0  0  0  0  0
  122.0827  105.1060  107.8319 C   0  0  0  0  0  0  0  0  0  0  0  0
  120.6483  105.2455  107.2920 C   0  0  1  0  0  0  0  0  0  0  0  0
  118.7880  105.0595  104.9728 C   0  0  1  0  0  0  0  0  0  0  0  0
  117.5740  105.1249  104.0338 C   0  0  2  0  0  0  0  0  0  0  0  0
  119.0425  106.4178  105.6876 C   0  0  1  0  0  0  0  0  0  0  0  0
  123.1423  105.1517  106.7319 C   0  0  2  0  0  0  0  0  0  0  0  0
  116.5090  106.1725  104.3928 C   0  0  2  0  0  0  0  0  0  0  0  0
  120.4725  106.4773  106.3379 C   0  0  2  0  0  0  0  0  0  0  0  0
  126.1007  106.0767  108.6953 C   0  0  0  0  0  0  0  0  0  0  0  0
  115.7654  105.9183  105.7250 C   0  0  0  0  0  0  0  0  0  0  0  0
  120.5616  107.7713  107.1950 C   0  0  0  0  0  0  0  0  0  0  0  0
  120.7931  102.8724  106.7724 O   0  0  0  0  0  0  0  0  0  0  0  0
  123.9495  107.1240  108.4254 O   0  0  0  0  0  0  0  0  0  0  0  0
  124.4392  105.1547  107.3213 O   0  0  0  0  0  0  0  0  0  0  0  0
  118.6619  102.9663  105.5160 H   0  0  0  0  0  0  0  0  0  0  0  0
  118.0340  104.0586  106.7657 H   0  0  0  0  0  0  0  0  0  0  0  0
  115.4885  104.1674  101.9669 H   0  0  0  0  0  0  0  0  0  0  0  0
  114.6141  103.9536  103.4856 H   0  0  0  0  0  0  0  0  0  0  0  0
  116.5035  103.3074  104.6114 H   0  0  0  0  0  0  0  0  0  0  0  0
  117.3256  103.1909  103.0503 H   0  0  0  0  0  0  0  0  0  0  0  0
  119.2436  107.5141  103.8276 H   0  0  0  0  0  0  0  0  0  0  0  0
  118.8893  108.5526  105.1956 H   0  0  0  0  0  0  0  0  0  0  0  0
  123.7436  106.3636  105.0573 H   0  0  0  0  0  0  0  0  0  0  0  0
  123.2563  107.2930  106.4464 H   0  0  0  0  0  0  0  0  0  0  0  0
  115.8522  106.4155  102.3191 H   0  0  0  0  0  0  0  0  0  0  0  0
  114.5049  106.3180  103.4547 H   0  0  0  0  0  0  0  0  0  0  0  0
  116.6162  108.2324  105.0879 H   0  0  0  0  0  0  0  0  0  0  0  0
  117.0438  108.0519  103.4053 H   0  0  0  0  0  0  0  0  0  0  0  0
  121.5420  107.4423  104.6910 H   0  0  0  0  0  0  0  0  0  0  0  0
  121.4852  105.6972  104.5546 H   0  0  0  0  0  0  0  0  0  0  0  0
  122.2866  105.8996  108.5619 H   0  0  0  0  0  0  0  0  0  0  0  0
  122.1963  104.1765  108.4046 H   0  0  0  0  0  0  0  0  0  0  0  0
  119.9904  105.3825  108.1629 H   0  0  0  0  0  0  0  0  0  0  0  0
  119.6318  104.8586  104.3000 H   0  0  0  0  0  0  0  0  0  0  0  0
  118.0000  105.4445  103.0653 H   0  0  0  0  0  0  0  0  0  0  0  0
  118.3573  106.4845  106.5409 H   0  0  0  0  0  0  0  0  0  0  0  0
  123.0711  104.2597  106.0990 H   0  0  0  0  0  0  0  0  0  0  0  0
  126.0829  105.5072  109.6278 H   0  0  0  0  0  0  0  0  0  0  0  0
  126.5288  107.0691  108.8577 H   0  0  0  0  0  0  0  0  0  0  0  0
  126.7247  105.5429  107.9726 H   0  0  0  0  0  0  0  0  0  0  0  0
  116.4523  106.0809  106.5455 H   0  0  0  0  0  0  0  0  0  0  0  0
  115.4080  104.8968  105.7365 H   0  0  0  0  0  0  0  0  0  0  0  0
  114.9316  106.6048  105.7966 H   0  0  0  0  0  0  0  0  0  0  0  0
  119.7765  107.7452  107.9359 H   0  0  0  0  0  0  0  0  0  0  0  0
  120.4368  108.6226  106.5425 H   0  0  0  0  0  0  0  0  0  0  0  0
  121.5301  107.7994  107.6717 H   0  0  0  0  0  0  0  0  0  0  0  0
  1  3  1  0  0  0  0
  1 12  1  0  0  0  0
  1 22  2  0  0  0  0
  2 19  1  0  0  0  0
  2 23  2  0  0  0  0
  2 24  1  0  0  0  0
  3 13  1  0  0  0  0
  4  5  1  0  0  0  0
  4  8  1  0  0  0  0
  5 14  1  0  0  0  0
  6  9  1  0  0  0  0
  6 15  1  0  0  0  0
  7 10  1  0  0  0  0
  7 16  1  0  0  0  0
  8 17  1  0  0  0  0
  9 17  1  0  0  0  0
 10 18  1  0  0  0  0
 11 12  1  0  0  0  0
 11 16  1  0  0  0  0
 12 18  1  0  0  0  0
 13 14  1  0  0  0  0
 13 15  1  0  0  0  0
 14 17  1  0  0  0  0
 15 18  1  0  0  0  0
 16 24  1  0  0  0  0
 17 20  1  0  0  0  0
 18 21  1  0  0  0  0
  3 25  1  0  0  0  0
  3 26  1  0  0  0  0
  4 27  1  0  0  0  0
  4 28  1  0  0  0  0
  5 29  1  0  0  0  0
  5 30  1  0  0  0  0
  6 31  1  0  0  0  0
  6 32  1  0  0  0  0
  7 33  1  0  0  0  0
  7 34  1  0  0  0  0
  8 35  1  0  0  0  0
  8 36  1  0  0  0  0
  9 37  1  0  0  0  0
  9 38  1  0  0  0  0
 10 39  1  0  0  0  0
 10 40  1  0  0  0  0
 11 41  1  0  0  0  0
 11 42  1  0  0  0  0
 12 43  1  0  0  0  0
 13 44  1  0  0  0  0
 14 45  1  0  0  0  0
 15 46  1  0  0  0  0
 16 47  1  0  0  0  0
 19 48  1  0  0  0  0
 19 49  1  0  0  0  0
 19 50  1  0  0  0  0
 20 51  1  0  0  0  0
 20 52  1  0  0  0  0
 20 53  1  0  0  0  0
 21 54  1  0  0  0  0
 21 55  1  0  0  0  0
 21 56  1  0  0  0  0
M  END
> <FRED Chemgauss4 score>
-10.632622

$$$$
C97861463	P155326145
  -OEChem-05122015313D

 42 44  0     1  0  0  0  0  0999 V2000
  118.8005  106.9786  103.7195 C   0  0  0  0  0  0  0  0  0  0  0  0
  120.4645  104.2785  106.4575 C   0  0  0  0  0  0  0  0  0  0  0  0
  119.1563  104.1153  105.9950 C   0  0  0  0  0  0  0  0  0  0  0  0
  117.4984  106.7888  103.2795 C   0  0  0  0  0  0  0  0  0  0  0  0
  120.6883  106.2493  105.1001 C   0  0  0  0  0  0  0  0  0  0  0  0
  119.3724  106.0850  104.6351 C   0  0  0  0  0  0  0  0  0  0  0  0
  121.2317  105.3467  106.0097 C   0  0  0  0  0  0  0  0  0  0  0  0
  118.5876  105.0028  105.0856 C   0  0  0  0  0  0  0  0  0  0  0  0
  116.8090  105.7014  103.7764 C   0  0  0  0  0  0  0  0  0  0  0  0
  126.4571  106.4375  107.7875 C   0  0  0  0  0  0  0  0  0  0  0  0
  125.0907  105.7992  107.5498 C   0  0  0  0  0  0  0  0  0  0  0  0
  126.5014  107.8736  107.2775 C   0  0  0  0  0  0  0  0  0  0  0  0
  124.0113  108.0812  107.6336 C   0  0  0  0  0  0  0  0  0  0  0  0
  123.9588  106.6408  108.1474 C   0  0  1  0  0  0  0  0  0  0  0  0
  125.3792  108.7182  107.8757 C   0  0  2  0  0  0  0  0  0  0  0  0
  115.4059  105.4579  103.3304 C   0  0  0  0  0  0  0  0  0  0  0  0
  122.6379  105.5263  106.5042 C   0  0  0  0  0  0  0  0  0  0  0  0
  117.3238  104.8161  104.6603 N   0  0  0  0  0  0  0  0  0  0  0  0
  122.6752  106.0442  107.8628 N   0  0  0  0  0  0  0  0  0  0  0  0
  125.4173  110.0109  107.2807 O   0  0  0  0  0  0  0  0  0  0  0  0
  119.3675  107.8276  103.3445 H   0  0  0  0  0  0  0  0  0  0  0  0
  120.8724  103.5637  107.1673 H   0  0  0  0  0  0  0  0  0  0  0  0
  118.5760  103.2706  106.3617 H   0  0  0  0  0  0  0  0  0  0  0  0
  117.0491  107.4756  102.5707 H   0  0  0  0  0  0  0  0  0  0  0  0
  121.2907  107.0857  104.7502 H   0  0  0  0  0  0  0  0  0  0  0  0
  126.6850  106.4237  108.8603 H   0  0  0  0  0  0  0  0  0  0  0  0
  127.2328  105.8450  107.2893 H   0  0  0  0  0  0  0  0  0  0  0  0
  124.9395  105.6778  106.4688 H   0  0  0  0  0  0  0  0  0  0  0  0
  125.0822  104.7921  107.9845 H   0  0  0  0  0  0  0  0  0  0  0  0
  127.4718  108.3266  107.5135 H   0  0  0  0  0  0  0  0  0  0  0  0
  126.4288  107.8834  106.1821 H   0  0  0  0  0  0  0  0  0  0  0  0
  123.7818  108.1159  106.5593 H   0  0  0  0  0  0  0  0  0  0  0  0
  123.2362  108.6901  108.1171 H   0  0  0  0  0  0  0  0  0  0  0  0
  124.0883  106.6627  109.2435 H   0  0  0  0  0  0  0  0  0  0  0  0
  125.5484  108.8411  108.9524 H   0  0  0  0  0  0  0  0  0  0  0  0
  115.3948  104.8202  102.4385 H   0  0  0  0  0  0  0  0  0  0  0  0
  114.8181  104.9677  104.1169 H   0  0  0  0  0  0  0  0  0  0  0  0
  114.8955  106.3999  103.0920 H   0  0  0  0  0  0  0  0  0  0  0  0
  123.1763  104.5723  106.4919 H   0  0  0  0  0  0  0  0  0  0  0  0
  123.1933  106.2213  105.8656 H   0  0  0  0  0  0  0  0  0  0  0  0
  122.5117  105.2846  108.5202 H   0  0  0  0  0  0  0  0  0  0  0  0
  124.6954  110.5217  107.6797 H   0  0  0  0  0  0  0  0  0  0  0  0
  1  4  2  0  0  0  0
  1  6  1  0  0  0  0
  2  3  2  0  0  0  0
  2  7  1  0  0  0  0
  3  8  1  0  0  0  0
  4  9  1  0  0  0  0
  5  6  1  0  0  0  0
  5  7  2  0  0  0  0
  6  8  2  0  0  0  0
  7 17  1  0  0  0  0
  8 18  1  0  0  0  0
  9 16  1  0  0  0  0
  9 18  2  0  0  0  0
 10 11  1  0  0  0  0
 10 12  1  0  0  0  0
 11 14  1  0  0  0  0
 12 15  1  0  0  0  0
 13 14  1  0  0  0  0
 13 15  1  0  0  0  0
 14 19  1  0  0  0  0
 15 20  1  0  0  0  0
 17 19  1  0  0  0  0
  1 21  1  0  0  0  0
  2 22  1  0  0  0  0
  3 23  1  0  0  0  0
  4 24  1  0  0  0  0
  5 25  1  0  0  0  0
 10 26  1  0  0  0  0
 10 27  1  0  0  0  0
 11 28  1  0  0  0  0
 11 29  1  0  0  0  0
 12 30  1  0  0  0  0
 12 31  1  0  0  0  0
 13 32  1  0  0  0  0
 13 33  1  0  0  0  0
 14 34  1  0  0  0  0
 15 35  1  0  0  0  0
 16 36  1  0  0  0  0
 16 37  1  0  0  0  0
 16 38  1  0  0  0  0
 17 39  1  0  0  0  0
 17 40  1  0  0  0  0
 19 41  1  0  0  0  0
 20 42  1  0  0  0  0
M  END
> <FRED Chemgauss4 score>
-10.628750

$$$$
C89855498	P140455637
  -OEChem-05122015313D

 37 39  0     0  0  0  0  0  0999 V2000
  122.7573  104.5159  107.7492 C   0  0  0  0  0  0  0  0  0  0  0  0
  121.4783  104.0144  107.5077 C   0  0  0  0  0  0  0  0  0  0  0  0
  122.4462  106.1522  105.9991 C   0  0  0  0  0  0  0  0  0  0  0  0
  121.1673  105.6507  105.7575 C   0  0  0  0  0  0  0  0  0  0  0  0
  123.2413  105.5849  106.9950 C   0  0  0  0  0  0  0  0  0  0  0  0
  120.6833  104.5818  106.5118 C   0  0  0  0  0  0  0  0  0  0  0  0
  116.8643  106.5420  103.2099 C   0  0  0  0  0  0  0  0  0  0  0  0
  117.3558  107.3442  104.1627 C   0  0  0  0  0  0  0  0  0  0  0  0
  125.1750  107.1645  106.5695 C   0  0  0  0  0  0  0  0  0  0  0  0
  115.2984  106.8416  105.1514 C   0  0  0  0  0  0  0  0  0  0  0  0
  120.3726  106.2741  104.7060 C   0  0  0  0  0  0  0  0  0  0  0  0
  126.5837  107.2695  107.1083 C   0  0  0  0  0  0  0  0  0  0  0  0
  126.5041  106.5501  108.4399 C   0  0  0  0  0  0  0  0  0  0  0  0
  125.4494  105.4894  108.2035 C   0  0  0  0  0  0  0  0  0  0  0  0
  118.6736  108.0323  104.1658 C   0  0  0  0  0  0  0  0  0  0  0  0
  116.5047  107.5131  105.2288 N   0  0  0  0  0  0  0  0  0  0  0  0
  124.5493  106.0969  107.2423 N   0  0  0  0  0  0  0  0  0  0  0  0
  119.5384  107.3296  105.0863 N   0  0  0  0  0  0  0  0  0  0  0  0
  124.7604  107.8799  105.6691 O   0  0  0  0  0  0  0  0  0  0  0  0
  114.3825  106.8283  105.9579 O   0  0  0  0  0  0  0  0  0  0  0  0
  120.4363  105.8545  103.5388 O   0  0  0  0  0  0  0  0  0  0  0  0
  115.2801  105.9513  103.6162 S   0  0  0  0  0  0  0  0  0  0  0  0
  119.1062  103.9309  106.2444 Cl  0  0  0  0  0  0  0  0  0  0  0  0
  123.3679  104.0661  108.5281 H   0  0  0  0  0  0  0  0  0  0  0  0
  121.1163  103.1816  108.1051 H   0  0  0  0  0  0  0  0  0  0  0  0
  122.8260  106.9846  105.4101 H   0  0  0  0  0  0  0  0  0  0  0  0
  117.3659  106.2757  102.2903 H   0  0  0  0  0  0  0  0  0  0  0  0
  127.2631  106.7628  106.4158 H   0  0  0  0  0  0  0  0  0  0  0  0
  126.8802  108.3146  107.2261 H   0  0  0  0  0  0  0  0  0  0  0  0
  127.4627  106.1331  108.7608 H   0  0  0  0  0  0  0  0  0  0  0  0
  126.1623  107.2476  109.2148 H   0  0  0  0  0  0  0  0  0  0  0  0
  125.8797  104.5894  107.7503 H   0  0  0  0  0  0  0  0  0  0  0  0
  124.9160  105.2236  109.1212 H   0  0  0  0  0  0  0  0  0  0  0  0
  118.5382  109.0682  104.4862 H   0  0  0  0  0  0  0  0  0  0  0  0
  119.0935  108.0110  103.1571 H   0  0  0  0  0  0  0  0  0  0  0  0
  116.7467  108.0948  106.0236 H   0  0  0  0  0  0  0  0  0  0  0  0
  119.4789  107.5897  106.0654 H   0  0  0  0  0  0  0  0  0  0  0  0
  1  2  1  0  0  0  0
  1  5  2  0  0  0  0
  2  6  2  0  0  0  0
  3  4  2  0  0  0  0
  3  5  1  0  0  0  0
  4  6  1  0  0  0  0
  4 11  1  0  0  0  0
  5 17  1  0  0  0  0
  6 23  1  0  0  0  0
  7  8  2  0  0  0  0
  7 22  1  0  0  0  0
  8 15  1  0  0  0  0
  8 16  1  0  0  0  0
  9 12  1  0  0  0  0
  9 17  1  0  0  0  0
  9 19  2  0  0  0  0
 10 16  1  0  0  0  0
 10 20  2  0  0  0  0
 10 22  1  0  0  0  0
 11 18  1  0  0  0  0
 11 21  2  0  0  0  0
 12 13  1  0  0  0  0
 13 14  1  0  0  0  0
 14 17  1  0  0  0  0
 15 18  1  0  0  0  0
  1 24  1  0  0  0  0
  2 25  1  0  0  0  0
  3 26  1  0  0  0  0
  7 27  1  0  0  0  0
 12 28  1  0  0  0  0
 12 29  1  0  0  0  0
 13 30  1  0  0  0  0
 13 31  1  0  0  0  0
 14 32  1  0  0  0  0
 14 33  1  0  0  0  0
 15 34  1  0  0  0  0
 15 35  1  0  0  0  0
 16 36  1  0  0  0  0
 18 37  1  0  0  0  0
M  END
> <FRED Chemgauss4 score>
-10.619756

$$$$
C00176634	P08554456
  -OEChem-05122015313D

 33 35  0     0  0  0  0  0  0999 V2000
  116.3675  104.5987  103.0274 C   0  0  0  0  0  0  0  0  0  0  0  0
  115.2889  105.2773  103.5946 C   0  0  0  0  0  0  0  0  0  0  0  0
  123.2215  106.9446  108.0337 C   0  0  0  0  0  0  0  0  0  0  0  0
  123.9770  105.1172  106.6455 C   0  0  0  0  0  0  0  0  0  0  0  0
  117.6655  105.0761  103.2093 C   0  0  0  0  0  0  0  0  0  0  0  0
  124.4512  106.9532  108.6918 C   0  0  0  0  0  0  0  0  0  0  0  0
  125.2068  105.1258  107.3036 C   0  0  0  0  0  0  0  0  0  0  0  0
  115.5082  106.4334  104.3436 C   0  0  0  0  0  0  0  0  0  0  0  0
  122.9843  106.0266  107.0106 C   0  0  0  0  0  0  0  0  0  0  0  0
  117.8848  106.2322  103.9583 C   0  0  0  0  0  0  0  0  0  0  0  0
  125.4439  106.0438  108.3268 C   0  0  0  0  0  0  0  0  0  0  0  0
  116.8062  106.9109  104.5255 C   0  0  0  0  0  0  0  0  0  0  0  0
  121.7025  106.0171  106.3234 C   0  0  0  0  0  0  0  0  0  0  0  0
  120.0635  106.2794  105.0837 C   0  0  0  0  0  0  0  0  0  0  0  0
  119.6560  105.3174  106.1289 C   0  0  0  0  0  0  0  0  0  0  0  0
  119.2403  106.6763  104.1122 C   0  0  0  0  0  0  0  0  0  0  0  0
  126.7592  106.0541  109.0300 C   0  0  0  0  0  0  0  0  0  0  0  0
  121.3583  106.6728  105.2713 N   0  0  0  0  0  0  0  0  0  0  0  0
  118.5909  104.7567  106.2862 O   0  0  0  0  0  0  0  0  0  0  0  0
  120.7823  105.2053  106.8912 O   0  0  0  0  0  0  0  0  0  0  0  0
  117.0344  108.4907  105.5563 Br  0  0  0  0  0  0  0  0  0  0  0  0
  116.1965  103.6982  102.4449 H   0  0  0  0  0  0  0  0  0  0  0  0
  114.2785  104.9048  103.4534 H   0  0  0  0  0  0  0  0  0  0  0  0
  122.4547  107.6574  108.3257 H   0  0  0  0  0  0  0  0  0  0  0  0
  123.8033  104.3974  105.8499 H   0  0  0  0  0  0  0  0  0  0  0  0
  118.4941  104.5335  102.7598 H   0  0  0  0  0  0  0  0  0  0  0  0
  124.6275  107.6721  109.4875 H   0  0  0  0  0  0  0  0  0  0  0  0
  125.9748  104.4140  107.0124 H   0  0  0  0  0  0  0  0  0  0  0  0
  114.6550  106.9470  104.7791 H   0  0  0  0  0  0  0  0  0  0  0  0
  119.6345  107.3673  103.3665 H   0  0  0  0  0  0  0  0  0  0  0  0
  126.7332  105.3845  109.8983 H   0  0  0  0  0  0  0  0  0  0  0  0
  127.5694  105.7295  108.3644 H   0  0  0  0  0  0  0  0  0  0  0  0
  127.0178  107.0633  109.3763 H   0  0  0  0  0  0  0  0  0  0  0  0
  1  2  1  0  0  0  0
  1  5  2  0  0  0  0
  2  8  2  0  0  0  0
  3  6  2  0  0  0  0
  3  9  1  0  0  0  0
  4  7  1  0  0  0  0
  4  9  2  0  0  0  0
  5 10  1  0  0  0  0
  6 11  1  0  0  0  0
  7 11  2  0  0  0  0
  8 12  1  0  0  0  0
  9 13  1  0  0  0  0
 10 12  2  0  0  0  0
 10 16  1  0  0  0  0
 11 17  1  0  0  0  0
 12 21  1  0  0  0  0
 13 18  2  0  0  0  0
 13 20  1  0  0  0  0
 14 15  1  0  0  0  0
 14 16  2  0  0  0  0
 14 18  1  0  0  0  0
 15 19  2  0  0  0  0
 15 20  1  0  0  0  0
  1 22  1  0  0  0  0
  2 23  1  0  0  0  0
  3 24  1  0  0  0  0
  4 25  1  0  0  0  0
  5 26  1  0  0  0  0
  6 27  1  0  0  0  0
  7 28  1  0  0  0  0
  8 29  1  0  0  0  0
 16 30  1  0  0  0  0
 17 31  1  0  0  0  0
 17 32  1  0  0  0  0
 17 33  1  0  0  0  0
M  END
> <FRED Chemgauss4 score>
-10.617408

$$$$
C78950515	P123230050
  -OEChem-05122015313D

 35 36  0     0  0  0  0  0  0999 V2000
  117.9177  103.6497  105.9224 C   0  0  0  0  0  0  0  0  0  0  0  0
  119.2553  103.8810  106.2432 C   0  0  0  0  0  0  0  0  0  0  0  0
  124.3738  103.9119  107.3517 C   0  0  0  0  0  0  0  0  0  0  0  0
  117.4522  106.0082  106.1629 C   0  0  0  0  0  0  0  0  0  0  0  0
  123.7267  106.2164  107.1174 C   0  0  0  0  0  0  0  0  0  0  0  0
  125.6037  104.3595  107.8063 C   0  0  0  0  0  0  0  0  0  0  0  0
  117.0161  104.7133  105.8822 C   0  0  0  0  0  0  0  0  0  0  0  0
  123.4229  104.8644  107.0027 C   0  0  0  0  0  0  0  0  0  0  0  0
  119.6913  105.1759  106.5239 C   0  0  0  0  0  0  0  0  0  0  0  0
  118.7898  106.2395  106.4838 C   0  0  0  0  0  0  0  0  0  0  0  0
  124.9855  106.5609  107.5827 C   0  0  0  0  0  0  0  0  0  0  0  0
  125.3570  107.9583  107.7227 C   0  0  0  0  0  0  0  0  0  0  0  0
  115.5863  104.4647  105.5392 C   0  0  0  0  0  0  0  0  0  0  0  0
  122.0736  104.4343  106.5040 C   0  0  0  0  0  0  0  0  0  0  0  0
  125.9352  105.6642  107.9313 N   0  0  0  0  0  0  0  0  0  0  0  0
  124.6194  108.6857  108.5439 N   0  0  0  0  0  0  0  0  0  0  0  0
  126.4340  108.5261  107.0331 N   0  0  0  0  0  0  0  0  0  0  0  0
  121.0530  105.3743  106.8450 N   0  0  0  0  0  0  0  0  0  0  0  0
  125.0575  110.0123  108.6080 O   0  0  0  0  0  0  0  0  0  0  0  0
  119.3301  108.0210  106.8562 Br  0  0  0  0  0  0  0  0  0  0  0  0
  117.5866  102.6374  105.7055 H   0  0  0  0  0  0  0  0  0  0  0  0
  119.9475  103.0432  106.2711 H   0  0  0  0  0  0  0  0  0  0  0  0
  124.1675  102.8499  107.2735 H   0  0  0  0  0  0  0  0  0  0  0  0
  116.7412  106.8310  106.1289 H   0  0  0  0  0  0  0  0  0  0  0  0
  122.9985  106.9759  106.8503 H   0  0  0  0  0  0  0  0  0  0  0  0
  126.3798  103.6568  108.0912 H   0  0  0  0  0  0  0  0  0  0  0  0
  115.0062  104.2573  106.4468 H   0  0  0  0  0  0  0  0  0  0  0  0
  115.1415  105.3309  105.0324 H   0  0  0  0  0  0  0  0  0  0  0  0
  115.4828  103.6103  104.8574 H   0  0  0  0  0  0  0  0  0  0  0  0
  122.0815  104.3256  105.4140 H   0  0  0  0  0  0  0  0  0  0  0  0
  121.7897  103.4643  106.9255 H   0  0  0  0  0  0  0  0  0  0  0  0
  127.0223  107.9792  106.4149 H   0  0  0  0  0  0  0  0  0  0  0  0
  126.6897  109.4996  107.1608 H   0  0  0  0  0  0  0  0  0  0  0  0
  121.2839  106.2174  107.3333 H   0  0  0  0  0  0  0  0  0  0  0  0
  124.4242  110.3962  109.2376 H   0  0  0  0  0  0  0  0  0  0  0  0
  1  2  2  0  0  0  0
  1  7  1  0  0  0  0
  2  9  1  0  0  0  0
  3  6  2  0  0  0  0
  3  8  1  0  0  0  0
  4  7  2  0  0  0  0
  4 10  1  0  0  0  0
  5  8  2  0  0  0  0
  5 11  1  0  0  0  0
  6 15  1  0  0  0  0
  7 13  1  0  0  0  0
  8 14  1  0  0  0  0
  9 10  2  0  0  0  0
  9 18  1  0  0  0  0
 10 20  1  0  0  0  0
 11 12  1  0  0  0  0
 11 15  2  0  0  0  0
 12 16  2  0  0  0  0
 12 17  1  0  0  0  0
 14 18  1  0  0  0  0
 16 19  1  0  0  0  0
  1 21  1  0  0  0  0
  2 22  1  0  0  0  0
  3 23  1  0  0  0  0
  4 24  1  0  0  0  0
  5 25  1  0  0  0  0
  6 26  1  0  0  0  0
 13 27  1  0  0  0  0
 13 28  1  0  0  0  0
 13 29  1  0  0  0  0
 14 30  1  0  0  0  0
 14 31  1  0  0  0  0
 17 32  1  0  0  0  0
 17 33  1  0  0  0  0
 18 34  1  0  0  0  0
 19 35  1  0  0  0  0
M  END
> <FRED Chemgauss4 score>
-10.616129

$$$$
C64858422	P99657934
  -OEChem-05122015313D

 30 31  0     1  0  0  0  0  0999 V2000
  124.1215  106.3460  106.3894 C   0  0  0  0  0  0  0  0  0  0  0  0
  120.9000  105.9866  104.8836 C   0  0  0  0  0  0  0  0  0  0  0  0
  121.9988  104.6595  106.6784 C   0  0  0  0  0  0  0  0  0  0  0  0
  119.9410  104.0331  105.6107 C   0  0  0  0  0  0  0  0  0  0  0  0
  124.0575  105.5175  107.6406 C   0  0  0  0  0  0  0  0  0  0  0  0
  121.8219  106.0022  106.0946 C   0  0  1  0  0  0  0  0  0  0  0  0
  126.6134  107.2934  108.2479 C   0  0  0  0  0  0  0  0  0  0  0  0
  125.4451  106.9566  106.0183 C   0  0  2  0  0  0  0  0  0  0  0  0
  125.9324  107.9597  107.0596 C   0  0  2  0  0  0  0  0  0  0  0  0
  123.0932  106.5841  105.6468 N   0  0  0  0  0  0  0  0  0  0  0  0
  119.8431  105.0984  104.8883 N   0  0  0  0  0  0  0  0  0  0  0  0
  118.9945  103.1098  105.6052 N   0  5  0  0  0  0  0  0  0  0  0  0
  121.0578  103.7558  106.4513 N   0  0  0  0  0  0  0  0  0  0  0  0
  123.0754  104.4599  107.4292 N   0  3  0  0  0  0  0  0  0  0  0  0
  121.0523  106.7992  103.9715 O   0  0  0  0  0  0  0  0  0  0  0  0
  125.2446  107.6170  104.7804 O   0  0  0  0  0  0  0  0  0  0  0  0
  126.8385  108.8802  106.4530 O   0  0  0  0  0  0  0  0  0  0  0  0
  125.0291  105.0593  107.8430 H   0  0  0  0  0  0  0  0  0  0  0  0
  123.7559  106.1372  108.4893 H   0  0  0  0  0  0  0  0  0  0  0  0
  121.3579  106.6685  106.8330 H   0  0  0  0  0  0  0  0  0  0  0  0
  127.4727  106.7030  107.9113 H   0  0  0  0  0  0  0  0  0  0  0  0
  125.9253  106.6296  108.7798 H   0  0  0  0  0  0  0  0  0  0  0  0
  127.0046  108.0359  108.9516 H   0  0  0  0  0  0  0  0  0  0  0  0
  126.1743  106.1552  105.8773 H   0  0  0  0  0  0  0  0  0  0  0  0
  125.0753  108.5465  107.4105 H   0  0  0  0  0  0  0  0  0  0  0  0
  118.2472  103.4008  106.2417 H   0  0  0  0  0  0  0  0  0  0  0  0
  121.1488  102.8575  106.9167 H   0  0  0  0  0  0  0  0  0  0  0  0
  123.1896  103.5436  107.8520 H   0  0  0  0  0  0  0  0  0  0  0  0
  126.0948  108.0161  104.5302 H   0  0  0  0  0  0  0  0  0  0  0  0
  127.0655  109.5311  107.1343 H   0  0  0  0  0  0  0  0  0  0  0  0
  1  5  1  0  0  0  0
  1  8  1  0  0  0  0
  1 10  2  0  0  0  0
  2  6  1  0  0  0  0
  2 11  1  0  0  0  0
  2 15  2  0  0  0  0
  3  6  1  0  0  0  0
  3 13  1  0  0  0  0
  3 14  2  0  0  0  0
  4 11  2  0  0  0  0
  4 12  1  0  0  0  0
  4 13  1  0  0  0  0
  5 14  1  0  0  0  0
  6 10  1  0  0  0  0
  7  9  1  0  0  0  0
  8  9  1  0  0  0  0
  8 16  1  0  0  0  0
  9 17  1  0  0  0  0
  5 18  1  0  0  0  0
  5 19  1  0  0  0  0
  6 20  1  0  0  0  0
  7 21  1  0  0  0  0
  7 22  1  0  0  0  0
  7 23  1  0  0  0  0
  8 24  1  0  0  0  0
  9 25  1  0  0  0  0
 12 26  1  0  0  0  0
 13 27  1  0  0  0  0
 14 28  1  0  0  0  0
 16 29  1  0  0  0  0
 17 30  1  0  0  0  0
M  CHG  2  12  -1  14   1
M  END
> <FRED Chemgauss4 score>
-10.612483

$$$$
C92783308	P145270525
  -OEChem-05122015313D

 37 39  0     1  0  0  0  0  0999 V2000
  127.5176  106.9717  107.4528 C   0  0  0  0  0  0  0  0  0  0  0  0
  117.5211  103.3864  103.9014 C   0  0  0  0  0  0  0  0  0  0  0  0
  125.4846  106.8075  106.8841 C   0  0  0  0  0  0  0  0  0  0  0  0
  125.4704  107.1121  108.2233 C   0  0  0  0  0  0  0  0  0  0  0  0
  117.4245  105.4563  104.1525 C   0  0  0  0  0  0  0  0  0  0  0  0
  121.7634  106.5029  106.3946 C   0  0  0  0  0  0  0  0  0  0  0  0
  124.2380  106.5905  106.1161 C   0  0  0  0  0  0  0  0  0  0  0  0
  124.2610  107.3035  109.0512 C   0  0  0  0  0  0  0  0  0  0  0  0
  123.0226  107.1038  106.9343 C   0  0  2  0  0  0  0  0  0  0  0  0
  117.6684  106.9443  104.1302 C   0  0  0  0  0  0  0  0  0  0  0  0
  119.0480  107.3556  104.6616 C   0  0  0  0  0  0  0  0  0  0  0  0
  119.3297  106.9164  106.0972 C   0  0  0  0  0  0  0  0  0  0  0  0
  126.7596  106.7149  106.4043 N   0  0  0  0  0  0  0  0  0  0  0  0
  118.1762  104.5419  103.5849 N   0  0  0  0  0  0  0  0  0  0  0  0
  116.3723  104.8614  104.7759 N   0  0  0  0  0  0  0  0  0  0  0  0
  126.7786  107.2204  108.5836 N   0  0  0  0  0  0  0  0  0  0  0  0
  116.4113  103.5283  104.6292 N   0  0  0  0  0  0  0  0  0  0  0  0
  123.0842  106.7263  108.3630 N   0  0  0  0  0  0  0  0  0  0  0  0
  120.6472  107.3027  106.5488 N   0  0  0  0  0  0  0  0  0  0  0  0
  121.7980  105.3943  105.8736 O   0  0  0  0  0  0  0  0  0  0  0  0
  128.5981  106.9943  107.4639 H   0  0  0  0  0  0  0  0  0  0  0  0
  117.8781  102.4157  103.5830 H   0  0  0  0  0  0  0  0  0  0  0  0
  124.2856  107.1147  105.1549 H   0  0  0  0  0  0  0  0  0  0  0  0
  124.1360  105.5202  105.8982 H   0  0  0  0  0  0  0  0  0  0  0  0
  124.3745  106.8232  110.0288 H   0  0  0  0  0  0  0  0  0  0  0  0
  124.0893  108.3717  109.2251 H   0  0  0  0  0  0  0  0  0  0  0  0
  122.9344  108.1889  106.8474 H   0  0  0  0  0  0  0  0  0  0  0  0
  116.8792  107.4649  104.6863 H   0  0  0  0  0  0  0  0  0  0  0  0
  117.5703  107.2900  103.0928 H   0  0  0  0  0  0  0  0  0  0  0  0
  119.1237  108.4489  104.6029 H   0  0  0  0  0  0  0  0  0  0  0  0
  119.8330  106.9513  104.0109 H   0  0  0  0  0  0  0  0  0  0  0  0
  119.2771  105.8253  106.1683 H   0  0  0  0  0  0  0  0  0  0  0  0
  118.5992  107.3324  106.7972 H   0  0  0  0  0  0  0  0  0  0  0  0
  127.1413  107.4428  109.5014 H   0  0  0  0  0  0  0  0  0  0  0  0
  115.7111  102.9061  105.0234 H   0  0  0  0  0  0  0  0  0  0  0  0
  123.1406  105.7088  108.4306 H   0  0  0  0  0  0  0  0  0  0  0  0
  120.7579  108.2052  107.0012 H   0  0  0  0  0  0  0  0  0  0  0  0
  1 13  2  0  0  0  0
  1 16  1  0  0  0  0
  2 14  2  0  0  0  0
  2 17  1  0  0  0  0
  3  4  2  0  0  0  0
  3  7  1  0  0  0  0
  3 13  1  0  0  0  0
  4  8  1  0  0  0  0
  4 16  1  0  0  0  0
  5 10  1  0  0  0  0
  5 14  1  0  0  0  0
  5 15  2  0  0  0  0
  6  9  1  0  0  0  0
  6 19  1  0  0  0  0
  6 20  2  0  0  0  0
  7  9  1  0  0  0  0
  8 18  1  0  0  0  0
  9 18  1  0  0  0  0
 10 11  1  0  0  0  0
 11 12  1  0  0  0  0
 12 19  1  0  0  0  0
 15 17  1  0  0  0  0
  1 21  1  0  0  0  0
  2 22  1  0  0  0  0
  7 23  1  0  0  0  0
  7 24  1  0  0  0  0
  8 25  1  0  0  0  0
  8 26  1  0  0  0  0
  9 27  1  0  0  0  0
 10 28  1  0  0  0  0
 10 29  1  0  0  0  0
 11 30  1  0  0  0  0
 11 31  1  0  0  0  0
 12 32  1  0  0  0  0
 12 33  1  0  0  0  0
 16 34  1  0  0  0  0
 17 35  1  0  0  0  0
 18 36  1  0  0  0  0
 19 37  1  0  0  0  0
M  END
> <FRED Chemgauss4 score>
-10.610479

$$$$
C93779559	P146920627
  -OEChem-05122015313D

 43 44  0     1  0  0  0  0  0999 V2000
  124.9276  105.5187  107.9890 C   0  0  0  0  0  0  0  0  0  0  0  0
  126.7126  106.6264  107.4270 C   0  0  0  0  0  0  0  0  0  0  0  0
  120.5841  106.6809  104.9165 C   0  0  0  0  0  0  0  0  0  0  0  0
  120.7191  107.4354  107.9265 C   0  0  0  0  0  0  0  0  0  0  0  0
  121.8007  106.4643  108.3970 C   0  0  0  0  0  0  0  0  0  0  0  0
  119.5801  106.7103  107.2066 C   0  0  0  0  0  0  0  0  0  0  0  0
  121.2021  104.8727  106.5192 C   0  0  0  0  0  0  0  0  0  0  0  0
  122.3347  105.6251  107.2335 C   0  0  2  0  0  0  0  0  0  0  0  0
  120.0785  105.8156  106.0683 C   0  0  2  0  0  0  0  0  0  0  0  0
  120.0898  104.2681  103.5933 C   0  0  0  0  0  0  0  0  0  0  0  0
  118.0795  103.0044  104.4510 C   0  0  0  0  0  0  0  0  0  0  0  0
  125.7784  105.1409  105.6197 C   0  0  0  0  0  0  0  0  0  0  0  0
  119.3302  103.7864  104.8188 C   0  0  0  0  0  0  0  0  0  0  0  0
  125.1981  106.1888  109.0685 N   0  0  0  0  0  0  0  0  0  0  0  0
  126.3179  106.8961  108.7450 N   0  0  0  0  0  0  0  0  0  0  0  0
  125.7840  105.7199  106.9531 N   0  0  0  0  0  0  0  0  0  0  0  0
  118.9276  104.9688  105.6170 N   0  3  0  0  0  0  0  0  0  0  0  0
  119.7174  106.9872  104.0515 O   0  5  0  0  0  0  0  0  0  0  0  0
  127.6761  107.1049  106.8464 O   0  0  0  0  0  0  0  0  0  0  0  0
  121.8096  106.9803  104.9773 O   0  0  0  0  0  0  0  0  0  0  0  0
  123.5781  104.4353  107.8435 S   0  0  0  0  0  0  0  0  0  0  0  0
  120.3170  107.9805  108.7882 H   0  0  0  0  0  0  0  0  0  0  0  0
  121.1640  108.1844  107.2603 H   0  0  0  0  0  0  0  0  0  0  0  0
  122.6133  107.0372  108.8607 H   0  0  0  0  0  0  0  0  0  0  0  0
  121.3775  105.8163  109.1761 H   0  0  0  0  0  0  0  0  0  0  0  0
  119.0393  106.1044  107.9463 H   0  0  0  0  0  0  0  0  0  0  0  0
  118.8651  107.4545  106.8331 H   0  0  0  0  0  0  0  0  0  0  0  0
  121.6067  104.3286  105.6547 H   0  0  0  0  0  0  0  0  0  0  0  0
  120.7844  104.1159  107.1988 H   0  0  0  0  0  0  0  0  0  0  0  0
  122.8468  106.2805  106.5193 H   0  0  0  0  0  0  0  0  0  0  0  0
  119.4391  104.8678  102.9482 H   0  0  0  0  0  0  0  0  0  0  0  0
  120.9513  104.8858  103.8706 H   0  0  0  0  0  0  0  0  0  0  0  0
  120.4582  103.4223  103.0025 H   0  0  0  0  0  0  0  0  0  0  0  0
  117.4268  103.6030  103.8068 H   0  0  0  0  0  0  0  0  0  0  0  0
  117.5063  102.7201  105.3403 H   0  0  0  0  0  0  0  0  0  0  0  0
  118.3353  102.0882  103.9079 H   0  0  0  0  0  0  0  0  0  0  0  0
  125.1913  105.7655  104.9414 H   0  0  0  0  0  0  0  0  0  0  0  0
  125.3399  104.1396  105.6443 H   0  0  0  0  0  0  0  0  0  0  0  0
  126.7992  105.0671  105.2354 H   0  0  0  0  0  0  0  0  0  0  0  0
  119.9818  103.1870  105.4628 H   0  0  0  0  0  0  0  0  0  0  0  0
  126.7521  107.5130  109.4196 H   0  0  0  0  0  0  0  0  0  0  0  0
  118.4030  104.6646  106.4441 H   0  0  0  0  0  0  0  0  0  0  0  0
  118.2880  105.5540  105.0690 H   0  0  0  0  0  0  0  0  0  0  0  0
  1 14  2  0  0  0  0
  1 16  1  0  0  0  0
  1 21  1  0  0  0  0
  2 15  1  0  0  0  0
  2 16  1  0  0  0  0
  2 19  2  0  0  0  0
  3  9  1  0  0  0  0
  3 18  1  0  0  0  0
  3 20  2  0  0  0  0
  4  5  1  0  0  0  0
  4  6  1  0  0  0  0
  5  8  1  0  0  0  0
  6  9  1  0  0  0  0
  7  8  1  0  0  0  0
  7  9  1  0  0  0  0
  8 21  1  0  0  0  0
  9 17  1  0  0  0  0
 10 13  1  0  0  0  0
 11 13  1  0  0  0  0
 12 16  1  0  0  0  0
 13 17  1  0  0  0  0
 14 15  1  0  0  0  0
  4 22  1  0  0  0  0
  4 23  1  0  0  0  0
  5 24  1  0  0  0  0
  5 25  1  0  0  0  0
  6 26  1  0  0  0  0
  6 27  1  0  0  0  0
  7 28  1  0  0  0  0
  7 29  1  0  0  0  0
  8 30  1  0  0  0  0
 10 31  1  0  0  0  0
 10 32  1  0  0  0  0
 10 33  1  0  0  0  0
 11 34  1  0  0  0  0
 11 35  1  0  0  0  0
 11 36  1  0  0  0  0
 12 37  1  0  0  0  0
 12 38  1  0  0  0  0
 12 39  1  0  0  0  0
 13 40  1  0  0  0  0
 15 41  1  0  0  0  0
 17 42  1  0  0  0  0
 17 43  1  0  0  0  0
M  CHG  2  17   1  18  -1
M  END
> <FRED Chemgauss4 score>
-10.606433

$$$$
C57315525	P86042858
  -OEChem-05122015313D

 44 46  0     1  0  0  0  0  0999 V2000
  117.7770  107.8126  105.0580 C   0  0  0  0  0  0  0  0  0  0  0  0
  117.1795  108.2956  103.9134 C   0  0  0  0  0  0  0  0  0  0  0  0
  126.0072  108.4402  108.3055 C   0  0  0  0  0  0  0  0  0  0  0  0
  117.4085  106.4587  105.3311 C   0  0  0  0  0  0  0  0  0  0  0  0
  116.5484  105.9762  104.3647 C   0  0  0  0  0  0  0  0  0  0  0  0
  124.7387  108.4145  108.8463 C   0  0  0  0  0  0  0  0  0  0  0  0
  124.7129  106.4600  107.8517 C   0  0  0  0  0  0  0  0  0  0  0  0
  123.0061  105.2427  106.4980 C   0  0  0  0  0  0  0  0  0  0  0  0
  119.9048  103.4642  106.3924 C   0  0  0  0  0  0  0  0  0  0  0  0
  116.0204  104.5807  104.3367 C   0  0  0  0  0  0  0  0  0  0  0  0
  116.2860  103.8950  105.6897 C   0  0  0  0  0  0  0  0  0  0  0  0
  117.8599  105.6247  106.5048 C   0  0  1  0  0  0  0  0  0  0  0  0
  124.1276  109.4821  109.6625 C   0  0  0  0  0  0  0  0  0  0  0  0
  117.1654  106.0628  107.8003 C   0  0  0  0  0  0  0  0  0  0  0  0
  124.2401  105.1157  107.3660 C   0  0  0  0  0  0  0  0  0  0  0  0
  118.6903  103.5562  105.4969 C   0  0  0  0  0  0  0  0  0  0  0  0
  123.9949  107.2799  108.5867 N   0  0  0  0  0  0  0  0  0  0  0  0
  117.6148  104.1771  106.2714 N   0  0  2  0  0  0  0  0  0  0  0  0
  122.1650  104.1525  106.6017 N   0  0  0  0  0  0  0  0  0  0  0  0
  120.9944  104.1456  105.8854 N   0  0  0  0  0  0  0  0  0  0  0  0
  122.8005  106.2374  105.8046 O   0  0  0  0  0  0  0  0  0  0  0  0
  119.8863  102.8460  107.4558 O   0  0  0  0  0  0  0  0  0  0  0  0
  116.1831  107.1216  103.1640 S   0  0  0  0  0  0  0  0  0  0  0  0
  126.2916  106.9894  107.4364 S   0  0  0  0  0  0  0  0  0  0  0  0
  118.4433  108.4090  105.6655 H   0  0  0  0  0  0  0  0  0  0  0  0
  117.2861  109.2799  103.4789 H   0  0  0  0  0  0  0  0  0  0  0  0
  126.7584  109.2142  108.3757 H   0  0  0  0  0  0  0  0  0  0  0  0
  114.9394  104.6066  104.1383 H   0  0  0  0  0  0  0  0  0  0  0  0
  116.4898  103.9951  103.5350 H   0  0  0  0  0  0  0  0  0  0  0  0
  115.4855  104.2285  106.3855 H   0  0  0  0  0  0  0  0  0  0  0  0
  116.1424  102.7948  105.5878 H   0  0  0  0  0  0  0  0  0  0  0  0
  118.9496  105.7937  106.6197 H   0  0  0  0  0  0  0  0  0  0  0  0
  123.5910  110.2077  109.0298 H   0  0  0  0  0  0  0  0  0  0  0  0
  123.4083  109.0810  110.3967 H   0  0  0  0  0  0  0  0  0  0  0  0
  124.8806  110.0385  110.2464 H   0  0  0  0  0  0  0  0  0  0  0  0
  116.0958  105.9041  107.7057 H   0  0  0  0  0  0  0  0  0  0  0  0
  117.3635  107.1154  107.9757 H   0  0  0  0  0  0  0  0  0  0  0  0
  117.5490  105.4765  108.6294 H   0  0  0  0  0  0  0  0  0  0  0  0
  125.0196  104.6227  106.7723 H   0  0  0  0  0  0  0  0  0  0  0  0
  124.0565  104.4584  108.2244 H   0  0  0  0  0  0  0  0  0  0  0  0
  118.4084  102.5425  105.1958 H   0  0  0  0  0  0  0  0  0  0  0  0
  118.8925  104.1396  104.5936 H   0  0  0  0  0  0  0  0  0  0  0  0
  122.4085  103.3688  107.1982 H   0  0  0  0  0  0  0  0  0  0  0  0
  120.9955  104.6469  105.0034 H   0  0  0  0  0  0  0  0  0  0  0  0
  1  2  2  0  0  0  0
  1  4  1  0  0  0  0
  2 23  1  0  0  0  0
  3  6  2  0  0  0  0
  3 24  1  0  0  0  0
  4  5  2  0  0  0  0
  4 12  1  0  0  0  0
  5 10  1  0  0  0  0
  5 23  1  0  0  0  0
  6 13  1  0  0  0  0
  6 17  1  0  0  0  0
  7 15  1  0  0  0  0
  7 17  2  0  0  0  0
  7 24  1  0  0  0  0
  8 15  1  0  0  0  0
  8 19  1  0  0  0  0
  8 21  2  0  0  0  0
  9 16  1  0  0  0  0
  9 20  1  0  0  0  0
  9 22  2  0  0  0  0
 10 11  1  0  0  0  0
 11 18  1  0  0  0  0
 12 14  1  0  0  0  0
 12 18  1  0  0  0  0
 16 18  1  0  0  0  0
 19 20  1  0  0  0  0
  1 25  1  0  0  0  0
  2 26  1  0  0  0  0
  3 27  1  0  0  0  0
 10 28  1  0  0  0  0
 10 29  1  0  0  0  0
 11 30  1  0  0  0  0
 11 31  1  0  0  0  0
 12 32  1  0  0  0  0
 13 33  1  0  0  0  0
 13 34  1  0  0  0  0
 13 35  1  0  0  0  0
 14 36  1  0  0  0  0
 14 37  1  0  0  0  0
 14 38  1  0  0  0  0
 15 39  1  0  0  0  0
 15 40  1  0  0  0  0
 16 41  1  0  0  0  0
 16 42  1  0  0  0  0
 19 43  1  0  0  0  0
 20 44  1  0  0  0  0
M  END
> <FRED Chemgauss4 score>
-10.599249

$$$$
C42613227	P89359521
  -OEChem-05122015313D

 39 39  0     0  0  0  0  0  0999 V2000
  115.1324  107.0551  104.3676 C   0  0  0  0  0  0  0  0  0  0  0  0
  113.9388  106.9259  104.4067 C   0  0  0  0  0  0  0  0  0  0  0  0
  117.2065  108.3692  103.9883 C   0  0  0  0  0  0  0  0  0  0  0  0
  118.6222  108.2136  104.0294 C   0  0  0  0  0  0  0  0  0  0  0  0
  116.5482  107.2063  104.3224 C   0  0  0  0  0  0  0  0  0  0  0  0
  118.9920  106.9374  104.3937 C   0  0  0  0  0  0  0  0  0  0  0  0
  120.3436  106.3775  104.5518 C   0  0  0  0  0  0  0  0  0  0  0  0
  123.0613  105.3140  106.1263 C   0  0  0  0  0  0  0  0  0  0  0  0
  125.9789  103.4838  107.4408 C   0  0  0  0  0  0  0  0  0  0  0  0
  125.3077  105.6876  108.4599 C   0  0  0  0  0  0  0  0  0  0  0  0
  120.1589  106.4493  107.0084 C   0  0  0  0  0  0  0  0  0  0  0  0
  112.4857  106.7697  104.4514 C   0  0  0  0  0  0  0  0  0  0  0  0
  121.6619  104.7676  106.0026 C   0  0  0  0  0  0  0  0  0  0  0  0
  125.2353  104.7947  107.2299 C   0  0  0  0  0  0  0  0  0  0  0  0
  112.0794  106.0488  105.6251 N   0  0  0  0  0  0  0  0  0  0  0  0
  123.8485  104.5106  106.9387 N   0  0  0  0  0  0  0  0  0  0  0  0
  120.7165  105.8745  105.7968 N   0  0  0  0  0  0  0  0  0  0  0  0
  121.0556  106.3821  103.5483 O   0  0  0  0  0  0  0  0  0  0  0  0
  123.4375  106.3412  105.5678 O   0  0  0  0  0  0  0  0  0  0  0  0
  117.6354  105.9336  104.6838 S   0  0  0  0  0  0  0  0  0  0  0  0
  116.7064  109.2935  103.7256 H   0  0  0  0  0  0  0  0  0  0  0  0
  119.3287  109.0023  103.8034 H   0  0  0  0  0  0  0  0  0  0  0  0
  125.5705  102.9372  108.2970 H   0  0  0  0  0  0  0  0  0  0  0  0
  125.9088  102.8377  106.5584 H   0  0  0  0  0  0  0  0  0  0  0  0
  127.0422  103.6664  107.6310 H   0  0  0  0  0  0  0  0  0  0  0  0
  124.8876  105.1786  109.3344 H   0  0  0  0  0  0  0  0  0  0  0  0
  124.7443  106.6133  108.3034 H   0  0  0  0  0  0  0  0  0  0  0  0
  126.3428  105.9546  108.7005 H   0  0  0  0  0  0  0  0  0  0  0  0
  119.2389  105.9270  107.2831 H   0  0  0  0  0  0  0  0  0  0  0  0
  119.9304  107.5074  106.8543 H   0  0  0  0  0  0  0  0  0  0  0  0
  120.8728  106.3613  107.8317 H   0  0  0  0  0  0  0  0  0  0  0  0
  112.1259  106.2130  103.5811 H   0  0  0  0  0  0  0  0  0  0  0  0
  111.9837  107.7412  104.4721 H   0  0  0  0  0  0  0  0  0  0  0  0
  121.6073  104.0841  105.1501 H   0  0  0  0  0  0  0  0  0  0  0  0
  121.3918  104.2296  106.9160 H   0  0  0  0  0  0  0  0  0  0  0  0
  125.6601  105.3235  106.3697 H   0  0  0  0  0  0  0  0  0  0  0  0
  112.6422  105.2774  105.9498 H   0  0  0  0  0  0  0  0  0  0  0  0
  111.1480  106.1828  105.9884 H   0  0  0  0  0  0  0  0  0  0  0  0
  123.4291  103.6815  107.3494 H   0  0  0  0  0  0  0  0  0  0  0  0
  1  2  3  0  0  0  0
  1  5  1  0  0  0  0
  2 12  1  0  0  0  0
  3  4  1  0  0  0  0
  3  5  2  0  0  0  0
  4  6  2  0  0  0  0
  5 20  1  0  0  0  0
  6  7  1  0  0  0  0
  6 20  1  0  0  0  0
  7 17  1  0  0  0  0
  7 18  2  0  0  0  0
  8 13  1  0  0  0  0
  8 16  1  0  0  0  0
  8 19  2  0  0  0  0
  9 14  1  0  0  0  0
 10 14  1  0  0  0  0
 11 17  1  0  0  0  0
 12 15  1  0  0  0  0
 13 17  1  0  0  0  0
 14 16  1  0  0  0  0
  3 21  1  0  0  0  0
  4 22  1  0  0  0  0
  9 23  1  0  0  0  0
  9 24  1  0  0  0  0
  9 25  1  0  0  0  0
 10 26  1  0  0  0  0
 10 27  1  0  0  0  0
 10 28  1  0  0  0  0
 11 29  1  0  0  0  0
 11 30  1  0  0  0  0
 11 31  1  0  0  0  0
 12 32  1  0  0  0  0
 12 33  1  0  0  0  0
 13 34  1  0  0  0  0
 13 35  1  0  0  0  0
 14 36  1  0  0  0  0
 15 37  1  0  0  0  0
 15 38  1  0  0  0  0
 16 39  1  0  0  0  0
M  END
> <FRED Chemgauss4 score>
-10.597836

$$$$
C90952384	P142286690
  -OEChem-05122015313D

 35 36  0     0  0  0  0  0  0999 V2000
  118.1913  103.4778  106.2798 C   0  0  0  0  0  0  0  0  0  0  0  0
  117.7164  104.3562  105.3060 C   0  0  0  0  0  0  0  0  0  0  0  0
  119.4982  103.6001  106.7519 C   0  0  0  0  0  0  0  0  0  0  0  0
  119.8553  105.4793  105.2761 C   0  0  0  0  0  0  0  0  0  0  0  0
  124.1986  104.5070  107.9327 C   0  0  0  0  0  0  0  0  0  0  0  0
  118.5484  105.3570  104.8041 C   0  0  0  0  0  0  0  0  0  0  0  0
  120.3302  104.6008  106.2500 C   0  0  0  0  0  0  0  0  0  0  0  0
  123.9273  105.4932  107.0075 C   0  0  0  0  0  0  0  0  0  0  0  0
  126.0187  106.0022  107.4283 C   0  0  0  0  0  0  0  0  0  0  0  0
  118.0520  106.2721  103.7888 C   0  0  0  0  0  0  0  0  0  0  0  0
  122.6221  105.6585  106.3452 C   0  0  0  0  0  0  0  0  0  0  0  0
  117.0057  105.7576  102.8432 C   0  0  0  0  0  0  0  0  0  0  0  0
  127.3272  106.6905  107.3835 C   0  0  0  0  0  0  0  0  0  0  0  0
  127.2311  108.1978  107.0898 C   0  0  0  0  0  0  0  0  0  0  0  0
  124.9697  106.3518  106.7173 N   0  0  0  0  0  0  0  0  0  0  0  0
  126.4729  108.8987  108.0911 N   0  0  0  0  0  0  0  0  0  0  0  0
  121.6373  104.7232  106.7225 N   0  0  0  0  0  0  0  0  0  0  0  0
  118.4285  107.4370  103.6426 O   0  0  0  0  0  0  0  0  0  0  0  0
  122.4465  106.5368  105.5034 O   0  0  0  0  0  0  0  0  0  0  0  0
  125.8223  104.6498  108.4663 S   0  0  0  0  0  0  0  0  0  0  0  0
  117.5435  102.6987  106.6710 H   0  0  0  0  0  0  0  0  0  0  0  0
  116.6967  104.2505  104.9451 H   0  0  0  0  0  0  0  0  0  0  0  0
  119.8580  102.9096  107.5107 H   0  0  0  0  0  0  0  0  0  0  0  0
  120.5048  106.2593  104.8838 H   0  0  0  0  0  0  0  0  0  0  0  0
  123.5466  103.7323  108.3110 H   0  0  0  0  0  0  0  0  0  0  0  0
  115.9727  105.9129  103.1926 H   0  0  0  0  0  0  0  0  0  0  0  0
  117.1190  104.6869  102.6129 H   0  0  0  0  0  0  0  0  0  0  0  0
  117.0268  106.2554  101.8574 H   0  0  0  0  0  0  0  0  0  0  0  0
  127.9689  106.2320  106.6065 H   0  0  0  0  0  0  0  0  0  0  0  0
  127.8879  106.5476  108.3284 H   0  0  0  0  0  0  0  0  0  0  0  0
  128.2249  108.6562  107.0681 H   0  0  0  0  0  0  0  0  0  0  0  0
  126.7499  108.3801  106.1233 H   0  0  0  0  0  0  0  0  0  0  0  0
  126.0203  109.7652  107.8473 H   0  0  0  0  0  0  0  0  0  0  0  0
  126.5700  108.6307  109.0575 H   0  0  0  0  0  0  0  0  0  0  0  0
  121.9184  104.0434  107.4383 H   0  0  0  0  0  0  0  0  0  0  0  0
  1  2  2  0  0  0  0
  1  3  1  0  0  0  0
  2  6  1  0  0  0  0
  3  7  2  0  0  0  0
  4  6  2  0  0  0  0
  4  7  1  0  0  0  0
  5  8  2  0  0  0  0
  5 20  1  0  0  0  0
  6 10  1  0  0  0  0
  7 17  1  0  0  0  0
  8 11  1  0  0  0  0
  8 15  1  0  0  0  0
  9 13  1  0  0  0  0
  9 15  2  0  0  0  0
  9 20  1  0  0  0  0
 10 12  1  0  0  0  0
 10 18  2  0  0  0  0
 11 17  1  0  0  0  0
 11 19  2  0  0  0  0
 13 14  1  0  0  0  0
 14 16  1  0  0  0  0
  1 21  1  0  0  0  0
  2 22  1  0  0  0  0
  3 23  1  0  0  0  0
  4 24  1  0  0  0  0
  5 25  1  0  0  0  0
 12 26  1  0  0  0  0
 12 27  1  0  0  0  0
 12 28  1  0  0  0  0
 13 29  1  0  0  0  0
 13 30  1  0  0  0  0
 14 31  1  0  0  0  0
 14 32  1  0  0  0  0
 16 33  1  0  0  0  0
 16 34  1  0  0  0  0
 17 35  1  0  0  0  0
M  END
> <FRED Chemgauss4 score>
-10.585939

$$$$
C48877286	P73025058
  -OEChem-05122015313D

 37 38  0     1  0  0  0  0  0999 V2000
  117.7977  103.8330  104.9801 C   0  0  0  0  0  0  0  0  0  0  0  0
  119.0714  103.5761  105.4874 C   0  0  0  0  0  0  0  0  0  0  0  0
  117.0867  104.9520  105.4141 C   0  0  0  0  0  0  0  0  0  0  0  0
  118.9232  105.5570  106.8626 C   0  0  0  0  0  0  0  0  0  0  0  0
  123.7123  104.2549  107.9336 C   0  0  0  0  0  0  0  0  0  0  0  0
  125.7387  105.5359  108.2332 C   0  0  0  0  0  0  0  0  0  0  0  0
  124.0301  106.3159  106.7136 C   0  0  0  0  0  0  0  0  0  0  0  0
  119.6341  104.4381  106.4286 C   0  0  0  0  0  0  0  0  0  0  0  0
  124.9573  104.4219  108.5400 C   0  0  0  0  0  0  0  0  0  0  0  0
  123.2487  105.2019  107.0204 C   0  0  0  0  0  0  0  0  0  0  0  0
  125.2751  106.4829  107.3200 C   0  0  0  0  0  0  0  0  0  0  0  0
  117.6495  105.8139  106.3553 C   0  0  0  0  0  0  0  0  0  0  0  0
  121.6909  105.7450  105.1661 C   0  0  0  0  0  0  0  0  0  0  0  0
  120.9956  104.1620  106.9714 C   0  0  0  0  0  0  0  0  0  0  0  0
  125.4261  103.4644  109.4634 N   0  0  0  0  0  0  0  0  0  0  0  0
  125.7120  108.9892  108.1152 N   0  0  0  0  0  0  0  0  0  0  0  0
  121.9962  105.0339  106.4102 N   0  0  3  0  0  0  0  0  0  0  0  0
  127.6464  107.5492  107.2040 O   0  0  0  0  0  0  0  0  0  0  0  0
  125.8655  108.3661  105.6202 O   0  0  0  0  0  0  0  0  0  0  0  0
  126.2532  107.8774  106.9360 S   0  0  0  0  0  0  0  0  0  0  0  0
  116.7715  107.1936  106.8912 Cl  0  0  0  0  0  0  0  0  0  0  0  0
  117.3597  103.1615  104.2473 H   0  0  0  0  0  0  0  0  0  0  0  0
  119.6180  102.7018  105.1436 H   0  0  0  0  0  0  0  0  0  0  0  0
  116.0949  105.1396  105.0103 H   0  0  0  0  0  0  0  0  0  0  0  0
  119.3666  106.2263  107.5963 H   0  0  0  0  0  0  0  0  0  0  0  0
  123.1028  103.3861  108.1729 H   0  0  0  0  0  0  0  0  0  0  0  0
  126.7095  105.6662  108.7061 H   0  0  0  0  0  0  0  0  0  0  0  0
  123.6686  107.0543  106.0015 H   0  0  0  0  0  0  0  0  0  0  0  0
  120.6793  105.5003  104.8320 H   0  0  0  0  0  0  0  0  0  0  0  0
  122.3988  105.4586  104.3836 H   0  0  0  0  0  0  0  0  0  0  0  0
  121.7586  106.8251  105.3217 H   0  0  0  0  0  0  0  0  0  0  0  0
  121.0204  104.2906  108.0626 H   0  0  0  0  0  0  0  0  0  0  0  0
  121.3092  103.1292  106.7667 H   0  0  0  0  0  0  0  0  0  0  0  0
  124.8367  102.6954  109.7104 H   0  0  0  0  0  0  0  0  0  0  0  0
  126.2988  103.6198  109.9262 H   0  0  0  0  0  0  0  0  0  0  0  0
  126.3493  109.2219  108.8866 H   0  0  0  0  0  0  0  0  0  0  0  0
  125.1319  109.7778  107.8038 H   0  0  0  0  0  0  0  0  0  0  0  0
  1  2  2  0  0  0  0
  1  3  1  0  0  0  0
  2  8  1  0  0  0  0
  3 12  2  0  0  0  0
  4  8  2  0  0  0  0
  4 12  1  0  0  0  0
  5  9  2  0  0  0  0
  5 10  1  0  0  0  0
  6  9  1  0  0  0  0
  6 11  2  0  0  0  0
  7 10  2  0  0  0  0
  7 11  1  0  0  0  0
  8 14  1  0  0  0  0
  9 15  1  0  0  0  0
 10 17  1  0  0  0  0
 11 20  1  0  0  0  0
 12 21  1  0  0  0  0
 13 17  1  0  0  0  0
 14 17  1  0  0  0  0
 16 20  1  0  0  0  0
 18 20  2  0  0  0  0
 19 20  2  0  0  0  0
  1 22  1  0  0  0  0
  2 23  1  0  0  0  0
  3 24  1  0  0  0  0
  4 25  1  0  0  0  0
  5 26  1  0  0  0  0
  6 27  1  0  0  0  0
  7 28  1  0  0  0  0
 13 29  1  0  0  0  0
 13 30  1  0  0  0  0
 13 31  1  0  0  0  0
 14 32  1  0  0  0  0
 14 33  1  0  0  0  0
 15 34  1  0  0  0  0
 15 35  1  0  0  0  0
 16 36  1  0  0  0  0
 16 37  1  0  0  0  0
M  END
> <FRED Chemgauss4 score>
-10.584598

$$$$
C67725038	P103995721
  -OEChem-05122015313D

 47 48  0     1  0  0  0  0  0999 V2000
  122.6641  104.6135  106.2133 C   0  0  0  0  0  0  0  0  0  0  0  0
  122.0210  105.3739  105.2184 C   0  0  0  0  0  0  0  0  0  0  0  0
  123.5488  105.4880  106.7957 C   0  0  0  0  0  0  0  0  0  0  0  0
  120.9732  104.9269  104.2891 C   0  0  0  0  0  0  0  0  0  0  0  0
  117.9450  105.1201  103.3292 C   0  0  0  0  0  0  0  0  0  0  0  0
  117.7355  103.3031  104.9829 C   0  0  0  0  0  0  0  0  0  0  0  0
  119.4658  104.3447  106.2620 C   0  0  0  0  0  0  0  0  0  0  0  0
  118.6892  103.9856  104.0083 C   0  0  2  0  0  0  0  0  0  0  0  0
  117.9686  104.0618  106.2916 C   0  0  2  0  0  0  0  0  0  0  0  0
  125.7275  106.2821  107.7838 C   0  0  0  0  0  0  0  0  0  0  0  0
  125.0343  103.8713  108.0341 C   0  0  0  0  0  0  0  0  0  0  0  0
  118.1627  108.7296  104.0146 C   0  0  0  0  0  0  0  0  0  0  0  0
  115.9297  107.5651  104.0747 C   0  0  0  0  0  0  0  0  0  0  0  0
  124.5168  105.3234  107.8920 C   0  0  0  0  0  0  0  0  0  0  0  0
  117.3567  107.5261  103.5478 C   0  0  0  0  0  0  0  0  0  0  0  0
  122.4596  106.6346  105.1688 N   0  0  0  0  0  0  0  0  0  0  0  0
  123.3877  106.6730  106.1400 N   0  0  0  0  0  0  0  0  0  0  0  0
  119.7892  104.4592  104.8403 N   0  0  0  0  0  0  0  0  0  0  0  0
  117.5635  103.3242  107.4524 N   0  0  0  0  0  0  0  0  0  0  0  0
  117.9959  106.3176  104.0169 N   0  0  0  0  0  0  0  0  0  0  0  0
  121.2138  105.0106  103.0865 O   0  0  0  0  0  0  0  0  0  0  0  0
  117.3737  104.9160  102.2645 O   0  0  0  0  0  0  0  0  0  0  0  0
  122.5095  103.5760  106.4733 H   0  0  0  0  0  0  0  0  0  0  0  0
  116.6899  103.4237  104.6790 H   0  0  0  0  0  0  0  0  0  0  0  0
  117.9260  102.2299  105.0627 H   0  0  0  0  0  0  0  0  0  0  0  0
  119.6875  105.3160  106.7218 H   0  0  0  0  0  0  0  0  0  0  0  0
  120.0673  103.5790  106.7645 H   0  0  0  0  0  0  0  0  0  0  0  0
  119.0716  103.2842  103.2427 H   0  0  0  0  0  0  0  0  0  0  0  0
  117.3982  105.0351  106.2755 H   0  0  0  0  0  0  0  0  0  0  0  0
  126.2702  106.1333  106.8439 H   0  0  0  0  0  0  0  0  0  0  0  0
  126.4395  106.1417  108.6044 H   0  0  0  0  0  0  0  0  0  0  0  0
  125.3858  107.3229  107.8107 H   0  0  0  0  0  0  0  0  0  0  0  0
  125.5175  103.5522  107.1039 H   0  0  0  0  0  0  0  0  0  0  0  0
  124.2257  103.1648  108.2512 H   0  0  0  0  0  0  0  0  0  0  0  0
  125.7724  103.7888  108.8394 H   0  0  0  0  0  0  0  0  0  0  0  0
  118.1923  108.7787  105.1080 H   0  0  0  0  0  0  0  0  0  0  0  0
  119.1940  108.6874  103.6468 H   0  0  0  0  0  0  0  0  0  0  0  0
  117.7196  109.6609  103.6452 H   0  0  0  0  0  0  0  0  0  0  0  0
  115.9208  107.5944  105.1698 H   0  0  0  0  0  0  0  0  0  0  0  0
  115.3716  106.6791  103.7548 H   0  0  0  0  0  0  0  0  0  0  0  0
  115.3951  108.4525  103.7175 H   0  0  0  0  0  0  0  0  0  0  0  0
  124.0464  105.5603  108.8730 H   0  0  0  0  0  0  0  0  0  0  0  0
  117.3407  107.4972  102.4529 H   0  0  0  0  0  0  0  0  0  0  0  0
  123.8752  107.5457  106.3013 H   0  0  0  0  0  0  0  0  0  0  0  0
  116.7318  102.7800  107.3925 H   0  0  0  0  0  0  0  0  0  0  0  0
  118.0032  103.5405  108.3193 H   0  0  0  0  0  0  0  0  0  0  0  0
  118.5069  106.3501  104.8939 H   0  0  0  0  0  0  0  0  0  0  0  0
  1  2  1  0  0  0  0
  1  3  2  0  0  0  0
  2  4  1  0  0  0  0
  2 16  2  0  0  0  0
  3 14  1  0  0  0  0
  3 17  1  0  0  0  0
  4 18  1  0  0  0  0
  4 21  2  0  0  0  0
  5  8  1  0  0  0  0
  5 20  1  0  0  0  0
  5 22  2  0  0  0  0
  6  8  1  0  0  0  0
  6  9  1  0  0  0  0
  7  9  1  0  0  0  0
  7 18  1  0  0  0  0
  8 18  1  0  0  0  0
  9 19  1  0  0  0  0
 10 14  1  0  0  0  0
 11 14  1  0  0  0  0
 12 15  1  0  0  0  0
 13 15  1  0  0  0  0
 15 20  1  0  0  0  0
 16 17  1  0  0  0  0
  1 23  1  0  0  0  0
  6 24  1  0  0  0  0
  6 25  1  0  0  0  0
  7 26  1  0  0  0  0
  7 27  1  0  0  0  0
  8 28  1  0  0  0  0
  9 29  1  0  0  0  0
 10 30  1  0  0  0  0
 10 31  1  0  0  0  0
 10 32  1  0  0  0  0
 11 33  1  0  0  0  0
 11 34  1  0  0  0  0
 11 35  1  0  0  0  0
 12 36  1  0  0  0  0
 12 37  1  0  0  0  0
 12 38  1  0  0  0  0
 13 39  1  0  0  0  0
 13 40  1  0  0  0  0
 13 41  1  0  0  0  0
 14 42  1  0  0  0  0
 15 43  1  0  0  0  0
 17 44  1  0  0  0  0
 19 45  1  0  0  0  0
 19 46  1  0  0  0  0
 20 47  1  0  0  0  0
M  END
> <FRED Chemgauss4 score>
-10.582401

$$$$
C94090296	P147458364
  -OEChem-05122015313D

 43 45  0     1  0  0  0  0  0999 V2000
  124.0232  107.3728  106.3363 C   0  0  0  0  0  0  0  0  0  0  0  0
  124.9914  108.3124  106.6986 C   0  0  0  0  0  0  0  0  0  0  0  0
  126.3321  106.5869  107.7647 C   0  0  0  0  0  0  0  0  0  0  0  0
  124.2123  106.0505  106.7081 C   0  0  0  0  0  0  0  0  0  0  0  0
  125.3608  105.6642  107.4126 C   0  0  0  0  0  0  0  0  0  0  0  0
  126.1371  107.9224  107.4085 C   0  0  0  0  0  0  0  0  0  0  0  0
  125.3766  104.1863  107.6464 C   0  0  0  0  0  0  0  0  0  0  0  0
  123.8994  103.8349  107.4221 C   0  0  0  0  0  0  0  0  0  0  0  0
  117.5020  103.3572  105.1570 C   0  0  0  0  0  0  0  0  0  0  0  0
  117.4954  104.4811  104.1269 C   0  0  0  0  0  0  0  0  0  0  0  0
  118.9325  102.9863  105.5362 C   0  0  0  0  0  0  0  0  0  0  0  0
  118.3656  105.6417  104.5902 C   0  0  0  0  0  0  0  0  0  0  0  0
  123.3541  104.8563  106.4059 C   0  0  1  0  0  0  0  0  0  0  0  0
  119.7259  104.2332  105.9338 C   0  0  1  0  0  0  0  0  0  0  0  0
  121.6512  105.4668  107.9576 C   0  0  0  0  0  0  0  0  0  0  0  0
  121.1844  103.8909  106.2050 C   0  0  0  0  0  0  0  0  0  0  0  0
  127.0986  108.8913  107.7693 N   0  0  0  0  0  0  0  0  0  0  0  0
  121.9465  105.0839  106.5764 N   0  0  2  0  0  0  0  0  0  0  0  0
  119.6918  105.1981  104.8767 O   0  0  0  0  0  0  0  0  0  0  0  0
  123.1433  107.6775  105.7779 H   0  0  0  0  0  0  0  0  0  0  0  0
  124.8441  109.3554  106.4271 H   0  0  0  0  0  0  0  0  0  0  0  0
  127.2205  106.2734  108.3045 H   0  0  0  0  0  0  0  0  0  0  0  0
  126.0238  103.6586  106.9396 H   0  0  0  0  0  0  0  0  0  0  0  0
  125.6876  103.9692  108.6738 H   0  0  0  0  0  0  0  0  0  0  0  0
  123.8364  102.8300  106.9804 H   0  0  0  0  0  0  0  0  0  0  0  0
  123.3325  103.8003  108.3585 H   0  0  0  0  0  0  0  0  0  0  0  0
  116.9594  103.6808  106.0536 H   0  0  0  0  0  0  0  0  0  0  0  0
  116.9774  102.4805  104.7615 H   0  0  0  0  0  0  0  0  0  0  0  0
  117.8918  104.0909  103.1814 H   0  0  0  0  0  0  0  0  0  0  0  0
  116.4715  104.8221  103.9416 H   0  0  0  0  0  0  0  0  0  0  0  0
  118.9267  102.2555  106.3525 H   0  0  0  0  0  0  0  0  0  0  0  0
  119.4064  102.5085  104.6691 H   0  0  0  0  0  0  0  0  0  0  0  0
  118.4300  106.3968  103.8004 H   0  0  0  0  0  0  0  0  0  0  0  0
  117.9436  106.1270  105.4781 H   0  0  0  0  0  0  0  0  0  0  0  0
  123.5555  104.4866  105.3761 H   0  0  0  0  0  0  0  0  0  0  0  0
  119.3092  104.6825  106.8414 H   0  0  0  0  0  0  0  0  0  0  0  0
  120.5785  105.6381  108.0789 H   0  0  0  0  0  0  0  0  0  0  0  0
  122.1858  106.3844  108.2179 H   0  0  0  0  0  0  0  0  0  0  0  0
  121.9609  104.6741  108.6440 H   0  0  0  0  0  0  0  0  0  0  0  0
  121.6498  103.4619  105.3126 H   0  0  0  0  0  0  0  0  0  0  0  0
  121.2682  103.1729  107.0261 H   0  0  0  0  0  0  0  0  0  0  0  0
  126.9716  109.8366  107.4717 H   0  0  0  0  0  0  0  0  0  0  0  0
  127.9336  108.5981  108.2331 H   0  0  0  0  0  0  0  0  0  0  0  0
  1  2  1  0  0  0  0
  1  4  2  0  0  0  0
  2  6  2  0  0  0  0
  3  5  2  0  0  0  0
  3  6  1  0  0  0  0
  4  5  1  0  0  0  0
  4 13  1  0  0  0  0
  5  7  1  0  0  0  0
  6 17  1  0  0  0  0
  7  8  1  0  0  0  0
  8 13  1  0  0  0  0
  9 10  1  0  0  0  0
  9 11  1  0  0  0  0
 10 12  1  0  0  0  0
 11 14  1  0  0  0  0
 12 19  1  0  0  0  0
 13 18  1  0  0  0  0
 14 16  1  0  0  0  0
 14 19  1  0  0  0  0
 15 18  1  0  0  0  0
 16 18  1  0  0  0  0
  1 20  1  0  0  0  0
  2 21  1  0  0  0  0
  3 22  1  0  0  0  0
  7 23  1  0  0  0  0
  7 24  1  0  0  0  0
  8 25  1  0  0  0  0
  8 26  1  0  0  0  0
  9 27  1  0  0  0  0
  9 28  1  0  0  0  0
 10 29  1  0  0  0  0
 10 30  1  0  0  0  0
 11 31  1  0  0  0  0
 11 32  1  0  0  0  0
 12 33  1  0  0  0  0
 12 34  1  0  0  0  0
 13 35  1  0  0  0  0
 14 36  1  0  0  0  0
 15 37  1  0  0  0  0
 15 38  1  0  0  0  0
 15 39  1  0  0  0  0
 16 40  1  0  0  0  0
 16 41  1  0  0  0  0
 17 42  1  0  0  0  0
 17 43  1  0  0  0  0
M  END
> <FRED Chemgauss4 score>
-10.577057

$$$$
C79095671	P123477401
  -OEChem-05122015313D

 31 32  0     0  0  0  0  0  0999 V2000
  121.1262  106.7295  105.7287 C   0  0  0  0  0  0  0  0  0  0  0  0
  121.0258  104.3620  106.1996 C   0  0  0  0  0  0  0  0  0  0  0  0
  119.7391  106.7597  105.5847 C   0  0  0  0  0  0  0  0  0  0  0  0
  119.6387  104.3922  106.0556 C   0  0  0  0  0  0  0  0  0  0  0  0
  121.7695  105.5306  106.0361 C   0  0  0  0  0  0  0  0  0  0  0  0
  118.9954  105.5911  105.7482 C   0  0  0  0  0  0  0  0  0  0  0  0
  124.4692  107.3163  109.1331 C   0  0  0  0  0  0  0  0  0  0  0  0
  125.8969  107.3839  107.3642 C   0  0  0  0  0  0  0  0  0  0  0  0
  123.2468  105.4985  106.1898 C   0  0  0  0  0  0  0  0  0  0  0  0
  124.4624  108.7484  108.6466 C   0  0  0  0  0  0  0  0  0  0  0  0
  125.5934  105.1725  108.5013 C   0  0  0  0  0  0  0  0  0  0  0  0
  125.1588  104.3634  107.2908 C   0  0  0  0  0  0  0  0  0  0  0  0
  125.3832  108.6701  107.5470 N   0  0  0  0  0  0  0  0  0  0  0  0
  125.3261  106.5875  108.3379 N   0  0  0  0  0  0  0  0  0  0  0  0
  123.7535  104.5079  107.0227 N   0  0  0  0  0  0  0  0  0  0  0  0
  123.8067  106.9162  110.0811 O   0  0  0  0  0  0  0  0  0  0  0  0
  126.6971  107.0537  106.4987 O   0  0  0  0  0  0  0  0  0  0  0  0
  123.9291  106.3371  105.6070 O   0  0  0  0  0  0  0  0  0  0  0  0
  116.9294  105.6364  105.5338 I   0  0  0  0  0  0  0  0  0  0  0  0
  121.6962  107.6459  105.5990 H   0  0  0  0  0  0  0  0  0  0  0  0
  121.5169  103.4224  106.4393 H   0  0  0  0  0  0  0  0  0  0  0  0
  119.2578  107.7045  105.3450 H   0  0  0  0  0  0  0  0  0  0  0  0
  119.0781  103.4701  106.1872 H   0  0  0  0  0  0  0  0  0  0  0  0
  123.4769  109.0419  108.2817 H   0  0  0  0  0  0  0  0  0  0  0  0
  124.8503  109.4305  109.4048 H   0  0  0  0  0  0  0  0  0  0  0  0
  126.6657  105.0620  108.6915 H   0  0  0  0  0  0  0  0  0  0  0  0
  125.0461  104.8429  109.3900 H   0  0  0  0  0  0  0  0  0  0  0  0
  125.6928  104.7016  106.3975 H   0  0  0  0  0  0  0  0  0  0  0  0
  125.3588  103.2964  107.4317 H   0  0  0  0  0  0  0  0  0  0  0  0
  125.6337  109.4636  106.9655 H   0  0  0  0  0  0  0  0  0  0  0  0
  123.1153  103.8894  107.5194 H   0  0  0  0  0  0  0  0  0  0  0  0
  1  3  1  0  0  0  0
  1  5  2  0  0  0  0
  2  4  2  0  0  0  0
  2  5  1  0  0  0  0
  3  6  2  0  0  0  0
  4  6  1  0  0  0  0
  5  9  1  0  0  0  0
  6 19  1  0  0  0  0
  7 10  1  0  0  0  0
  7 14  1  0  0  0  0
  7 16  2  0  0  0  0
  8 13  1  0  0  0  0
  8 14  1  0  0  0  0
  8 17  2  0  0  0  0
  9 15  1  0  0  0  0
  9 18  2  0  0  0  0
 10 13  1  0  0  0  0
 11 12  1  0  0  0  0
 11 14  1  0  0  0  0
 12 15  1  0  0  0  0
  1 20  1  0  0  0  0
  2 21  1  0  0  0  0
  3 22  1  0  0  0  0
  4 23  1  0  0  0  0
 10 24  1  0  0  0  0
 10 25  1  0  0  0  0
 11 26  1  0  0  0  0
 11 27  1  0  0  0  0
 12 28  1  0  0  0  0
 12 29  1  0  0  0  0
 13 30  1  0  0  0  0
 15 31  1  0  0  0  0
M  END
> <FRED Chemgauss4 score>
-10.574558

$$$$
C40319776	P61205905
  -OEChem-05122015313D

 40 41  0     1  0  0  0  0  0999 V2000
  124.2339  104.7570  106.6189 C   0  0  0  0  0  0  0  0  0  0  0  0
  123.8496  106.8497  107.7633 C   0  0  0  0  0  0  0  0  0  0  0  0
  125.4520  105.2692  108.6415 C   0  0  0  0  0  0  0  0  0  0  0  0
  123.5716  105.9814  106.7077 C   0  0  0  0  0  0  0  0  0  0  0  0
  125.1740  104.4009  107.5858 C   0  0  0  0  0  0  0  0  0  0  0  0
  124.7899  106.4937  108.7302 C   0  0  0  0  0  0  0  0  0  0  0  0
  122.5802  106.3566  105.6885 C   0  0  0  0  0  0  0  0  0  0  0  0
  119.6085  106.9543  104.8927 C   0  0  0  0  0  0  0  0  0  0  0  0
  121.2006  104.3142  106.2975 C   0  0  0  0  0  0  0  0  0  0  0  0
  119.7282  104.0699  106.5919 C   0  0  0  0  0  0  0  0  0  0  0  0
  119.7581  104.6677  103.8708 C   0  0  0  0  0  0  0  0  0  0  0  0
  120.5289  105.8619  104.4245 C   0  0  2  0  0  0  0  0  0  0  0  0
  116.5670  107.7209  104.7316 C   0  0  0  0  0  0  0  0  0  0  0  0
  117.8340  108.3469  104.1889 C   0  0  0  0  0  0  0  0  0  0  0  0
  121.4548  105.5337  105.5124 N   0  0  0  0  0  0  0  0  0  0  0  0
  125.8436  103.1625  107.4962 N   0  0  0  0  0  0  0  0  0  0  0  0
  125.0711  107.3719  109.7977 N   0  0  0  0  0  0  0  0  0  0  0  0
  122.8189  107.3803  105.0481 O   0  0  0  0  0  0  0  0  0  0  0  0
  119.6299  107.4326  106.0187 O   0  0  0  0  0  0  0  0  0  0  0  0
  118.7701  107.3100  103.8781 O   0  0  0  0  0  0  0  0  0  0  0  0
  118.7364  103.7896  105.0959 S   0  0  0  0  0  0  0  0  0  0  0  0
  124.0169  104.0796  105.7958 H   0  0  0  0  0  0  0  0  0  0  0  0
  123.3332  107.8047  107.8326 H   0  0  0  0  0  0  0  0  0  0  0  0
  126.1854  104.9914  109.3957 H   0  0  0  0  0  0  0  0  0  0  0  0
  121.7878  104.3819  107.2260 H   0  0  0  0  0  0  0  0  0  0  0  0
  121.5954  103.4418  105.7579 H   0  0  0  0  0  0  0  0  0  0  0  0
  119.6025  103.2026  107.2670 H   0  0  0  0  0  0  0  0  0  0  0  0
  119.3056  104.9408  107.1251 H   0  0  0  0  0  0  0  0  0  0  0  0
  119.0995  104.9811  103.0514 H   0  0  0  0  0  0  0  0  0  0  0  0
  120.4613  103.9353  103.4538 H   0  0  0  0  0  0  0  0  0  0  0  0
  121.0764  106.3016  103.5790 H   0  0  0  0  0  0  0  0  0  0  0  0
  116.1149  107.0524  103.9937 H   0  0  0  0  0  0  0  0  0  0  0  0
  116.7775  107.1512  105.6427 H   0  0  0  0  0  0  0  0  0  0  0  0
  115.8394  108.4938  105.0006 H   0  0  0  0  0  0  0  0  0  0  0  0
  118.2810  109.0142  104.9318 H   0  0  0  0  0  0  0  0  0  0  0  0
  117.6220  108.9150  103.2782 H   0  0  0  0  0  0  0  0  0  0  0  0
  125.6012  102.5291  106.7615 H   0  0  0  0  0  0  0  0  0  0  0  0
  126.4801  102.8990  108.2209 H   0  0  0  0  0  0  0  0  0  0  0  0
  124.6247  108.2661  109.8240 H   0  0  0  0  0  0  0  0  0  0  0  0
  125.7808  107.1254  110.4575 H   0  0  0  0  0  0  0  0  0  0  0  0
  1  4  1  0  0  0  0
  1  5  2  0  0  0  0
  2  4  2  0  0  0  0
  2  6  1  0  0  0  0
  3  5  1  0  0  0  0
  3  6  2  0  0  0  0
  4  7  1  0  0  0  0
  5 16  1  0  0  0  0
  6 17  1  0  0  0  0
  7 15  1  0  0  0  0
  7 18  2  0  0  0  0
  8 12  1  0  0  0  0
  8 19  2  0  0  0  0
  8 20  1  0  0  0  0
  9 10  1  0  0  0  0
  9 15  1  0  0  0  0
 10 21  1  0  0  0  0
 11 12  1  0  0  0  0
 11 21  1  0  0  0  0
 12 15  1  0  0  0  0
 13 14  1  0  0  0  0
 14 20  1  0  0  0  0
  1 22  1  0  0  0  0
  2 23  1  0  0  0  0
  3 24  1  0  0  0  0
  9 25  1  0  0  0  0
  9 26  1  0  0  0  0
 10 27  1  0  0  0  0
 10 28  1  0  0  0  0
 11 29  1  0  0  0  0
 11 30  1  0  0  0  0
 12 31  1  0  0  0  0
 13 32  1  0  0  0  0
 13 33  1  0  0  0  0
 13 34  1  0  0  0  0
 14 35  1  0  0  0  0
 14 36  1  0  0  0  0
 16 37  1  0  0  0  0
 16 38  1  0  0  0  0
 17 39  1  0  0  0  0
 17 40  1  0  0  0  0
M  END
> <FRED Chemgauss4 score>
-10.563931

$$$$
C97760673	P155145279
  -OEChem-05122015313D

 40 42  0     1  0  0  0  0  0999 V2000
  119.4233  104.2317  105.9090 C   0  0  0  0  0  0  0  0  0  0  0  0
  118.2163  103.8053  105.3518 C   0  0  0  0  0  0  0  0  0  0  0  0
  119.1049  106.4667  104.9963 C   0  0  0  0  0  0  0  0  0  0  0  0
  125.2904  107.3089  106.1757 C   0  0  0  0  0  0  0  0  0  0  0  0
  125.7297  106.2297  106.9056 C   0  0  0  0  0  0  0  0  0  0  0  0
  117.9169  106.0284  104.4412 C   0  0  0  0  0  0  0  0  0  0  0  0
  119.8656  105.5534  105.7314 C   0  0  0  0  0  0  0  0  0  0  0  0
  117.4876  104.7216  104.6188 C   0  0  0  0  0  0  0  0  0  0  0  0
  123.6992  105.8964  106.1164 C   0  0  0  0  0  0  0  0  0  0  0  0
  116.8961  106.7809  103.6802 C   0  0  0  0  0  0  0  0  0  0  0  0
  116.0671  105.6046  103.1623 C   0  0  0  0  0  0  0  0  0  0  0  0
  125.5022  103.0124  106.7078 C   0  0  0  0  0  0  0  0  0  0  0  0
  122.3933  105.1826  105.8512 C   0  0  0  0  0  0  0  0  0  0  0  0
  124.6877  104.0321  107.4853 C   0  0  0  0  0  0  0  0  0  0  0  0
  121.1561  105.9879  106.3423 C   0  0  2  0  0  0  0  0  0  0  0  0
  124.0257  107.0954  105.6874 N   0  0  0  0  0  0  0  0  0  0  0  0
  124.6995  105.3332  106.8590 N   0  0  0  0  0  0  0  0  0  0  0  0
  120.4545  107.1138  108.2681 N   0  0  0  0  0  0  0  0  0  0  0  0
  121.1090  105.9352  107.8195 N   0  0  0  0  0  0  0  0  0  0  0  0
  116.2825  104.4578  104.0189 O   0  0  0  0  0  0  0  0  0  0  0  0
  120.0195  103.5299  106.4871 H   0  0  0  0  0  0  0  0  0  0  0  0
  117.8696  102.7874  105.4900 H   0  0  0  0  0  0  0  0  0  0  0  0
  119.4312  107.4939  104.8689 H   0  0  0  0  0  0  0  0  0  0  0  0
  125.8205  108.2289  105.9770 H   0  0  0  0  0  0  0  0  0  0  0  0
  126.6516  106.0307  107.4340 H   0  0  0  0  0  0  0  0  0  0  0  0
  116.3090  107.4117  104.3552 H   0  0  0  0  0  0  0  0  0  0  0  0
  117.3043  107.3828  102.8643 H   0  0  0  0  0  0  0  0  0  0  0  0
  114.9989  105.8437  103.1391 H   0  0  0  0  0  0  0  0  0  0  0  0
  116.3720  105.3238  102.1460 H   0  0  0  0  0  0  0  0  0  0  0  0
  125.1189  102.8938  105.6888 H   0  0  0  0  0  0  0  0  0  0  0  0
  125.4620  102.0375  107.2032 H   0  0  0  0  0  0  0  0  0  0  0  0
  126.5518  103.3163  106.6362 H   0  0  0  0  0  0  0  0  0  0  0  0
  122.4428  104.2042  106.3493 H   0  0  0  0  0  0  0  0  0  0  0  0
  122.3066  104.9586  104.7798 H   0  0  0  0  0  0  0  0  0  0  0  0
  125.0786  104.1439  108.5030 H   0  0  0  0  0  0  0  0  0  0  0  0
  123.6443  103.7085  107.5714 H   0  0  0  0  0  0  0  0  0  0  0  0
  121.3422  107.0512  106.1002 H   0  0  0  0  0  0  0  0  0  0  0  0
  120.0912  107.6324  107.4688 H   0  0  0  0  0  0  0  0  0  0  0  0
  119.6393  106.8325  108.8113 H   0  0  0  0  0  0  0  0  0  0  0  0
  122.0590  105.9095  108.1674 H   0  0  0  0  0  0  0  0  0  0  0  0
  1  2  2  0  0  0  0
  1  7  1  0  0  0  0
  2  8  1  0  0  0  0
  3  6  1  0  0  0  0
  3  7  2  0  0  0  0
  4  5  2  0  0  0  0
  4 16  1  0  0  0  0
  5 17  1  0  0  0  0
  6  8  2  0  0  0  0
  6 10  1  0  0  0  0
  7 15  1  0  0  0  0
  8 20  1  0  0  0  0
  9 13  1  0  0  0  0
  9 16  2  0  0  0  0
  9 17  1  0  0  0  0
 10 11  1  0  0  0  0
 11 20  1  0  0  0  0
 12 14  1  0  0  0  0
 13 15  1  0  0  0  0
 14 17  1  0  0  0  0
 15 19  1  0  0  0  0
 18 19  1  0  0  0  0
  1 21  1  0  0  0  0
  2 22  1  0  0  0  0
  3 23  1  0  0  0  0
  4 24  1  0  0  0  0
  5 25  1  0  0  0  0
 10 26  1  0  0  0  0
 10 27  1  0  0  0  0
 11 28  1  0  0  0  0
 11 29  1  0  0  0  0
 12 30  1  0  0  0  0
 12 31  1  0  0  0  0
 12 32  1  0  0  0  0
 13 33  1  0  0  0  0
 13 34  1  0  0  0  0
 14 35  1  0  0  0  0
 14 36  1  0  0  0  0
 15 37  1  0  0  0  0
 18 38  1  0  0  0  0
 18 39  1  0  0  0  0
 19 40  1  0  0  0  0
M  END
> <FRED Chemgauss4 score>
-10.561735

$$$$
C14232203	P106215939
  -OEChem-05122015313D

 43 45  0     1  0  0  0  0  0999 V2000
  119.2239  103.7196  106.0881 C   0  0  0  0  0  0  0  0  0  0  0  0
  125.0797  103.5310  107.7689 C   0  0  0  0  0  0  0  0  0  0  0  0
  120.3400  104.3706  106.6130 C   0  0  0  0  0  0  0  0  0  0  0  0
  124.0898  104.2583  107.1079 C   0  0  0  0  0  0  0  0  0  0  0  0
  117.8803  105.6791  106.5117 C   0  0  0  0  0  0  0  0  0  0  0  0
  125.8154  105.5447  108.8827 C   0  0  0  0  0  0  0  0  0  0  0  0
  118.9957  106.3503  107.0338 C   0  0  0  0  0  0  0  0  0  0  0  0
  117.9957  104.3732  106.0364 C   0  0  0  0  0  0  0  0  0  0  0  0
  125.9424  104.1742  108.6564 C   0  0  0  0  0  0  0  0  0  0  0  0
  124.8256  106.2720  108.2217 C   0  0  0  0  0  0  0  0  0  0  0  0
  120.2338  105.6843  107.0881 C   0  0  0  0  0  0  0  0  0  0  0  0
  123.9628  105.6288  107.3342 C   0  0  0  0  0  0  0  0  0  0  0  0
  118.8208  107.7436  107.5827 C   0  0  0  0  0  0  0  0  0  0  0  0
  120.1496  108.4676  107.7790 C   0  0  0  0  0  0  0  0  0  0  0  0
  121.1507  107.5514  108.4656 C   0  0  0  0  0  0  0  0  0  0  0  0
  116.7995  103.6714  105.4852 C   0  0  0  0  0  0  0  0  0  0  0  0
  127.0008  103.3960  109.3630 C   0  0  0  0  0  0  0  0  0  0  0  0
  124.7158  107.7379  108.4869 C   0  0  0  0  0  0  0  0  0  0  0  0
  121.4113  106.3576  107.6079 N   0  0  2  0  0  0  0  0  0  0  0  0
  123.0983  107.9067  106.4195 O   0  0  0  0  0  0  0  0  0  0  0  0
  122.3653  105.7812  105.2826 O   0  0  0  0  0  0  0  0  0  0  0  0
  122.6990  106.5180  106.4817 S   0  0  0  0  0  0  0  0  0  0  0  0
  119.3194  102.7000  105.7263 H   0  0  0  0  0  0  0  0  0  0  0  0
  125.1715  102.4637  107.5864 H   0  0  0  0  0  0  0  0  0  0  0  0
  121.2735  103.8249  106.6357 H   0  0  0  0  0  0  0  0  0  0  0  0
  123.4239  103.7458  106.4188 H   0  0  0  0  0  0  0  0  0  0  0  0
  116.9130  106.1755  106.4838 H   0  0  0  0  0  0  0  0  0  0  0  0
  126.4892  106.0441  109.5752 H   0  0  0  0  0  0  0  0  0  0  0  0
  118.1869  108.3135  106.8872 H   0  0  0  0  0  0  0  0  0  0  0  0
  118.2956  107.7078  108.5483 H   0  0  0  0  0  0  0  0  0  0  0  0
  120.5392  108.7945  106.8073 H   0  0  0  0  0  0  0  0  0  0  0  0
  119.9947  109.3702  108.3862 H   0  0  0  0  0  0  0  0  0  0  0  0
  122.0912  108.0783  108.6634 H   0  0  0  0  0  0  0  0  0  0  0  0
  120.7297  107.2206  109.4213 H   0  0  0  0  0  0  0  0  0  0  0  0
  116.2664  103.1401  106.2833 H   0  0  0  0  0  0  0  0  0  0  0  0
  116.1043  104.3784  105.0138 H   0  0  0  0  0  0  0  0  0  0  0  0
  117.0842  102.9442  104.7133 H   0  0  0  0  0  0  0  0  0  0  0  0
  127.9249  103.3850  108.7723 H   0  0  0  0  0  0  0  0  0  0  0  0
  127.2221  103.8277  110.3476 H   0  0  0  0  0  0  0  0  0  0  0  0
  126.6848  102.3588  109.5345 H   0  0  0  0  0  0  0  0  0  0  0  0
  125.3414  108.2989  107.7832 H   0  0  0  0  0  0  0  0  0  0  0  0
  123.6794  108.0824  108.3850 H   0  0  0  0  0  0  0  0  0  0  0  0
  125.0341  107.9805  109.5083 H   0  0  0  0  0  0  0  0  0  0  0  0
  1  3  1  0  0  0  0
  1  8  2  0  0  0  0
  2  4  2  0  0  0  0
  2  9  1  0  0  0  0
  3 11  2  0  0  0  0
  4 12  1  0  0  0  0
  5  7  2  0  0  0  0
  5  8  1  0  0  0  0
  6  9  2  0  0  0  0
  6 10  1  0  0  0  0
  7 11  1  0  0  0  0
  7 13  1  0  0  0  0
  8 16  1  0  0  0  0
  9 17  1  0  0  0  0
 10 12  2  0  0  0  0
 10 18  1  0  0  0  0
 11 19  1  0  0  0  0
 12 22  1  0  0  0  0
 13 14  1  0  0  0  0
 14 15  1  0  0  0  0
 15 19  1  0  0  0  0
 19 22  1  0  0  0  0
 20 22  2  0  0  0  0
 21 22  2  0  0  0  0
  1 23  1  0  0  0  0
  2 24  1  0  0  0  0
  3 25  1  0  0  0  0
  4 26  1  0  0  0  0
  5 27  1  0  0  0  0
  6 28  1  0  0  0  0
 13 29  1  0  0  0  0
 13 30  1  0  0  0  0
 14 31  1  0  0  0  0
 14 32  1  0  0  0  0
 15 33  1  0  0  0  0
 15 34  1  0  0  0  0
 16 35  1  0  0  0  0
 16 36  1  0  0  0  0
 16 37  1  0  0  0  0
 17 38  1  0  0  0  0
 17 39  1  0  0  0  0
 17 40  1  0  0  0  0
 18 41  1  0  0  0  0
 18 42  1  0  0  0  0
 18 43  1  0  0  0  0
M  END
> <FRED Chemgauss4 score>
-10.558254

$$$$
C92496043	P144788371
  -OEChem-05122015313D

 36 36  0     1  0  0  0  0  0999 V2000
  122.9407  105.1584  108.5893 C   0  0  0  0  0  0  0  0  0  0  0  0
  123.8348  107.2430  106.3107 C   0  0  0  0  0  0  0  0  0  0  0  0
  125.3695  104.7243  108.5048 C   0  0  0  0  0  0  0  0  0  0  0  0
  125.6827  107.0497  108.0396 C   0  0  0  0  0  0  0  0  0  0  0  0
  124.1694  105.2049  107.7010 C   0  0  2  0  0  0  0  0  0  0  0  0
  125.9235  106.0080  109.1230 C   0  0  2  0  0  0  0  0  0  0  0  0
  117.1934  108.4377  104.0379 C   0  0  0  0  0  0  0  0  0  0  0  0
  122.6643  106.5079  105.7083 C   0  0  0  0  0  0  0  0  0  0  0  0
  120.3703  106.9364  105.1441 C   0  0  0  0  0  0  0  0  0  0  0  0
  119.4182  108.0183  104.6678 C   0  0  0  0  0  0  0  0  0  0  0  0
  124.5175  106.5646  107.3064 N   0  0  0  0  0  0  0  0  0  0  0  0
  122.6150  103.8938  109.0193 N   0  0  0  0  0  0  0  0  0  0  0  0
  121.7165  107.4969  105.2931 N   0  0  0  0  0  0  0  0  0  0  0  0
  122.3191  106.1723  108.8974 O   0  0  0  0  0  0  0  0  0  0  0  0
  124.1357  108.3692  105.9116 O   0  0  0  0  0  0  0  0  0  0  0  0
  127.3016  105.8868  109.4143 O   0  0  0  0  0  0  0  0  0  0  0  0
  118.1218  107.4619  104.4906 O   0  0  0  0  0  0  0  0  0  0  0  0
  125.0720  104.0318  109.3017 H   0  0  0  0  0  0  0  0  0  0  0  0
  126.0975  104.2163  107.8643 H   0  0  0  0  0  0  0  0  0  0  0  0
  125.4070  108.0191  108.4746 H   0  0  0  0  0  0  0  0  0  0  0  0
  126.5438  107.1790  107.3741 H   0  0  0  0  0  0  0  0  0  0  0  0
  123.9995  104.5862  106.7988 H   0  0  0  0  0  0  0  0  0  0  0  0
  125.3978  106.2679  110.0672 H   0  0  0  0  0  0  0  0  0  0  0  0
  116.2106  107.9764  103.9129 H   0  0  0  0  0  0  0  0  0  0  0  0
  117.5357  108.8543  103.0873 H   0  0  0  0  0  0  0  0  0  0  0  0
  117.1267  109.2364  104.7805 H   0  0  0  0  0  0  0  0  0  0  0  0
  122.2458  105.8560  106.4692 H   0  0  0  0  0  0  0  0  0  0  0  0
  123.0260  105.9294  104.8635 H   0  0  0  0  0  0  0  0  0  0  0  0
  120.0583  106.5313  106.1120 H   0  0  0  0  0  0  0  0  0  0  0  0
  120.4183  106.1230  104.4139 H   0  0  0  0  0  0  0  0  0  0  0  0
  119.7515  108.4125  103.7028 H   0  0  0  0  0  0  0  0  0  0  0  0
  119.3528  108.8418  105.3864 H   0  0  0  0  0  0  0  0  0  0  0  0
  123.1946  103.1148  108.7247 H   0  0  0  0  0  0  0  0  0  0  0  0
  121.8180  103.7081  109.6197 H   0  0  0  0  0  0  0  0  0  0  0  0
  121.9935  107.9060  104.3913 H   0  0  0  0  0  0  0  0  0  0  0  0
  127.3893  105.1520  110.0417 H   0  0  0  0  0  0  0  0  0  0  0  0
  1  5  1  0  0  0  0
  1 12  1  0  0  0  0
  1 14  2  0  0  0  0
  2  8  1  0  0  0  0
  2 11  1  0  0  0  0
  2 15  2  0  0  0  0
  3  5  1  0  0  0  0
  3  6  1  0  0  0  0
  4  6  1  0  0  0  0
  4 11  1  0  0  0  0
  5 11  1  0  0  0  0
  6 16  1  0  0  0  0
  7 17  1  0  0  0  0
  8 13  1  0  0  0  0
  9 10  1  0  0  0  0
  9 13  1  0  0  0  0
 10 17  1  0  0  0  0
  3 18  1  0  0  0  0
  3 19  1  0  0  0  0
  4 20  1  0  0  0  0
  4 21  1  0  0  0  0
  5 22  1  0  0  0  0
  6 23  1  0  0  0  0
  7 24  1  0  0  0  0
  7 25  1  0  0  0  0
  7 26  1  0  0  0  0
  8 27  1  0  0  0  0
  8 28  1  0  0  0  0
  9 29  1  0  0  0  0
  9 30  1  0  0  0  0
 10 31  1  0  0  0  0
 10 32  1  0  0  0  0
 12 33  1  0  0  0  0
 12 34  1  0  0  0  0
 13 35  1  0  0  0  0
 16 36  1  0  0  0  0
M  END
> <FRED Chemgauss4 score>
-10.551356

$$$$
C78406664	P122332302
  -OEChem-05122015313D

 38 39  0     1  0  0  0  0  0999 V2000
  126.3996  107.6572  107.5517 C   0  0  0  0  0  0  0  0  0  0  0  0
  121.6560  105.6333  107.9800 C   0  0  0  0  0  0  0  0  0  0  0  0
  126.6350  105.3802  108.4671 C   0  0  0  0  0  0  0  0  0  0  0  0
  118.7635  103.8605  106.2115 C   0  0  0  0  0  0  0  0  0  0  0  0
  119.3192  105.0931  105.5591 C   0  0  0  0  0  0  0  0  0  0  0  0
  125.8934  104.1191  108.9006 C   0  0  0  0  0  0  0  0  0  0  0  0
  124.5939  106.0119  107.1205 C   0  0  0  0  0  0  0  0  0  0  0  0
  125.6484  106.4935  108.1234 C   0  0  2  0  0  0  0  0  0  0  0  0
  119.4657  104.8986  107.0435 C   0  0  0  0  0  0  0  0  0  0  0  0
  124.8057  103.6933  107.8979 C   0  0  2  0  0  0  0  0  0  0  0  0
  125.4191  103.0723  106.6350 C   0  0  0  0  0  0  0  0  0  0  0  0
  122.9110  105.0593  108.5863 C   0  0  0  0  0  0  0  0  0  0  0  0
  123.8871  104.7890  107.5303 N   0  0  1  0  0  0  0  0  0  0  0  0
  126.8593  108.5403  108.4998 N   0  0  0  0  0  0  0  0  0  0  0  0
  120.7549  104.6342  107.6409 N   0  0  0  0  0  0  0  0  0  0  0  0
  126.5902  107.7815  106.3444 O   0  0  0  0  0  0  0  0  0  0  0  0
  121.4731  106.8369  107.8179 O   0  0  0  0  0  0  0  0  0  0  0  0
  127.2821  105.7125  109.2849 H   0  0  0  0  0  0  0  0  0  0  0  0
  127.2782  105.1521  107.6129 H   0  0  0  0  0  0  0  0  0  0  0  0
  117.6867  103.7755  106.2926 H   0  0  0  0  0  0  0  0  0  0  0  0
  119.2759  102.9222  106.0379 H   0  0  0  0  0  0  0  0  0  0  0  0
  120.2058  104.9840  104.9467 H   0  0  0  0  0  0  0  0  0  0  0  0
  118.6144  105.8341  105.2024 H   0  0  0  0  0  0  0  0  0  0  0  0
  126.6161  103.3006  109.0411 H   0  0  0  0  0  0  0  0  0  0  0  0
  125.4417  104.2994  109.8872 H   0  0  0  0  0  0  0  0  0  0  0  0
  123.8699  106.8283  106.9425 H   0  0  0  0  0  0  0  0  0  0  0  0
  125.0985  105.8330  106.1542 H   0  0  0  0  0  0  0  0  0  0  0  0
  125.1696  106.8446  109.0209 H   0  0  0  0  0  0  0  0  0  0  0  0
  118.8417  105.5189  107.6777 H   0  0  0  0  0  0  0  0  0  0  0  0
  124.1906  102.8808  108.3754 H   0  0  0  0  0  0  0  0  0  0  0  0
  126.0284  103.8144  106.1275 H   0  0  0  0  0  0  0  0  0  0  0  0
  124.6243  102.7410  105.9734 H   0  0  0  0  0  0  0  0  0  0  0  0
  126.0372  102.2240  106.9138 H   0  0  0  0  0  0  0  0  0  0  0  0
  123.3373  105.7740  109.2965 H   0  0  0  0  0  0  0  0  0  0  0  0
  122.6779  104.1261  109.1074 H   0  0  0  0  0  0  0  0  0  0  0  0
  126.6656  108.3497  109.4774 H   0  0  0  0  0  0  0  0  0  0  0  0
  127.3846  109.3753  108.2612 H   0  0  0  0  0  0  0  0  0  0  0  0
  121.0142  103.6687  107.8216 H   0  0  0  0  0  0  0  0  0  0  0  0
  1  8  1  0  0  0  0
  1 14  1  0  0  0  0
  1 16  2  0  0  0  0
  2 12  1  0  0  0  0
  2 15  1  0  0  0  0
  2 17  2  0  0  0  0
  3  6  1  0  0  0  0
  3  8  1  0  0  0  0
  4  5  1  0  0  0  0
  4  9  1  0  0  0  0
  5  9  1  0  0  0  0
  6 10  1  0  0  0  0
  7  8  1  0  0  0  0
  7 13  1  0  0  0  0
  9 15  1  0  0  0  0
 10 11  1  0  0  0  0
 10 13  1  0  0  0  0
 12 13  1  0  0  0  0
  3 18  1  0  0  0  0
  3 19  1  0  0  0  0
  4 20  1  0  0  0  0
  4 21  1  0  0  0  0
  5 22  1  0  0  0  0
  5 23  1  0  0  0  0
  6 24  1  0  0  0  0
  6 25  1  0  0  0  0
  7 26  1  0  0  0  0
  7 27  1  0  0  0  0
  8 28  1  0  0  0  0
  9 29  1  0  0  0  0
 10 30  1  0  0  0  0
 11 31  1  0  0  0  0
 11 32  1  0  0  0  0
 11 33  1  0  0  0  0
 12 34  1  0  0  0  0
 12 35  1  0  0  0  0
 14 36  1  0  0  0  0
 14 37  1  0  0  0  0
 15 38  1  0  0  0  0
M  END
> <FRED Chemgauss4 score>
-10.546609

$$$$
C61594533	P94310181
  -OEChem-05122015313D

 32 34  0     1  0  0  0  0  0999 V2000
  118.6091  106.2100  105.5000 C   0  0  0  0  0  0  0  0  0  0  0  0
  117.5000  105.3931  105.5021 C   0  0  0  0  0  0  0  0  0  0  0  0
  119.2746  104.5453  106.9792 C   0  0  0  0  0  0  0  0  0  0  0  0
  119.6373  105.7189  106.3555 C   0  0  0  0  0  0  0  0  0  0  0  0
  123.5810  106.6679  105.8927 C   0  0  0  0  0  0  0  0  0  0  0  0
  125.3765  107.2740  106.9594 C   0  0  0  0  0  0  0  0  0  0  0  0
  124.9628  103.8032  107.2294 C   0  0  0  0  0  0  0  0  0  0  0  0
  125.6170  104.5548  108.3504 C   0  0  0  0  0  0  0  0  0  0  0  0
  124.3766  105.1055  107.7016 C   0  0  0  0  0  0  0  0  0  0  0  0
  120.9479  107.9396  106.3858 C   0  0  0  0  0  0  0  0  0  0  0  0
  120.9734  106.4095  106.5554 C   0  0  2  0  0  0  0  0  0  0  0  0
  123.8829  107.7957  105.3232 N   0  0  0  0  0  0  0  0  0  0  0  0
  125.0100  108.2017  105.9742 N   0  0  0  0  0  0  0  0  0  0  0  0
  124.4229  106.2771  106.8854 N   0  0  0  0  0  0  0  0  0  0  0  0
  119.7547  108.5238  106.9977 N   0  0  0  0  0  0  0  0  0  0  0  0
  126.3387  107.3548  107.7091 O   0  0  0  0  0  0  0  0  0  0  0  0
  117.7005  104.0402  106.5326 S   0  0  0  0  0  0  0  0  0  0  0  0
  122.2138  105.7081  105.4435 S   0  0  0  0  0  0  0  0  0  0  0  0
  118.6754  107.1163  104.9113 H   0  0  0  0  0  0  0  0  0  0  0  0
  116.5813  105.5263  104.9485 H   0  0  0  0  0  0  0  0  0  0  0  0
  119.8550  103.9578  107.6771 H   0  0  0  0  0  0  0  0  0  0  0  0
  125.4712  103.7823  106.2732 H   0  0  0  0  0  0  0  0  0  0  0  0
  124.4309  102.8923  107.4753 H   0  0  0  0  0  0  0  0  0  0  0  0
  125.5252  104.1500  109.3507 H   0  0  0  0  0  0  0  0  0  0  0  0
  126.5644  105.0384  108.1467 H   0  0  0  0  0  0  0  0  0  0  0  0
  123.4592  105.0451  108.2771 H   0  0  0  0  0  0  0  0  0  0  0  0
  121.8207  108.3841  106.8792 H   0  0  0  0  0  0  0  0  0  0  0  0
  120.9880  108.2354  105.3314 H   0  0  0  0  0  0  0  0  0  0  0  0
  121.3355  106.1933  107.5687 H   0  0  0  0  0  0  0  0  0  0  0  0
  125.4662  109.0701  105.7247 H   0  0  0  0  0  0  0  0  0  0  0  0
  119.4426  109.4075  106.6610 H   0  0  0  0  0  0  0  0  0  0  0  0
  119.4242  108.1258  107.8487 H   0  0  0  0  0  0  0  0  0  0  0  0
  1  2  2  0  0  0  0
  1  4  1  0  0  0  0
  2 17  1  0  0  0  0
  3  4  2  0  0  0  0
  3 17  1  0  0  0  0
  4 11  1  0  0  0  0
  5 12  2  0  0  0  0
  5 14  1  0  0  0  0
  5 18  1  0  0  0  0
  6 13  1  0  0  0  0
  6 14  1  0  0  0  0
  6 16  2  0  0  0  0
  7  8  1  0  0  0  0
  7  9  1  0  0  0  0
  8  9  1  0  0  0  0
  9 14  1  0  0  0  0
 10 11  1  0  0  0  0
 10 15  1  0  0  0  0
 11 18  1  0  0  0  0
 12 13  1  0  0  0  0
  1 19  1  0  0  0  0
  2 20  1  0  0  0  0
  3 21  1  0  0  0  0
  7 22  1  0  0  0  0
  7 23  1  0  0  0  0
  8 24  1  0  0  0  0
  8 25  1  0  0  0  0
  9 26  1  0  0  0  0
 10 27  1  0  0  0  0
 10 28  1  0  0  0  0
 11 29  1  0  0  0  0
 13 30  1  0  0  0  0
 15 31  1  0  0  0  0
 15 32  1  0  0  0  0
M  END
> <FRED Chemgauss4 score>
-10.544264

$$$$
C63134484	P96941863
  -OEChem-05122015313D

 40 41  0     0  0  0  0  0  0999 V2000
  121.3217  112.2064  112.0630 C   0  0  0  0  0  0  0  0  0  0  0  0
  122.5702  112.7864  111.9803 C   0  0  0  0  0  0  0  0  0  0  0  0
  122.5413  110.4032  112.3297 C   0  0  0  0  0  0  0  0  0  0  0  0
  123.7608  108.0044  109.0108 C   0  0  0  0  0  0  0  0  0  0  0  0
  123.6791  106.7397  108.5273 C   0  0  0  0  0  0  0  0  0  0  0  0
  124.5867  109.0225  108.2987 C   0  0  0  0  0  0  0  0  0  0  0  0
  125.1686  107.2938  106.6347 C   0  0  0  0  0  0  0  0  0  0  0  0
  125.7674  104.0991  108.6976 C   0  0  0  0  0  0  0  0  0  0  0  0
  125.4560  102.7922  106.5717 C   0  0  0  0  0  0  0  0  0  0  0  0
  122.9274  108.9601  112.5423 C   0  0  0  0  0  0  0  0  0  0  0  0
  124.2619  105.0149  106.8628 C   0  0  0  0  0  0  0  0  0  0  0  0
  123.7891  108.4016  111.4125 C   0  0  0  0  0  0  0  0  0  0  0  0
  125.5110  104.1887  107.1926 C   0  0  0  0  0  0  0  0  0  0  0  0
  121.3031  110.8398  112.2629 N   0  0  0  0  0  0  0  0  0  0  0  0
  125.2250  108.5756  107.1636 N   0  0  0  0  0  0  0  0  0  0  0  0
  124.3738  106.3896  107.3549 N   0  0  0  0  0  0  0  0  0  0  0  0
  122.9080  105.8115  109.2002 N   0  0  0  0  0  0  0  0  0  0  0  0
  123.1382  108.4744  110.1360 N   0  0  0  0  0  0  0  0  0  0  0  0
  124.6805  110.1775  108.7092 O   0  0  0  0  0  0  0  0  0  0  0  0
  125.7874  107.0147  105.6045 O   0  0  0  0  0  0  0  0  0  0  0  0
  123.7774  111.5816  112.1608 S   0  0  0  0  0  0  0  0  0  0  0  0
  120.3841  112.7401  111.9837 H   0  0  0  0  0  0  0  0  0  0  0  0
  122.8222  113.8266  111.8298 H   0  0  0  0  0  0  0  0  0  0  0  0
  124.9533  103.5866  109.2203 H   0  0  0  0  0  0  0  0  0  0  0  0
  126.6904  103.5437  108.8970 H   0  0  0  0  0  0  0  0  0  0  0  0
  125.8789  105.0974  109.1336 H   0  0  0  0  0  0  0  0  0  0  0  0
  124.6217  102.2042  106.9683 H   0  0  0  0  0  0  0  0  0  0  0  0
  126.3800  102.2419  106.7796 H   0  0  0  0  0  0  0  0  0  0  0  0
  125.3429  102.8544  105.4842 H   0  0  0  0  0  0  0  0  0  0  0  0
  122.0104  108.3634  112.6278 H   0  0  0  0  0  0  0  0  0  0  0  0
  123.4479  108.8528  113.5026 H   0  0  0  0  0  0  0  0  0  0  0  0
  124.0947  105.0467  105.7807 H   0  0  0  0  0  0  0  0  0  0  0  0
  123.3775  104.5593  107.3218 H   0  0  0  0  0  0  0  0  0  0  0  0
  124.7145  108.9801  111.3284 H   0  0  0  0  0  0  0  0  0  0  0  0
  124.0560  107.3542  111.5879 H   0  0  0  0  0  0  0  0  0  0  0  0
  126.3674  104.7121  106.7473 H   0  0  0  0  0  0  0  0  0  0  0  0
  125.7937  109.2516  106.6613 H   0  0  0  0  0  0  0  0  0  0  0  0
  122.4398  106.1091  110.0184 H   0  0  0  0  0  0  0  0  0  0  0  0
  122.8628  104.8960  108.8300 H   0  0  0  0  0  0  0  0  0  0  0  0
  122.2338  108.8582  110.0150 H   0  0  0  0  0  0  0  0  0  0  0  0
  1  2  2  0  0  0  0
  1 14  1  0  0  0  0
  2 21  1  0  0  0  0
  3 10  1  0  0  0  0
  3 14  2  0  0  0  0
  3 21  1  0  0  0  0
  4  5  2  0  0  0  0
  4  6  1  0  0  0  0
  4 18  1  0  0  0  0
  5 16  1  0  0  0  0
  5 17  1  0  0  0  0
  6 15  1  0  0  0  0
  6 19  2  0  0  0  0
  7 15  1  0  0  0  0
  7 16  1  0  0  0  0
  7 20  2  0  0  0  0
  8 13  1  0  0  0  0
  9 13  1  0  0  0  0
 10 12  1  0  0  0  0
 11 13  1  0  0  0  0
 11 16  1  0  0  0  0
 12 18  1  0  0  0  0
  1 22  1  0  0  0  0
  2 23  1  0  0  0  0
  8 24  1  0  0  0  0
  8 25  1  0  0  0  0
  8 26  1  0  0  0  0
  9 27  1  0  0  0  0
  9 28  1  0  0  0  0
  9 29  1  0  0  0  0
 10 30  1  0  0  0  0
 10 31  1  0  0  0  0
 11 32  1  0  0  0  0
 11 33  1  0  0  0  0
 12 34  1  0  0  0  0
 12 35  1  0  0  0  0
 13 36  1  0  0  0  0
 15 37  1  0  0  0  0
 17 38  1  0  0  0  0
 17 39  1  0  0  0  0
 18 40  1  0  0  0  0
M  END
> <FRED Chemgauss4 score>
-10.541541

$$$$
C22936959	P104234106
  -OEChem-05122015313D

 46 47  0     1  0  0  0  0  0999 V2000
  124.9082  104.4096  107.9943 C   0  0  0  0  0  0  0  0  0  0  0  0
  119.9327  106.9466  104.3487 C   0  0  0  0  0  0  0  0  0  0  0  0
  126.3897  106.4756  107.7382 C   0  0  0  0  0  0  0  0  0  0  0  0
  124.8740  107.6581  106.2494 C   0  0  0  0  0  0  0  0  0  0  0  0
  122.6487  104.6805  106.9365 C   0  0  0  0  0  0  0  0  0  0  0  0
  125.3797  105.5363  107.1072 C   0  0  2  0  0  0  0  0  0  0  0  0
  126.3040  107.6891  106.8124 C   0  0  1  0  0  0  0  0  0  0  0  0
  123.2294  105.7961  106.0550 C   0  0  1  0  0  0  0  0  0  0  0  0
  118.0206  105.0469  106.3125 C   0  0  0  0  0  0  0  0  0  0  0  0
  116.6953  107.2020  104.0696 C   0  0  0  0  0  0  0  0  0  0  0  0
  121.0526  106.0188  104.8017 C   0  0  0  0  0  0  0  0  0  0  0  0
  122.1068  106.7462  105.6300 C   0  0  0  0  0  0  0  0  0  0  0  0
  118.6939  106.3651  106.4897 C   0  0  0  0  0  0  0  0  0  0  0  0
  117.7287  107.9356  104.8547 C   0  0  0  0  0  0  0  0  0  0  0  0
  123.6363  103.9473  107.7146 N   0  0  0  0  0  0  0  0  0  0  0  0
  124.2741  106.4570  106.8351 N   0  0  2  0  0  0  0  0  0  0  0  0
  126.6408  108.9413  107.4701 N   0  0  0  0  0  0  0  0  0  0  0  0
  118.8378  107.0596  105.2122 N   0  0  0  0  0  0  0  0  0  0  0  0
  125.6457  103.8797  108.8245 O   0  0  0  0  0  0  0  0  0  0  0  0
  120.0167  107.5510  103.2764 O   0  0  0  0  0  0  0  0  0  0  0  0
  126.1314  106.7434  108.7592 H   0  0  0  0  0  0  0  0  0  0  0  0
  127.3956  106.0655  107.7250 H   0  0  0  0  0  0  0  0  0  0  0  0
  124.3212  108.5794  106.5293 H   0  0  0  0  0  0  0  0  0  0  0  0
  124.8991  107.6200  105.1419 H   0  0  0  0  0  0  0  0  0  0  0  0
  121.9049  105.0716  107.6550 H   0  0  0  0  0  0  0  0  0  0  0  0
  122.1153  103.9378  106.3158 H   0  0  0  0  0  0  0  0  0  0  0  0
  125.7253  105.1199  106.1721 H   0  0  0  0  0  0  0  0  0  0  0  0
  127.0185  107.5458  105.9778 H   0  0  0  0  0  0  0  0  0  0  0  0
  123.6665  105.3639  105.1873 H   0  0  0  0  0  0  0  0  0  0  0  0
  117.0177  105.1739  105.8906 H   0  0  0  0  0  0  0  0  0  0  0  0
  118.6077  104.3937  105.6577 H   0  0  0  0  0  0  0  0  0  0  0  0
  117.9179  104.5487  107.2840 H   0  0  0  0  0  0  0  0  0  0  0  0
  117.1182  106.8078  103.1393 H   0  0  0  0  0  0  0  0  0  0  0  0
  116.2750  106.3760  104.6537 H   0  0  0  0  0  0  0  0  0  0  0  0
  115.8763  107.8822  103.8069 H   0  0  0  0  0  0  0  0  0  0  0  0
  120.6143  105.2130  105.4014 H   0  0  0  0  0  0  0  0  0  0  0  0
  121.5257  105.5865  103.9127 H   0  0  0  0  0  0  0  0  0  0  0  0
  121.6540  107.1794  106.5263 H   0  0  0  0  0  0  0  0  0  0  0  0
  122.5409  107.5694  105.0554 H   0  0  0  0  0  0  0  0  0  0  0  0
  119.6946  106.2310  106.9113 H   0  0  0  0  0  0  0  0  0  0  0  0
  118.1143  107.0104  107.1564 H   0  0  0  0  0  0  0  0  0  0  0  0
  117.2998  108.3266  105.7823 H   0  0  0  0  0  0  0  0  0  0  0  0
  118.1361  108.7698  104.2759 H   0  0  0  0  0  0  0  0  0  0  0  0
  123.3733  103.0396  108.0737 H   0  0  0  0  0  0  0  0  0  0  0  0
  126.2869  109.7923  107.0821 H   0  0  0  0  0  0  0  0  0  0  0  0
  127.3691  108.9374  108.1554 H   0  0  0  0  0  0  0  0  0  0  0  0
  1  6  1  0  0  0  0
  1 15  1  0  0  0  0
  1 19  2  0  0  0  0
  2 11  1  0  0  0  0
  2 18  1  0  0  0  0
  2 20  2  0  0  0  0
  3  6  1  0  0  0  0
  3  7  1  0  0  0  0
  4  7  1  0  0  0  0
  4 16  1  0  0  0  0
  5  8  1  0  0  0  0
  5 15  1  0  0  0  0
  6 16  1  0  0  0  0
  7 17  1  0  0  0  0
  8 12  1  0  0  0  0
  8 16  1  0  0  0  0
  9 13  1  0  0  0  0
 10 14  1  0  0  0  0
 11 12  1  0  0  0  0
 13 18  1  0  0  0  0
 14 18  1  0  0  0  0
  3 21  1  0  0  0  0
  3 22  1  0  0  0  0
  4 23  1  0  0  0  0
  4 24  1  0  0  0  0
  5 25  1  0  0  0  0
  5 26  1  0  0  0  0
  6 27  1  0  0  0  0
  7 28  1  0  0  0  0
  8 29  1  0  0  0  0
  9 30  1  0  0  0  0
  9 31  1  0  0  0  0
  9 32  1  0  0  0  0
 10 33  1  0  0  0  0
 10 34  1  0  0  0  0
 10 35  1  0  0  0  0
 11 36  1  0  0  0  0
 11 37  1  0  0  0  0
 12 38  1  0  0  0  0
 12 39  1  0  0  0  0
 13 40  1  0  0  0  0
 13 41  1  0  0  0  0
 14 42  1  0  0  0  0
 14 43  1  0  0  0  0
 15 44  1  0  0  0  0
 17 45  1  0  0  0  0
 17 46  1  0  0  0  0
M  END
> <FRED Chemgauss4 score>
-10.532917

$$$$
C01084855	P07324367
  -OEChem-05122015313D

 30 31  0     0  0  0  0  0  0999 V2000
  124.3588  106.3038  107.8292 C   0  0  0  0  0  0  0  0  0  0  0  0
  124.1772  104.2864  106.5123 C   0  0  0  0  0  0  0  0  0  0  0  0
  125.3053  105.6854  108.6461 C   0  0  0  0  0  0  0  0  0  0  0  0
  125.1238  103.6680  107.3292 C   0  0  0  0  0  0  0  0  0  0  0  0
  123.7947  105.6043  106.7624 C   0  0  0  0  0  0  0  0  0  0  0  0
  125.6878  104.3675  108.3961 C   0  0  0  0  0  0  0  0  0  0  0  0
  121.5612  105.8282  105.7740 C   0  0  0  0  0  0  0  0  0  0  0  0
  120.5793  106.5086  104.8972 C   0  0  0  0  0  0  0  0  0  0  0  0
  119.2929  104.7166  105.7846 C   0  0  0  0  0  0  0  0  0  0  0  0
  116.5048  104.9845  102.9006 C   0  0  0  0  0  0  0  0  0  0  0  0
  122.8212  106.2404  105.9223 C   0  0  0  0  0  0  0  0  0  0  0  0
  117.7712  105.1886  103.2804 C   0  0  0  0  0  0  0  0  0  0  0  0
  118.1989  106.2868  104.1979 C   0  0  0  0  0  0  0  0  0  0  0  0
  119.3586  105.8352  104.9621 N   0  0  0  0  0  0  0  0  0  0  0  0
  126.6449  103.7421  109.2219 N   0  0  0  0  0  0  0  0  0  0  0  0
  120.8476  107.5037  104.2370 O   0  0  0  0  0  0  0  0  0  0  0  0
  117.9901  103.7088  106.0673 S   0  0  0  0  0  0  0  0  0  0  0  0
  120.8609  104.4678  106.5487 S   0  0  0  0  0  0  0  0  0  0  0  0
  124.0704  107.3315  108.0370 H   0  0  0  0  0  0  0  0  0  0  0  0
  123.7465  103.7286  105.6842 H   0  0  0  0  0  0  0  0  0  0  0  0
  125.7384  106.2394  109.4751 H   0  0  0  0  0  0  0  0  0  0  0  0
  125.4146  102.6408  107.1247 H   0  0  0  0  0  0  0  0  0  0  0  0
  116.2566  104.1641  102.2361 H   0  0  0  0  0  0  0  0  0  0  0  0
  115.6995  105.6260  103.2412 H   0  0  0  0  0  0  0  0  0  0  0  0
  123.1247  107.1405  105.3872 H   0  0  0  0  0  0  0  0  0  0  0  0
  118.5390  104.5115  102.9142 H   0  0  0  0  0  0  0  0  0  0  0  0
  117.3882  106.5255  104.8930 H   0  0  0  0  0  0  0  0  0  0  0  0
  118.4669  107.2004  103.6576 H   0  0  0  0  0  0  0  0  0  0  0  0
  127.0763  104.2690  109.9541 H   0  0  0  0  0  0  0  0  0  0  0  0
  126.9450  102.8135  109.0037 H   0  0  0  0  0  0  0  0  0  0  0  0
  1  3  2  0  0  0  0
  1  5  1  0  0  0  0
  2  4  1  0  0  0  0
  2  5  2  0  0  0  0
  3  6  1  0  0  0  0
  4  6  2  0  0  0  0
  5 11  1  0  0  0  0
  6 15  1  0  0  0  0
  7  8  1  0  0  0  0
  7 11  2  0  0  0  0
  7 18  1  0  0  0  0
  8 14  1  0  0  0  0
  8 16  2  0  0  0  0
  9 14  1  0  0  0  0
  9 17  2  0  0  0  0
  9 18  1  0  0  0  0
 10 12  2  0  0  0  0
 12 13  1  0  0  0  0
 13 14  1  0  0  0  0
  1 19  1  0  0  0  0
  2 20  1  0  0  0  0
  3 21  1  0  0  0  0
  4 22  1  0  0  0  0
 10 23  1  0  0  0  0
 10 24  1  0  0  0  0
 11 25  1  0  0  0  0
 12 26  1  0  0  0  0
 13 27  1  0  0  0  0
 13 28  1  0  0  0  0
 15 29  1  0  0  0  0
 15 30  1  0  0  0  0
M  END
> <FRED Chemgauss4 score>
-10.521605

$$$$
C97734251	P155041729
  -OEChem-05122015313D

 40 41  0     1  0  0  0  0  0999 V2000
  124.3291  107.2821  109.4897 C   0  0  0  0  0  0  0  0  0  0  0  0
  123.3988  108.1314  110.0782 C   0  0  0  0  0  0  0  0  0  0  0  0
  125.3070  109.1730  108.4291 C   0  0  0  0  0  0  0  0  0  0  0  0
  125.3047  107.8049  108.6481 C   0  0  0  0  0  0  0  0  0  0  0  0
  124.5954  105.5720  106.6791 C   0  0  0  0  0  0  0  0  0  0  0  0
  123.4865  109.4850  109.7953 C   0  0  0  0  0  0  0  0  0  0  0  0
  123.2788  106.0458  106.5248 C   0  0  0  0  0  0  0  0  0  0  0  0
  124.4514  104.2245  106.9029 C   0  0  0  0  0  0  0  0  0  0  0  0
  122.5045  110.4256  110.4100 C   0  0  0  0  0  0  0  0  0  0  0  0
  122.8408  107.4282  106.2629 C   0  0  0  0  0  0  0  0  0  0  0  0
  125.4493  103.1647  107.1415 C   0  0  0  0  0  0  0  0  0  0  0  0
  122.4520  102.7095  107.0537 C   0  0  0  0  0  0  0  0  0  0  0  0
  125.8810  106.3648  106.6145 C   0  0  0  0  0  0  0  0  0  0  0  0
  126.3138  106.9227  108.0032 C   0  0  2  0  0  0  0  0  0  0  0  0
  124.4198  110.0296  108.9830 N   0  0  0  0  0  0  0  0  0  0  0  0
  122.3656  105.0780  106.6406 N   0  0  0  0  0  0  0  0  0  0  0  0
  123.1095  103.9826  106.8699 N   0  0  0  0  0  0  0  0  0  0  0  0
  127.6480  106.2618  109.8064 N   0  0  0  0  0  0  0  0  0  0  0  0
  126.6904  105.7846  108.8724 N   0  0  0  0  0  0  0  0  0  0  0  0
  124.2868  106.2155  109.6921 H   0  0  0  0  0  0  0  0  0  0  0  0
  122.6327  107.7362  110.7366 H   0  0  0  0  0  0  0  0  0  0  0  0
  126.0442  109.6381  107.7819 H   0  0  0  0  0  0  0  0  0  0  0  0
  122.8802  110.7935  111.3723 H   0  0  0  0  0  0  0  0  0  0  0  0
  122.3166  111.2871  109.7567 H   0  0  0  0  0  0  0  0  0  0  0  0
  121.5365  109.9362  110.5777 H   0  0  0  0  0  0  0  0  0  0  0  0
  122.7779  107.6293  105.1800 H   0  0  0  0  0  0  0  0  0  0  0  0
  121.8486  107.6402  106.6991 H   0  0  0  0  0  0  0  0  0  0  0  0
  123.5290  108.1729  106.7006 H   0  0  0  0  0  0  0  0  0  0  0  0
  125.6616  103.0527  108.2177 H   0  0  0  0  0  0  0  0  0  0  0  0
  125.1114  102.1842  106.7636 H   0  0  0  0  0  0  0  0  0  0  0  0
  126.4059  103.3735  106.6319 H   0  0  0  0  0  0  0  0  0  0  0  0
  122.2414  102.5894  108.1196 H   0  0  0  0  0  0  0  0  0  0  0  0
  121.5234  102.6926  106.4762 H   0  0  0  0  0  0  0  0  0  0  0  0
  123.1082  101.9094  106.7000 H   0  0  0  0  0  0  0  0  0  0  0  0
  125.7316  107.1810  105.8938 H   0  0  0  0  0  0  0  0  0  0  0  0
  126.6772  105.7417  106.1863 H   0  0  0  0  0  0  0  0  0  0  0  0
  127.2572  107.4819  107.8460 H   0  0  0  0  0  0  0  0  0  0  0  0
  127.7439  107.2730  109.7171 H   0  0  0  0  0  0  0  0  0  0  0  0
  127.2795  106.0988  110.7426 H   0  0  0  0  0  0  0  0  0  0  0  0
  127.0972  105.0637  108.2911 H   0  0  0  0  0  0  0  0  0  0  0  0
  1  2  2  0  0  0  0
  1  4  1  0  0  0  0
  2  6  1  0  0  0  0
  3  4  2  0  0  0  0
  3 15  1  0  0  0  0
  4 14  1  0  0  0  0
  5  7  1  0  0  0  0
  5  8  2  0  0  0  0
  5 13  1  0  0  0  0
  6  9  1  0  0  0  0
  6 15  2  0  0  0  0
  7 10  1  0  0  0  0
  7 16  2  0  0  0  0
  8 11  1  0  0  0  0
  8 17  1  0  0  0  0
 12 17  1  0  0  0  0
 13 14  1  0  0  0  0
 14 19  1  0  0  0  0
 16 17  1  0  0  0  0
 18 19  1  0  0  0  0
  1 20  1  0  0  0  0
  2 21  1  0  0  0  0
  3 22  1  0  0  0  0
  9 23  1  0  0  0  0
  9 24  1  0  0  0  0
  9 25  1  0  0  0  0
 10 26  1  0  0  0  0
 10 27  1  0  0  0  0
 10 28  1  0  0  0  0
 11 29  1  0  0  0  0
 11 30  1  0  0  0  0
 11 31  1  0  0  0  0
 12 32  1  0  0  0  0
 12 33  1  0  0  0  0
 12 34  1  0  0  0  0
 13 35  1  0  0  0  0
 13 36  1  0  0  0  0
 14 37  1  0  0  0  0
 18 38  1  0  0  0  0
 18 39  1  0  0  0  0
 19 40  1  0  0  0  0
M  END
> <FRED Chemgauss4 score>
-10.515823

$$$$
C39421458	P59746003
  -OEChem-05122015313D

 45 47  0     1  0  0  0  0  0999 V2000
  117.8234  105.1938  105.8043 C   0  0  0  0  0  0  0  0  0  0  0  0
  117.1536  107.1801  104.6030 C   0  0  0  0  0  0  0  0  0  0  0  0
  117.0931  104.4082  104.9126 C   0  0  0  0  0  0  0  0  0  0  0  0
  116.4233  106.3945  103.7113 C   0  0  0  0  0  0  0  0  0  0  0  0
  117.8536  106.5798  105.6496 C   0  0  0  0  0  0  0  0  0  0  0  0
  116.3931  105.0085  103.8661 C   0  0  0  0  0  0  0  0  0  0  0  0
  120.2588  108.2725  107.8242 C   0  0  0  0  0  0  0  0  0  0  0  0
  118.6131  107.3969  106.5764 C   0  0  0  0  0  0  0  0  0  0  0  0
  125.4236  106.7176  107.1091 C   0  0  0  0  0  0  0  0  0  0  0  0
  123.9509  108.3406  109.0735 C   0  0  0  0  0  0  0  0  0  0  0  0
  124.2782  108.9249  107.7132 C   0  0  0  0  0  0  0  0  0  0  0  0
  125.0712  107.4119  109.5017 C   0  0  0  0  0  0  0  0  0  0  0  0
  120.0976  107.2376  106.7619 C   0  0  1  0  0  0  0  0  0  0  0  0
  124.4530  107.8196  106.6743 C   0  0  2  0  0  0  0  0  0  0  0  0
  126.2882  105.3310  108.9518 C   0  0  0  0  0  0  0  0  0  0  0  0
  120.8848  107.5869  105.5449 C   0  0  0  0  0  0  0  0  0  0  0  0
  123.1210  107.1599  106.3048 C   0  0  0  0  0  0  0  0  0  0  0  0
  119.1627  108.8869  108.1213 N   0  0  0  0  0  0  0  0  0  0  0  0
  118.1162  108.3364  107.3256 N   0  0  0  0  0  0  0  0  0  0  0  0
  125.4857  106.4514  108.4795 N   0  0  0  0  0  0  0  0  0  0  0  0
  122.1903  108.1576  105.9037 N   0  0  0  0  0  0  0  0  0  0  0  0
  126.0438  106.0728  106.2584 O   0  0  0  0  0  0  0  0  0  0  0  0
  124.9671  108.4011  105.4784 O   0  0  0  0  0  0  0  0  0  0  0  0
  115.4934  104.0393  102.7654 Cl  0  0  0  0  0  0  0  0  0  0  0  0
  118.3648  104.7157  106.6166 H   0  0  0  0  0  0  0  0  0  0  0  0
  117.1703  108.2591  104.4727 H   0  0  0  0  0  0  0  0  0  0  0  0
  117.0788  103.3294  105.0447 H   0  0  0  0  0  0  0  0  0  0  0  0
  115.8825  106.8763  102.9008 H   0  0  0  0  0  0  0  0  0  0  0  0
  121.2319  108.4728  108.2927 H   0  0  0  0  0  0  0  0  0  0  0  0
  123.8308  109.1419  109.8113 H   0  0  0  0  0  0  0  0  0  0  0  0
  123.0006  107.7968  109.0422 H   0  0  0  0  0  0  0  0  0  0  0  0
  123.4939  109.6252  107.4007 H   0  0  0  0  0  0  0  0  0  0  0  0
  125.1974  109.5227  107.7797 H   0  0  0  0  0  0  0  0  0  0  0  0
  125.9608  107.9975  109.7632 H   0  0  0  0  0  0  0  0  0  0  0  0
  124.7597  106.8591  110.3953 H   0  0  0  0  0  0  0  0  0  0  0  0
  120.3482  106.2499  107.1565 H   0  0  0  0  0  0  0  0  0  0  0  0
  127.3100  105.6607  109.1568 H   0  0  0  0  0  0  0  0  0  0  0  0
  126.3181  104.5421  108.1953 H   0  0  0  0  0  0  0  0  0  0  0  0
  125.8601  104.9199  109.8700 H   0  0  0  0  0  0  0  0  0  0  0  0
  120.3508  108.3278  104.9424 H   0  0  0  0  0  0  0  0  0  0  0  0
  121.0663  106.6990  104.9322 H   0  0  0  0  0  0  0  0  0  0  0  0
  122.7444  106.6409  107.1740 H   0  0  0  0  0  0  0  0  0  0  0  0
  123.2898  106.4730  105.4889 H   0  0  0  0  0  0  0  0  0  0  0  0
  122.5378  108.6800  105.0850 H   0  0  0  0  0  0  0  0  0  0  0  0
  125.0166  107.6870  104.8247 H   0  0  0  0  0  0  0  0  0  0  0  0
  1  3  2  0  0  0  0
  1  5  1  0  0  0  0
  2  4  1  0  0  0  0
  2  5  2  0  0  0  0
  3  6  1  0  0  0  0
  4  6  2  0  0  0  0
  5  8  1  0  0  0  0
  6 24  1  0  0  0  0
  7 13  1  0  0  0  0
  7 18  2  0  0  0  0
  8 13  1  0  0  0  0
  8 19  2  0  0  0  0
  9 14  1  0  0  0  0
  9 20  1  0  0  0  0
  9 22  2  0  0  0  0
 10 11  1  0  0  0  0
 10 12  1  0  0  0  0
 11 14  1  0  0  0  0
 12 20  1  0  0  0  0
 13 16  1  0  0  0  0
 14 17  1  0  0  0  0
 14 23  1  0  0  0  0
 15 20  1  0  0  0  0
 16 21  1  0  0  0  0
 17 21  1  0  0  0  0
 18 19  1  0  0  0  0
  1 25  1  0  0  0  0
  2 26  1  0  0  0  0
  3 27  1  0  0  0  0
  4 28  1  0  0  0  0
  7 29  1  0  0  0  0
 10 30  1  0  0  0  0
 10 31  1  0  0  0  0
 11 32  1  0  0  0  0
 11 33  1  0  0  0  0
 12 34  1  0  0  0  0
 12 35  1  0  0  0  0
 13 36  1  0  0  0  0
 15 37  1  0  0  0  0
 15 38  1  0  0  0  0
 15 39  1  0  0  0  0
 16 40  1  0  0  0  0
 16 41  1  0  0  0  0
 17 42  1  0  0  0  0
 17 43  1  0  0  0  0
 21 44  1  0  0  0  0
 23 45  1  0  0  0  0
M  END
> <FRED Chemgauss4 score>
-10.514548

$$$$
C85963592	P134595762
  -OEChem-05122015313D

 39 40  0     1  0  0  0  0  0999 V2000
  117.8465  103.6460  104.6060 C   0  0  0  0  0  0  0  0  0  0  0  0
  117.2325  105.4851  106.0474 C   0  0  0  0  0  0  0  0  0  0  0  0
  119.0454  104.2884  104.2970 C   0  0  0  0  0  0  0  0  0  0  0  0
  119.3379  105.5291  104.8632 C   0  0  0  0  0  0  0  0  0  0  0  0
  116.9400  104.2444  105.4812 C   0  0  0  0  0  0  0  0  0  0  0  0
  118.4314  106.1275  105.7384 C   0  0  0  0  0  0  0  0  0  0  0  0
  125.0359  104.7301  108.2166 C   0  0  0  0  0  0  0  0  0  0  0  0
  125.4928  106.1244  108.6359 C   0  0  0  0  0  0  0  0  0  0  0  0
  124.8333  104.6295  106.7049 C   0  0  0  0  0  0  0  0  0  0  0  0
  124.5636  107.2129  108.1098 C   0  0  0  0  0  0  0  0  0  0  0  0
  123.8909  105.7117  106.1560 C   0  0  2  0  0  0  0  0  0  0  0  0
  124.3709  107.1069  106.5960 C   0  0  1  0  0  0  0  0  0  0  0  0
  122.4324  105.4297  106.5395 C   0  0  0  0  0  0  0  0  0  0  0  0
  119.9436  103.6582  103.4067 N   0  0  0  0  0  0  0  0  0  0  0  0
  121.5931  106.4563  106.0221 N   0  0  0  0  0  0  0  0  0  0  0  0
  121.6514  105.4073  103.6620 O   0  0  0  0  0  0  0  0  0  0  0  0
  120.5303  107.6405  103.9449 O   0  0  0  0  0  0  0  0  0  0  0  0
  123.4500  108.1003  106.1577 O   0  0  0  0  0  0  0  0  0  0  0  0
  120.8633  106.3265  104.4606 S   0  0  0  0  0  0  0  0  0  0  0  0
  115.4607  103.4515  105.8627 Cl  0  0  0  0  0  0  0  0  0  0  0  0
  118.7392  107.6629  106.4697 Cl  0  0  0  0  0  0  0  0  0  0  0  0
  117.6199  102.6782  104.1633 H   0  0  0  0  0  0  0  0  0  0  0  0
  116.5230  105.9491  106.7295 H   0  0  0  0  0  0  0  0  0  0  0  0
  125.7831  103.9923  108.5326 H   0  0  0  0  0  0  0  0  0  0  0  0
  124.1016  104.4774  108.7298 H   0  0  0  0  0  0  0  0  0  0  0  0
  125.5437  106.1763  109.7325 H   0  0  0  0  0  0  0  0  0  0  0  0
  126.5123  106.3011  108.2681 H   0  0  0  0  0  0  0  0  0  0  0  0
  125.8143  104.7015  106.2072 H   0  0  0  0  0  0  0  0  0  0  0  0
  124.4423  103.6278  106.4592 H   0  0  0  0  0  0  0  0  0  0  0  0
  123.5964  107.1236  108.6163 H   0  0  0  0  0  0  0  0  0  0  0  0
  124.9782  108.1963  108.3576 H   0  0  0  0  0  0  0  0  0  0  0  0
  123.9540  105.6791  105.0534 H   0  0  0  0  0  0  0  0  0  0  0  0
  125.3380  107.3312  106.0994 H   0  0  0  0  0  0  0  0  0  0  0  0
  122.3567  105.4117  107.6179 H   0  0  0  0  0  0  0  0  0  0  0  0
  122.1383  104.4783  106.1192 H   0  0  0  0  0  0  0  0  0  0  0  0
  119.7226  102.7493  103.0569 H   0  0  0  0  0  0  0  0  0  0  0  0
  120.8238  104.0910  103.2186 H   0  0  0  0  0  0  0  0  0  0  0  0
  121.0959  107.0814  106.7014 H   0  0  0  0  0  0  0  0  0  0  0  0
  123.8354  108.9571  106.3969 H   0  0  0  0  0  0  0  0  0  0  0  0
  1  3  2  0  0  0  0
  1  5  1  0  0  0  0
  2  5  2  0  0  0  0
  2  6  1  0  0  0  0
  3  4  1  0  0  0  0
  3 14  1  0  0  0  0
  4  6  2  0  0  0  0
  4 19  1  0  0  0  0
  5 20  1  0  0  0  0
  6 21  1  0  0  0  0
  7  8  1  0  0  0  0
  7  9  1  0  0  0  0
  8 10  1  0  0  0  0
  9 11  1  0  0  0  0
 10 12  1  0  0  0  0
 11 12  1  0  0  0  0
 11 13  1  0  0  0  0
 12 18  1  0  0  0  0
 13 15  1  0  0  0  0
 15 19  1  0  0  0  0
 16 19  2  0  0  0  0
 17 19  2  0  0  0  0
  1 22  1  0  0  0  0
  2 23  1  0  0  0  0
  7 24  1  0  0  0  0
  7 25  1  0  0  0  0
  8 26  1  0  0  0  0
  8 27  1  0  0  0  0
  9 28  1  0  0  0  0
  9 29  1  0  0  0  0
 10 30  1  0  0  0  0
 10 31  1  0  0  0  0
 11 32  1  0  0  0  0
 12 33  1  0  0  0  0
 13 34  1  0  0  0  0
 13 35  1  0  0  0  0
 14 36  1  0  0  0  0
 14 37  1  0  0  0  0
 15 38  1  0  0  0  0
 18 39  1  0  0  0  0
M  END
> <FRED Chemgauss4 score>
-10.514524

$$$$
C49589096	P74062086
  -OEChem-05122015313D

 37 38  0     1  0  0  0  0  0999 V2000
  115.7541  105.8418  104.6725 C   0  0  0  0  0  0  0  0  0  0  0  0
  114.6090  106.2046  104.6718 C   0  0  0  0  0  0  0  0  0  0  0  0
  118.1191  106.2624  104.2142 C   0  0  0  0  0  0  0  0  0  0  0  0
  117.4426  104.1363  105.1412 C   0  0  0  0  0  0  0  0  0  0  0  0
  119.4488  105.8411  104.2184 C   0  0  0  0  0  0  0  0  0  0  0  0
  118.7723  103.7150  105.1454 C   0  0  0  0  0  0  0  0  0  0  0  0
  117.1160  105.4100  104.6757 C   0  0  0  0  0  0  0  0  0  0  0  0
  119.7754  104.5674  104.6840 C   0  0  0  0  0  0  0  0  0  0  0  0
  125.1621  104.1265  107.8147 C   0  0  0  0  0  0  0  0  0  0  0  0
  122.4208  105.2295  106.5477 C   0  0  0  0  0  0  0  0  0  0  0  0
  123.7251  106.2079  108.4551 C   0  0  0  0  0  0  0  0  0  0  0  0
  122.9309  105.0224  107.9411 C   0  0  2  0  0  0  0  0  0  0  0  0
  113.2074  106.6495  104.6700 C   0  0  0  0  0  0  0  0  0  0  0  0
  121.2065  104.1133  104.6870 C   0  0  0  0  0  0  0  0  0  0  0  0
  112.6945  106.8797  106.0848 C   0  0  0  0  0  0  0  0  0  0  0  0
  123.8085  103.8801  107.8802 N   0  0  0  0  0  0  0  0  0  0  0  0
  121.7762  104.1293  106.0152 N   0  0  0  0  0  0  0  0  0  0  0  0
  126.0608  103.3092  107.6848 O   0  0  0  0  0  0  0  0  0  0  0  0
  122.5965  106.3086  105.9941 O   0  0  0  0  0  0  0  0  0  0  0  0
  112.8155  105.6791  106.8377 O   0  0  0  0  0  0  0  0  0  0  0  0
  125.4407  105.8588  107.9560 S   0  0  0  0  0  0  0  0  0  0  0  0
  117.8805  107.2589  103.8501 H   0  0  0  0  0  0  0  0  0  0  0  0
  116.6720  103.4595  105.5027 H   0  0  0  0  0  0  0  0  0  0  0  0
  120.2238  106.5122  103.8579 H   0  0  0  0  0  0  0  0  0  0  0  0
  119.0173  102.7202  105.5082 H   0  0  0  0  0  0  0  0  0  0  0  0
  123.3860  107.1683  108.0570 H   0  0  0  0  0  0  0  0  0  0  0  0
  123.6974  106.2444  109.5489 H   0  0  0  0  0  0  0  0  0  0  0  0
  122.0793  104.7869  108.5863 H   0  0  0  0  0  0  0  0  0  0  0  0
  113.1239  107.5737  104.0867 H   0  0  0  0  0  0  0  0  0  0  0  0
  112.5902  105.8877  104.1808 H   0  0  0  0  0  0  0  0  0  0  0  0
  121.2886  103.0929  104.2970 H   0  0  0  0  0  0  0  0  0  0  0  0
  121.8239  104.7556  104.0502 H   0  0  0  0  0  0  0  0  0  0  0  0
  113.2977  107.6482  106.5788 H   0  0  0  0  0  0  0  0  0  0  0  0
  111.6458  107.1955  106.0900 H   0  0  0  0  0  0  0  0  0  0  0  0
  123.4436  102.9325  107.8854 H   0  0  0  0  0  0  0  0  0  0  0  0
  121.6990  103.2918  106.5844 H   0  0  0  0  0  0  0  0  0  0  0  0
  112.4787  105.8723  107.7272 H   0  0  0  0  0  0  0  0  0  0  0  0
  1  2  3  0  0  0  0
  1  7  1  0  0  0  0
  2 13  1  0  0  0  0
  3  5  1  0  0  0  0
  3  7  2  0  0  0  0
  4  6  2  0  0  0  0
  4  7  1  0  0  0  0
  5  8  2  0  0  0  0
  6  8  1  0  0  0  0
  8 14  1  0  0  0  0
  9 16  1  0  0  0  0
  9 18  2  0  0  0  0
  9 21  1  0  0  0  0
 10 12  1  0  0  0  0
 10 17  1  0  0  0  0
 10 19  2  0  0  0  0
 11 12  1  0  0  0  0
 11 21  1  0  0  0  0
 12 16  1  0  0  0  0
 13 15  1  0  0  0  0
 14 17  1  0  0  0  0
 15 20  1  0  0  0  0
  3 22  1  0  0  0  0
  4 23  1  0  0  0  0
  5 24  1  0  0  0  0
  6 25  1  0  0  0  0
 11 26  1  0  0  0  0
 11 27  1  0  0  0  0
 12 28  1  0  0  0  0
 13 29  1  0  0  0  0
 13 30  1  0  0  0  0
 14 31  1  0  0  0  0
 14 32  1  0  0  0  0
 15 33  1  0  0  0  0
 15 34  1  0  0  0  0
 16 35  1  0  0  0  0
 17 36  1  0  0  0  0
 20 37  1  0  0  0  0
M  END
> <FRED Chemgauss4 score>
-10.512751

$$$$
C90312824	P141186511
  -OEChem-05122015313D

 36 37  0     1  0  0  0  0  0999 V2000
  124.0175  103.9343  107.0042 C   0  0  0  0  0  0  0  0  0  0  0  0
  125.2020  104.6905  107.2393 C   0  0  0  0  0  0  0  0  0  0  0  0
  123.0119  104.7035  106.4612 C   0  0  0  0  0  0  0  0  0  0  0  0
  125.0567  106.0088  106.8668 C   0  0  0  0  0  0  0  0  0  0  0  0
  123.8354  108.4353  110.8497 C   0  0  0  0  0  0  0  0  0  0  0  0
  123.5880  107.5355  109.6268 C   0  0  2  0  0  0  0  0  0  0  0  0
  124.4239  108.5133  108.7674 C   0  0  1  0  0  0  0  0  0  0  0  0
  124.3136  109.5622  109.9082 C   0  0  1  0  0  0  0  0  0  0  0  0
  121.6441  104.2928  106.0769 C   0  0  0  0  0  0  0  0  0  0  0  0
  122.3779  112.6425  110.4996 C   0  0  0  0  0  0  0  0  0  0  0  0
  123.3814  111.5423  110.7723 C   0  0  0  0  0  0  0  0  0  0  0  0
  122.1834  107.6535  109.2360 N   0  0  0  0  0  0  0  0  0  0  0  0
  125.8213  108.0552  108.4368 N   0  0  0  0  0  0  0  0  0  0  0  0
  127.5044  106.9138  106.8621 O   0  0  0  0  0  0  0  0  0  0  0  0
  125.6656  108.3398  105.9082 O   0  0  0  0  0  0  0  0  0  0  0  0
  123.3702  110.6298  109.6906 O   0  0  0  0  0  0  0  0  0  0  0  0
  123.4972  106.3303  106.2369 S   0  0  0  0  0  0  0  0  0  0  0  0
  126.1404  107.4047  106.9101 S   0  0  0  0  0  0  0  0  0  0  0  0
  123.9125  102.8794  107.2237 H   0  0  0  0  0  0  0  0  0  0  0  0
  126.1136  104.2864  107.6602 H   0  0  0  0  0  0  0  0  0  0  0  0
  122.9428  108.7095  111.4438 H   0  0  0  0  0  0  0  0  0  0  0  0
  124.5968  108.0619  111.5557 H   0  0  0  0  0  0  0  0  0  0  0  0
  123.9690  106.5121  109.7067 H   0  0  0  0  0  0  0  0  0  0  0  0
  123.9387  108.8510  107.8418 H   0  0  0  0  0  0  0  0  0  0  0  0
  125.2862  109.9830  110.2141 H   0  0  0  0  0  0  0  0  0  0  0  0
  120.9449  104.4131  106.9192 H   0  0  0  0  0  0  0  0  0  0  0  0
  121.2592  104.8861  105.2314 H   0  0  0  0  0  0  0  0  0  0  0  0
  121.6067  103.2391  105.7549 H   0  0  0  0  0  0  0  0  0  0  0  0
  122.6314  113.1837  109.5839 H   0  0  0  0  0  0  0  0  0  0  0  0
  121.3693  112.2285  110.3980 H   0  0  0  0  0  0  0  0  0  0  0  0
  122.3480  113.3525  111.3328 H   0  0  0  0  0  0  0  0  0  0  0  0
  123.1221  111.0050  111.6894 H   0  0  0  0  0  0  0  0  0  0  0  0
  124.3886  111.9575  110.8727 H   0  0  0  0  0  0  0  0  0  0  0  0
  121.4860  107.5671  109.9458 H   0  0  0  0  0  0  0  0  0  0  0  0
  121.9578  107.6114  108.2638 H   0  0  0  0  0  0  0  0  0  0  0  0
  126.5522  108.5147  108.9701 H   0  0  0  0  0  0  0  0  0  0  0  0
  1  2  1  0  0  0  0
  1  3  2  0  0  0  0
  2  4  2  0  0  0  0
  3  9  1  0  0  0  0
  3 17  1  0  0  0  0
  4 17  1  0  0  0  0
  4 18  1  0  0  0  0
  5  6  1  0  0  0  0
  5  8  1  0  0  0  0
  6  7  1  0  0  0  0
  6 12  1  0  0  0  0
  7  8  1  0  0  0  0
  7 13  1  0  0  0  0
  8 16  1  0  0  0  0
 10 11  1  0  0  0  0
 11 16  1  0  0  0  0
 13 18  1  0  0  0  0
 14 18  2  0  0  0  0
 15 18  2  0  0  0  0
  1 19  1  0  0  0  0
  2 20  1  0  0  0  0
  5 21  1  0  0  0  0
  5 22  1  0  0  0  0
  6 23  1  0  0  0  0
  7 24  1  0  0  0  0
  8 25  1  0  0  0  0
  9 26  1  0  0  0  0
  9 27  1  0  0  0  0
  9 28  1  0  0  0  0
 10 29  1  0  0  0  0
 10 30  1  0  0  0  0
 10 31  1  0  0  0  0
 11 32  1  0  0  0  0
 11 33  1  0  0  0  0
 12 34  1  0  0  0  0
 12 35  1  0  0  0  0
 13 36  1  0  0  0  0
M  END
> <FRED Chemgauss4 score>
-10.510253

$$$$
C94468140	P148078016
  -OEChem-05122015313D

 44 45  0     1  0  0  0  0  0999 V2000
  126.4772  106.6960  107.5626 C   0  0  0  0  0  0  0  0  0  0  0  0
  118.2164  103.5747  104.2284 C   0  0  0  0  0  0  0  0  0  0  0  0
  118.5157  103.7907  105.7161 C   0  0  0  0  0  0  0  0  0  0  0  0
  119.4814  104.0132  103.4860 C   0  0  0  0  0  0  0  0  0  0  0  0
  120.5502  104.8286  106.9213 C   0  0  0  0  0  0  0  0  0  0  0  0
  121.6172  104.9912  104.2392 C   0  0  0  0  0  0  0  0  0  0  0  0
  120.0170  104.0192  105.7438 C   0  0  2  0  0  0  0  0  0  0  0  0
  122.2469  105.7835  105.4126 C   0  0  1  0  0  0  0  0  0  0  0  0
  121.7877  107.2503  105.4004 C   0  0  0  0  0  0  0  0  0  0  0  0
  125.9187  105.8561  108.6998 C   0  0  0  0  0  0  0  0  0  0  0  0
  124.4671  105.4241  108.4911 C   0  0  0  0  0  0  0  0  0  0  0  0
  124.3027  104.5112  107.2696 C   0  0  0  0  0  0  0  0  0  0  0  0
  122.8569  104.0695  107.0307 C   0  0  0  0  0  0  0  0  0  0  0  0
  120.2032  104.7669  104.5010 N   0  0  2  0  0  0  0  0  0  0  0  0
  121.9700  105.1992  106.7479 N   0  0  2  0  0  0  0  0  0  0  0  0
  127.3866  108.8485  107.0961 N   0  0  0  0  0  0  0  0  0  0  0  0
  126.8775  107.9453  108.0065 N   0  0  0  0  0  0  0  0  0  0  0  0
  126.5333  106.3020  106.4004 O   0  0  0  0  0  0  0  0  0  0  0  0
  117.9915  102.5230  104.0205 H   0  0  0  0  0  0  0  0  0  0  0  0
  117.3488  104.1726  103.9283 H   0  0  0  0  0  0  0  0  0  0  0  0
  117.9669  104.6672  106.0814 H   0  0  0  0  0  0  0  0  0  0  0  0
  118.2164  102.9287  106.3201 H   0  0  0  0  0  0  0  0  0  0  0  0
  120.0426  103.1308  103.1539 H   0  0  0  0  0  0  0  0  0  0  0  0
  119.2435  104.6250  102.6103 H   0  0  0  0  0  0  0  0  0  0  0  0
  119.9286  105.7338  107.0901 H   0  0  0  0  0  0  0  0  0  0  0  0
  120.4370  104.2207  107.8424 H   0  0  0  0  0  0  0  0  0  0  0  0
  121.7421  105.5536  103.3045 H   0  0  0  0  0  0  0  0  0  0  0  0
  122.1499  104.0375  104.1110 H   0  0  0  0  0  0  0  0  0  0  0  0
  120.5300  103.0505  105.6998 H   0  0  0  0  0  0  0  0  0  0  0  0
  123.3284  105.7966  105.2746 H   0  0  0  0  0  0  0  0  0  0  0  0
  120.7119  107.2895  105.5352 H   0  0  0  0  0  0  0  0  0  0  0  0
  122.0536  107.7004  104.4498 H   0  0  0  0  0  0  0  0  0  0  0  0
  122.2770  107.7849  106.2079 H   0  0  0  0  0  0  0  0  0  0  0  0
  125.9791  106.4682  109.6081 H   0  0  0  0  0  0  0  0  0  0  0  0
  126.5583  104.9787  108.8518 H   0  0  0  0  0  0  0  0  0  0  0  0
  123.8264  106.3082  108.3987 H   0  0  0  0  0  0  0  0  0  0  0  0
  124.1362  104.8811  109.3849 H   0  0  0  0  0  0  0  0  0  0  0  0
  124.9137  103.6110  107.4127 H   0  0  0  0  0  0  0  0  0  0  0  0
  124.6862  105.0082  106.3705 H   0  0  0  0  0  0  0  0  0  0  0  0
  122.4818  103.5158  107.8984 H   0  0  0  0  0  0  0  0  0  0  0  0
  122.8329  103.3872  106.1740 H   0  0  0  0  0  0  0  0  0  0  0  0
  128.0916  109.3971  107.5865 H   0  0  0  0  0  0  0  0  0  0  0  0
  127.8894  108.3083  106.3932 H   0  0  0  0  0  0  0  0  0  0  0  0
  126.8114  108.2290  108.9790 H   0  0  0  0  0  0  0  0  0  0  0  0
  1 10  1  0  0  0  0
  1 17  1  0  0  0  0
  1 18  2  0  0  0  0
  2  3  1  0  0  0  0
  2  4  1  0  0  0  0
  3  7  1  0  0  0  0
  4 14  1  0  0  0  0
  5  7  1  0  0  0  0
  5 15  1  0  0  0  0
  6  8  1  0  0  0  0
  6 14  1  0  0  0  0
  7 14  1  0  0  0  0
  8  9  1  0  0  0  0
  8 15  1  0  0  0  0
 10 11  1  0  0  0  0
 11 12  1  0  0  0  0
 12 13  1  0  0  0  0
 13 15  1  0  0  0  0
 16 17  1  0  0  0  0
  2 19  1  0  0  0  0
  2 20  1  0  0  0  0
  3 21  1  0  0  0  0
  3 22  1  0  0  0  0
  4 23  1  0  0  0  0
  4 24  1  0  0  0  0
  5 25  1  0  0  0  0
  5 26  1  0  0  0  0
  6 27  1  0  0  0  0
  6 28  1  0  0  0  0
  7 29  1  0  0  0  0
  8 30  1  0  0  0  0
  9 31  1  0  0  0  0
  9 32  1  0  0  0  0
  9 33  1  0  0  0  0
 10 34  1  0  0  0  0
 10 35  1  0  0  0  0
 11 36  1  0  0  0  0
 11 37  1  0  0  0  0
 12 38  1  0  0  0  0
 12 39  1  0  0  0  0
 13 40  1  0  0  0  0
 13 41  1  0  0  0  0
 16 42  1  0  0  0  0
 16 43  1  0  0  0  0
 17 44  1  0  0  0  0
M  END
> <FRED Chemgauss4 score>
-10.497621

$$$$
C37821635	P56255392
  -OEChem-05122015313D

 41 42  0     1  0  0  0  0  0999 V2000
  126.4485  107.9260  107.0683 C   0  0  0  0  0  0  0  0  0  0  0  0
  123.0804  108.1793  109.2921 C   0  0  0  0  0  0  0  0  0  0  0  0
  125.3245  105.7742  106.5430 C   0  0  0  0  0  0  0  0  0  0  0  0
  122.2465  112.7479  112.1373 C   0  0  0  0  0  0  0  0  0  0  0  0
  122.0949  113.4367  110.8099 C   0  0  0  0  0  0  0  0  0  0  0  0
  123.9177  106.2939  106.2571 C   0  0  0  0  0  0  0  0  0  0  0  0
  125.1604  106.7870  108.8687 C   0  0  0  0  0  0  0  0  0  0  0  0
  126.0252  106.5960  107.6229 C   0  0  2  0  0  0  0  0  0  0  0  0
  121.8755  111.9529  110.9162 C   0  0  0  0  0  0  0  0  0  0  0  0
  123.0708  106.4467  107.5254 C   0  0  1  0  0  0  0  0  0  0  0  0
  122.5925  105.1010  108.0771 C   0  0  0  0  0  0  0  0  0  0  0  0
  123.7968  108.8011  110.4644 C   0  0  0  0  0  0  0  0  0  0  0  0
  122.8542  111.0040  110.3125 C   0  0  0  0  0  0  0  0  0  0  0  0
  123.7862  107.2184  108.5591 N   0  0  0  0  0  0  0  0  0  0  0  0
  127.1574  108.6977  107.9583 N   0  0  0  0  0  0  0  0  0  0  0  0
  122.8949  109.7417  111.0565 N   0  0  0  0  0  0  0  0  0  0  0  0
  126.1890  108.2654  105.9164 O   0  0  0  0  0  0  0  0  0  0  0  0
  121.9293  108.5402  109.0322 O   0  0  0  0  0  0  0  0  0  0  0  0
  125.2673  104.7279  106.8661 H   0  0  0  0  0  0  0  0  0  0  0  0
  125.9076  105.7848  105.6140 H   0  0  0  0  0  0  0  0  0  0  0  0
  123.2468  112.6451  112.5395 H   0  0  0  0  0  0  0  0  0  0  0  0
  121.4784  112.9148  112.8824 H   0  0  0  0  0  0  0  0  0  0  0  0
  121.2252  114.0657  110.6651 H   0  0  0  0  0  0  0  0  0  0  0  0
  122.9937  113.7947  110.3232 H   0  0  0  0  0  0  0  0  0  0  0  0
  123.9973  107.2731  105.7675 H   0  0  0  0  0  0  0  0  0  0  0  0
  123.4169  105.6312  105.5415 H   0  0  0  0  0  0  0  0  0  0  0  0
  125.0760  105.8383  109.4117 H   0  0  0  0  0  0  0  0  0  0  0  0
  125.6512  107.4899  109.5458 H   0  0  0  0  0  0  0  0  0  0  0  0
  126.9525  106.0842  107.9089 H   0  0  0  0  0  0  0  0  0  0  0  0
  120.8578  111.5887  110.8433 H   0  0  0  0  0  0  0  0  0  0  0  0
  122.1693  107.0032  107.2408 H   0  0  0  0  0  0  0  0  0  0  0  0
  123.4501  104.5034  108.3771 H   0  0  0  0  0  0  0  0  0  0  0  0
  122.0344  104.5692  107.3100 H   0  0  0  0  0  0  0  0  0  0  0  0
  121.9505  105.2669  108.9392 H   0  0  0  0  0  0  0  0  0  0  0  0
  124.6909  109.2928  110.0929 H   0  0  0  0  0  0  0  0  0  0  0  0
  124.0553  108.0100  111.1620 H   0  0  0  0  0  0  0  0  0  0  0  0
  123.8611  111.4317  110.3255 H   0  0  0  0  0  0  0  0  0  0  0  0
  122.5829  110.7726  109.2782 H   0  0  0  0  0  0  0  0  0  0  0  0
  127.3366  108.3298  108.8868 H   0  0  0  0  0  0  0  0  0  0  0  0
  127.5086  109.6206  107.7239 H   0  0  0  0  0  0  0  0  0  0  0  0
  123.1747  109.9502  112.0237 H   0  0  0  0  0  0  0  0  0  0  0  0
  1  8  1  0  0  0  0
  1 15  1  0  0  0  0
  1 17  2  0  0  0  0
  2 12  1  0  0  0  0
  2 14  1  0  0  0  0
  2 18  2  0  0  0  0
  3  6  1  0  0  0  0
  3  8  1  0  0  0  0
  4  5  1  0  0  0  0
  4  9  1  0  0  0  0
  5  9  1  0  0  0  0
  6 10  1  0  0  0  0
  7  8  1  0  0  0  0
  7 14  1  0  0  0  0
  9 13  1  0  0  0  0
 10 11  1  0  0  0  0
 10 14  1  0  0  0  0
 12 16  1  0  0  0  0
 13 16  1  0  0  0  0
  3 19  1  0  0  0  0
  3 20  1  0  0  0  0
  4 21  1  0  0  0  0
  4 22  1  0  0  0  0
  5 23  1  0  0  0  0
  5 24  1  0  0  0  0
  6 25  1  0  0  0  0
  6 26  1  0  0  0  0
  7 27  1  0  0  0  0
  7 28  1  0  0  0  0
  8 29  1  0  0  0  0
  9 30  1  0  0  0  0
 10 31  1  0  0  0  0
 11 32  1  0  0  0  0
 11 33  1  0  0  0  0
 11 34  1  0  0  0  0
 12 35  1  0  0  0  0
 12 36  1  0  0  0  0
 13 37  1  0  0  0  0
 13 38  1  0  0  0  0
 15 39  1  0  0  0  0
 15 40  1  0  0  0  0
 16 41  1  0  0  0  0
M  END
> <FRED Chemgauss4 score>
-10.495458

$$$$
C80531825	P125774743
  -OEChem-05122015313D

 40 41  0     1  0  0  0  0  0999 V2000
  121.8357  104.3830  106.5051 C   0  0  0  0  0  0  0  0  0  0  0  0
  120.8396  106.2492  105.3381 C   0  0  0  0  0  0  0  0  0  0  0  0
  122.9364  105.1749  106.8321 C   0  0  0  0  0  0  0  0  0  0  0  0
  121.9402  107.0412  105.6652 C   0  0  0  0  0  0  0  0  0  0  0  0
  120.7874  104.9201  105.7580 C   0  0  0  0  0  0  0  0  0  0  0  0
  122.9886  106.5040  106.4122 C   0  0  0  0  0  0  0  0  0  0  0  0
  123.3717  110.4791  111.6932 C   0  0  0  0  0  0  0  0  0  0  0  0
  122.9770  109.0176  110.2561 C   0  0  0  0  0  0  0  0  0  0  0  0
  123.8916  111.7078  112.3046 C   0  0  0  0  0  0  0  0  0  0  0  0
  118.4894  104.1223  106.4559 C   0  0  0  0  0  0  0  0  0  0  0  0
  124.8347  106.7369  109.4312 C   0  0  0  0  0  0  0  0  0  0  0  0
  122.8660  108.1593  109.0292 C   0  0  0  0  0  0  0  0  0  0  0  0
  119.6108  104.0734  105.4075 C   0  0  1  0  0  0  0  0  0  0  0  0
  123.6019  110.1650  110.3844 N   0  0  0  0  0  0  0  0  0  0  0  0
  122.6437  109.5982  112.3828 N   0  0  0  0  0  0  0  0  0  0  0  0
  122.4043  108.6734  111.4407 N   0  0  0  0  0  0  0  0  0  0  0  0
  119.0535  104.4115  104.1087 N   0  0  0  0  0  0  0  0  0  0  0  0
  124.1967  107.7294  108.5295 N   0  0  2  0  0  0  0  0  0  0  0  0
  125.5762  106.7220  106.5728 O   0  0  0  0  0  0  0  0  0  0  0  0
  124.2138  108.7846  106.1558 O   0  0  0  0  0  0  0  0  0  0  0  0
  124.3850  107.5104  106.8293 S   0  0  0  0  0  0  0  0  0  0  0  0
  121.8039  103.3484  106.8363 H   0  0  0  0  0  0  0  0  0  0  0  0
  120.0276  106.6761  104.7553 H   0  0  0  0  0  0  0  0  0  0  0  0
  123.7481  104.7464  107.4141 H   0  0  0  0  0  0  0  0  0  0  0  0
  121.9709  108.0754  105.3325 H   0  0  0  0  0  0  0  0  0  0  0  0
  123.1772  112.5452  112.2032 H   0  0  0  0  0  0  0  0  0  0  0  0
  124.1028  111.5857  113.3840 H   0  0  0  0  0  0  0  0  0  0  0  0
  124.8464  112.0343  111.8499 H   0  0  0  0  0  0  0  0  0  0  0  0
  118.1379  105.1500  106.5988 H   0  0  0  0  0  0  0  0  0  0  0  0
  117.6332  103.5101  106.1511 H   0  0  0  0  0  0  0  0  0  0  0  0
  118.8269  103.7426  107.4269 H   0  0  0  0  0  0  0  0  0  0  0  0
  125.8100  106.4421  109.0354 H   0  0  0  0  0  0  0  0  0  0  0  0
  124.2063  105.8463  109.5179 H   0  0  0  0  0  0  0  0  0  0  0  0
  124.9740  107.1658  110.4272 H   0  0  0  0  0  0  0  0  0  0  0  0
  122.2778  107.2594  109.2396 H   0  0  0  0  0  0  0  0  0  0  0  0
  122.3613  108.6956  108.2188 H   0  0  0  0  0  0  0  0  0  0  0  0
  119.9158  103.0161  105.3139 H   0  0  0  0  0  0  0  0  0  0  0  0
  121.8552  107.8555  111.6781 H   0  0  0  0  0  0  0  0  0  0  0  0
  118.0994  104.1746  103.9236 H   0  0  0  0  0  0  0  0  0  0  0  0
  119.6806  104.6792  103.3766 H   0  0  0  0  0  0  0  0  0  0  0  0
  1  3  2  0  0  0  0
  1  5  1  0  0  0  0
  2  4  1  0  0  0  0
  2  5  2  0  0  0  0
  3  6  1  0  0  0  0
  4  6  2  0  0  0  0
  5 13  1  0  0  0  0
  6 21  1  0  0  0  0
  7  9  1  0  0  0  0
  7 14  1  0  0  0  0
  7 15  2  0  0  0  0
  8 12  1  0  0  0  0
  8 14  2  0  0  0  0
  8 16  1  0  0  0  0
 10 13  1  0  0  0  0
 11 18  1  0  0  0  0
 12 18  1  0  0  0  0
 13 17  1  0  0  0  0
 15 16  1  0  0  0  0
 18 21  1  0  0  0  0
 19 21  2  0  0  0  0
 20 21  2  0  0  0  0
  1 22  1  0  0  0  0
  2 23  1  0  0  0  0
  3 24  1  0  0  0  0
  4 25  1  0  0  0  0
  9 26  1  0  0  0  0
  9 27  1  0  0  0  0
  9 28  1  0  0  0  0
 10 29  1  0  0  0  0
 10 30  1  0  0  0  0
 10 31  1  0  0  0  0
 11 32  1  0  0  0  0
 11 33  1  0  0  0  0
 11 34  1  0  0  0  0
 12 35  1  0  0  0  0
 12 36  1  0  0  0  0
 13 37  1  0  0  0  0
 16 38  1  0  0  0  0
 17 39  1  0  0  0  0
 17 40  1  0  0  0  0
M  END
> <FRED Chemgauss4 score>
-10.491238

$$$$
C97373805	P154225540
  -OEChem-05122015313D

 46 48  0     1  0  0  0  0  0999 V2000
  125.1725  104.2439  107.0670 C   0  0  0  0  0  0  0  0  0  0  0  0
  125.5396  106.2846  108.3070 C   0  0  0  0  0  0  0  0  0  0  0  0
  125.9797  103.5507  107.9689 C   0  0  0  0  0  0  0  0  0  0  0  0
  126.3468  105.5914  109.2090 C   0  0  0  0  0  0  0  0  0  0  0  0
  114.1861  106.2831  106.8152 C   0  0  0  0  0  0  0  0  0  0  0  0
  115.4616  106.7643  106.6362 C   0  0  0  0  0  0  0  0  0  0  0  0
  115.2482  104.7257  105.8268 C   0  0  0  0  0  0  0  0  0  0  0  0
  124.9525  105.6109  107.2360 C   0  0  0  0  0  0  0  0  0  0  0  0
  126.5668  104.2243  109.0399 C   0  0  0  0  0  0  0  0  0  0  0  0
  124.5014  107.8156  106.1263 C   0  0  0  0  0  0  0  0  0  0  0  0
  120.3566  106.9990  106.1786 C   0  0  0  0  0  0  0  0  0  0  0  0
  120.7531  104.8830  107.2654 C   0  0  0  0  0  0  0  0  0  0  0  0
  121.8233  107.0468  105.7369 C   0  0  0  0  0  0  0  0  0  0  0  0
  122.2195  104.9306  106.8224 C   0  0  0  0  0  0  0  0  0  0  0  0
  117.5300  105.7731  105.5871 C   0  0  0  0  0  0  0  0  0  0  0  0
  118.5001  105.5682  106.7456 C   0  0  0  0  0  0  0  0  0  0  0  0
  124.0760  106.3628  106.2592 C   0  0  2  0  0  0  0  0  0  0  0  0
  114.0599  105.0135  106.3094 N   0  0  0  0  0  0  0  0  0  0  0  0
  116.1304  105.7554  106.0022 N   0  0  0  0  0  0  0  0  0  0  0  0
  119.8978  105.6118  106.3206 N   0  0  0  0  0  0  0  0  0  0  0  0
  122.6778  106.3181  106.6824 N   0  0  0  0  0  0  0  0  0  0  0  0
  123.9004  108.6413  107.0524 N   0  0  0  0  0  0  0  0  0  0  0  0
  125.3062  108.2133  105.2868 O   0  0  0  0  0  0  0  0  0  0  0  0
  127.5623  103.3689  110.1525 Cl  0  0  0  0  0  0  0  0  0  0  0  0
  124.7188  103.7119  106.2349 H   0  0  0  0  0  0  0  0  0  0  0  0
  125.3730  107.3496  108.4459 H   0  0  0  0  0  0  0  0  0  0  0  0
  126.1419  102.4856  107.8246 H   0  0  0  0  0  0  0  0  0  0  0  0
  126.7977  106.1295  110.0388 H   0  0  0  0  0  0  0  0  0  0  0  0
  113.3523  106.7863  107.2826 H   0  0  0  0  0  0  0  0  0  0  0  0
  115.9329  107.7020  106.8956 H   0  0  0  0  0  0  0  0  0  0  0  0
  115.5265  103.7983  105.3449 H   0  0  0  0  0  0  0  0  0  0  0  0
  120.2371  107.5497  107.1216 H   0  0  0  0  0  0  0  0  0  0  0  0
  119.7518  107.5137  105.4219 H   0  0  0  0  0  0  0  0  0  0  0  0
  120.4414  103.8325  107.3127 H   0  0  0  0  0  0  0  0  0  0  0  0
  120.6598  105.2973  108.2785 H   0  0  0  0  0  0  0  0  0  0  0  0
  121.9175  106.6324  104.7238 H   0  0  0  0  0  0  0  0  0  0  0  0
  122.1350  108.0973  105.6897 H   0  0  0  0  0  0  0  0  0  0  0  0
  122.8244  104.4151  107.5782 H   0  0  0  0  0  0  0  0  0  0  0  0
  122.3383  104.3811  105.8786 H   0  0  0  0  0  0  0  0  0  0  0  0
  117.7105  106.7445  105.1113 H   0  0  0  0  0  0  0  0  0  0  0  0
  117.6645  105.0050  104.8162 H   0  0  0  0  0  0  0  0  0  0  0  0
  118.3697  106.3620  107.4875 H   0  0  0  0  0  0  0  0  0  0  0  0
  118.3371  104.6053  107.2404 H   0  0  0  0  0  0  0  0  0  0  0  0
  124.1294  105.8930  105.2694 H   0  0  0  0  0  0  0  0  0  0  0  0
  123.2457  108.2962  107.7470 H   0  0  0  0  0  0  0  0  0  0  0  0
  124.1025  109.6353  107.0722 H   0  0  0  0  0  0  0  0  0  0  0  0
  1  3  1  0  0  0  0
  1  8  2  0  0  0  0
  2  4  2  0  0  0  0
  2  8  1  0  0  0  0
  3  9  2  0  0  0  0
  4  9  1  0  0  0  0
  5  6  2  0  0  0  0
  5 18  1  0  0  0  0
  6 19  1  0  0  0  0
  7 18  2  0  0  0  0
  7 19  1  0  0  0  0
  8 17  1  0  0  0  0
  9 24  1  0  0  0  0
 10 17  1  0  0  0  0
 10 22  1  0  0  0  0
 10 23  2  0  0  0  0
 11 13  1  0  0  0  0
 11 20  1  0  0  0  0
 12 14  1  0  0  0  0
 12 20  1  0  0  0  0
 13 21  1  0  0  0  0
 14 21  1  0  0  0  0
 15 16  1  0  0  0  0
 15 19  1  0  0  0  0
 16 20  1  0  0  0  0
 17 21  1  0  0  0  0
  1 25  1  0  0  0  0
  2 26  1  0  0  0  0
  3 27  1  0  0  0  0
  4 28  1  0  0  0  0
  5 29  1  0  0  0  0
  6 30  1  0  0  0  0
  7 31  1  0  0  0  0
 11 32  1  0  0  0  0
 11 33  1  0  0  0  0
 12 34  1  0  0  0  0
 12 35  1  0  0  0  0
 13 36  1  0  0  0  0
 13 37  1  0  0  0  0
 14 38  1  0  0  0  0
 14 39  1  0  0  0  0
 15 40  1  0  0  0  0
 15 41  1  0  0  0  0
 16 42  1  0  0  0  0
 16 43  1  0  0  0  0
 17 44  1  0  0  0  0
 22 45  1  0  0  0  0
 22 46  1  0  0  0  0
M  END
> <FRED Chemgauss4 score>
-10.481290

$$$$
C78564008	P122600660
  -OEChem-05122015313D

 40 42  0     0  0  0  0  0  0999 V2000
  124.0956  109.1821  107.7101 C   0  0  0  0  0  0  0  0  0  0  0  0
  123.5457  108.2872  106.7908 C   0  0  0  0  0  0  0  0  0  0  0  0
  122.1818  107.3237  108.5358 C   0  0  0  0  0  0  0  0  0  0  0  0
  118.5327  103.4389  106.0893 C   0  0  0  0  0  0  0  0  0  0  0  0
  123.6857  109.1462  109.0476 C   0  0  0  0  0  0  0  0  0  0  0  0
  122.5901  107.3593  107.2029 C   0  0  0  0  0  0  0  0  0  0  0  0
  122.7332  108.2200  109.4549 C   0  0  0  0  0  0  0  0  0  0  0  0
  119.5051  104.3474  105.7270 C   0  0  0  0  0  0  0  0  0  0  0  0
  117.7407  105.4752  105.0750 C   0  0  0  0  0  0  0  0  0  0  0  0
  124.2534  110.0849  110.0356 C   0  0  0  0  0  0  0  0  0  0  0  0
  122.8054  109.0204  111.7692 C   0  0  0  0  0  0  0  0  0  0  0  0
  122.0200  106.4280  106.2425 C   0  0  0  0  0  0  0  0  0  0  0  0
  116.7386  107.7408  105.4613 C   0  0  0  0  0  0  0  0  0  0  0  0
  124.3179  110.8769  112.3732 C   0  0  0  0  0  0  0  0  0  0  0  0
  120.9843  104.1689  105.9118 C   0  0  0  0  0  0  0  0  0  0  0  0
  116.8993  106.5522  104.5094 C   0  0  0  0  0  0  0  0  0  0  0  0
  119.0528  105.5155  105.1449 N   0  0  0  0  0  0  0  0  0  0  0  0
  122.3205  108.1799  110.7884 N   0  0  0  0  0  0  0  0  0  0  0  0
  123.7750  109.9649  111.3600 N   0  0  0  0  0  0  0  0  0  0  0  0
  121.5547  105.2057  106.7416 N   0  0  0  0  0  0  0  0  0  0  0  0
  125.0920  110.8994  109.6558 O   0  0  0  0  0  0  0  0  0  0  0  0
  121.9764  106.7158  105.0332 O   0  0  0  0  0  0  0  0  0  0  0  0
  122.1925  108.8300  113.3291 S   0  0  0  0  0  0  0  0  0  0  0  0
  116.9856  104.0628  105.6913 S   0  0  0  0  0  0  0  0  0  0  0  0
  124.8391  109.8952  107.3651 H   0  0  0  0  0  0  0  0  0  0  0  0
  123.8713  108.3229  105.7542 H   0  0  0  0  0  0  0  0  0  0  0  0
  121.4363  106.5996  108.8570 H   0  0  0  0  0  0  0  0  0  0  0  0
  118.6496  102.4701  106.5541 H   0  0  0  0  0  0  0  0  0  0  0  0
  116.3256  107.4164  106.4225 H   0  0  0  0  0  0  0  0  0  0  0  0
  116.0666  108.4955  105.0409 H   0  0  0  0  0  0  0  0  0  0  0  0
  117.7055  108.2176  105.6548 H   0  0  0  0  0  0  0  0  0  0  0  0
  123.7119  111.7852  112.4246 H   0  0  0  0  0  0  0  0  0  0  0  0
  125.3454  111.1532  112.1213 H   0  0  0  0  0  0  0  0  0  0  0  0
  124.3151  110.3959  113.3550 H   0  0  0  0  0  0  0  0  0  0  0  0
  121.2010  103.2034  106.3818 H   0  0  0  0  0  0  0  0  0  0  0  0
  121.5055  104.1861  104.9489 H   0  0  0  0  0  0  0  0  0  0  0  0
  117.3174  106.9216  103.5542 H   0  0  0  0  0  0  0  0  0  0  0  0
  115.8933  106.1733  104.2481 H   0  0  0  0  0  0  0  0  0  0  0  0
  121.6217  107.4896  111.0498 H   0  0  0  0  0  0  0  0  0  0  0  0
  121.6717  104.9957  107.7274 H   0  0  0  0  0  0  0  0  0  0  0  0
  1  2  2  0  0  0  0
  1  5  1  0  0  0  0
  2  6  1  0  0  0  0
  3  6  2  0  0  0  0
  3  7  1  0  0  0  0
  4  8  2  0  0  0  0
  4 24  1  0  0  0  0
  5  7  2  0  0  0  0
  5 10  1  0  0  0  0
  6 12  1  0  0  0  0
  7 18  1  0  0  0  0
  8 15  1  0  0  0  0
  8 17  1  0  0  0  0
  9 16  1  0  0  0  0
  9 17  2  0  0  0  0
  9 24  1  0  0  0  0
 10 19  1  0  0  0  0
 10 21  2  0  0  0  0
 11 18  1  0  0  0  0
 11 19  1  0  0  0  0
 11 23  2  0  0  0  0
 12 20  1  0  0  0  0
 12 22  2  0  0  0  0
 13 16  1  0  0  0  0
 14 19  1  0  0  0  0
 15 20  1  0  0  0  0
  1 25  1  0  0  0  0
  2 26  1  0  0  0  0
  3 27  1  0  0  0  0
  4 28  1  0  0  0  0
 13 29  1  0  0  0  0
 13 30  1  0  0  0  0
 13 31  1  0  0  0  0
 14 32  1  0  0  0  0
 14 33  1  0  0  0  0
 14 34  1  0  0  0  0
 15 35  1  0  0  0  0
 15 36  1  0  0  0  0
 16 37  1  0  0  0  0
 16 38  1  0  0  0  0
 18 39  1  0  0  0  0
 20 40  1  0  0  0  0
M  END
> <FRED Chemgauss4 score>
-10.479622

$$$$
C92852498	P145382574
  -OEChem-05122015313D

 36 38  0     0  0  0  0  0  0999 V2000
  123.6917  110.4234  110.9205 C   0  0  0  0  0  0  0  0  0  0  0  0
  122.5218  108.7905  112.2628 C   0  0  0  0  0  0  0  0  0  0  0  0
  123.5694  111.3570  111.9496 C   0  0  0  0  0  0  0  0  0  0  0  0
  122.3995  109.7240  113.2919 C   0  0  0  0  0  0  0  0  0  0  0  0
  124.2529  108.0043  109.0414 C   0  0  0  0  0  0  0  0  0  0  0  0
  117.9145  104.3724  106.2716 C   0  0  0  0  0  0  0  0  0  0  0  0
  123.1678  109.1402  111.0771 C   0  0  0  0  0  0  0  0  0  0  0  0
  122.9234  111.0073  113.1353 C   0  0  0  0  0  0  0  0  0  0  0  0
  123.2950  108.1744  110.0129 C   0  0  0  0  0  0  0  0  0  0  0  0
  119.9965  104.2924  106.1449 C   0  0  0  0  0  0  0  0  0  0  0  0
  122.8251  106.4610  108.7091 C   0  0  0  0  0  0  0  0  0  0  0  0
  117.3720  106.2508  104.6366 C   0  0  0  0  0  0  0  0  0  0  0  0
  121.4525  103.9632  106.3049 C   0  0  0  0  0  0  0  0  0  0  0  0
  122.0682  105.3032  108.1985 C   0  0  0  0  0  0  0  0  0  0  0  0
  123.9544  106.9362  108.2328 N   0  0  0  0  0  0  0  0  0  0  0  0
  118.9994  103.7073  106.7668 N   0  0  0  0  0  0  0  0  0  0  0  0
  119.5159  105.2605  105.3192 N   0  0  0  0  0  0  0  0  0  0  0  0
  122.3868  107.1788  109.7870 N   0  0  0  0  0  0  0  0  0  0  0  0
  118.1776  105.3323  105.3823 N   0  0  0  0  0  0  0  0  0  0  0  0
  122.2240  105.1111  106.7724 N   0  0  0  0  0  0  0  0  0  0  0  0
  122.7605  112.2709  114.5313 Br  0  0  0  0  0  0  0  0  0  0  0  0
  124.1981  110.7115  110.0022 H   0  0  0  0  0  0  0  0  0  0  0  0
  122.1086  107.7940  112.4002 H   0  0  0  0  0  0  0  0  0  0  0  0
  123.9834  112.3527  111.8119 H   0  0  0  0  0  0  0  0  0  0  0  0
  121.8942  109.4351  114.2100 H   0  0  0  0  0  0  0  0  0  0  0  0
  125.1437  108.5939  108.8784 H   0  0  0  0  0  0  0  0  0  0  0  0
  116.9052  104.1338  106.5833 H   0  0  0  0  0  0  0  0  0  0  0  0
  117.2588  107.1606  105.2320 H   0  0  0  0  0  0  0  0  0  0  0  0
  117.8617  106.4751  103.6849 H   0  0  0  0  0  0  0  0  0  0  0  0
  116.3963  105.7979  104.4393 H   0  0  0  0  0  0  0  0  0  0  0  0
  121.5875  103.1498  107.0262 H   0  0  0  0  0  0  0  0  0  0  0  0
  121.8871  103.6318  105.3560 H   0  0  0  0  0  0  0  0  0  0  0  0
  122.3809  104.3597  108.6818 H   0  0  0  0  0  0  0  0  0  0  0  0
  120.9832  105.3948  108.3869 H   0  0  0  0  0  0  0  0  0  0  0  0
  121.5442  107.0023  110.3186 H   0  0  0  0  0  0  0  0  0  0  0  0
  123.2106  104.9570  106.5511 H   0  0  0  0  0  0  0  0  0  0  0  0
  1  3  2  0  0  0  0
  1  7  1  0  0  0  0
  2  4  1  0  0  0  0
  2  7  2  0  0  0  0
  3  8  1  0  0  0  0
  4  8  2  0  0  0  0
  5  9  2  0  0  0  0
  5 15  1  0  0  0  0
  6 16  2  0  0  0  0
  6 19  1  0  0  0  0
  7  9  1  0  0  0  0
  8 21  1  0  0  0  0
  9 18  1  0  0  0  0
 10 13  1  0  0  0  0
 10 16  1  0  0  0  0
 10 17  2  0  0  0  0
 11 14  1  0  0  0  0
 11 15  2  0  0  0  0
 11 18  1  0  0  0  0
 12 19  1  0  0  0  0
 13 20  1  0  0  0  0
 14 20  1  0  0  0  0
 17 19  1  0  0  0  0
  1 22  1  0  0  0  0
  2 23  1  0  0  0  0
  3 24  1  0  0  0  0
  4 25  1  0  0  0  0
  5 26  1  0  0  0  0
  6 27  1  0  0  0  0
 12 28  1  0  0  0  0
 12 29  1  0  0  0  0
 12 30  1  0  0  0  0
 13 31  1  0  0  0  0
 13 32  1  0  0  0  0
 14 33  1  0  0  0  0
 14 34  1  0  0  0  0
 18 35  1  0  0  0  0
 20 36  1  0  0  0  0
M  END
> <FRED Chemgauss4 score>
-10.468211

$$$$
C67783339	P104079223
  -OEChem-05122015313D

 43 44  0     1  0  0  0  0  0999 V2000
  121.0737  105.1027  104.1702 C   0  0  0  0  0  0  0  0  0  0  0  0
  119.7866  104.9950  103.6437 C   0  0  0  0  0  0  0  0  0  0  0  0
  120.2599  104.3451  106.3151 C   0  0  0  0  0  0  0  0  0  0  0  0
  121.3104  104.7777  105.5059 C   0  0  0  0  0  0  0  0  0  0  0  0
  118.9727  104.2375  105.7887 C   0  0  0  0  0  0  0  0  0  0  0  0
  118.7360  104.5625  104.4530 C   0  0  0  0  0  0  0  0  0  0  0  0
  124.4674  104.8402  107.5247 C   0  0  0  0  0  0  0  0  0  0  0  0
  123.0151  104.6055  107.3350 C   0  0  0  0  0  0  0  0  0  0  0  0
  123.7995  110.3520  111.5137 C   0  0  0  0  0  0  0  0  0  0  0  0
  126.5568  107.8581  107.6495 C   0  0  0  0  0  0  0  0  0  0  0  0
  125.7102  108.9104  108.3710 C   0  0  0  0  0  0  0  0  0  0  0  0
  126.2430  106.4423  108.1134 C   0  0  0  0  0  0  0  0  0  0  0  0
  123.8570  107.2003  108.1459 C   0  0  0  0  0  0  0  0  0  0  0  0
  124.4334  108.3323  109.0018 C   0  0  2  0  0  0  0  0  0  0  0  0
  124.4348  111.4867  112.2465 C   0  0  0  0  0  0  0  0  0  0  0  0
  123.3974  109.4277  109.2407 C   0  0  0  0  0  0  0  0  0  0  0  0
  124.8287  106.1219  107.9196 N   0  0  0  0  0  0  0  0  0  0  0  0
  122.6173  104.8875  106.0406 N   0  0  0  0  0  0  0  0  0  0  0  0
  123.9274  110.4084  110.1273 N   0  0  0  0  0  0  0  0  0  0  0  0
  125.1968  103.8832  107.3016 O   0  0  0  0  0  0  0  0  0  0  0  0
  122.3461  104.2087  108.2793 O   0  0  0  0  0  0  0  0  0  0  0  0
  123.2267  109.4708  112.1439 O   0  0  0  0  0  0  0  0  0  0  0  0
  117.9738  103.8198  106.5791 F   0  0  0  0  0  0  0  0  0  0  0  0
  117.1498  104.4321  103.7968 Cl  0  0  0  0  0  0  0  0  0  0  0  0
  121.8850  105.4406  103.5299 H   0  0  0  0  0  0  0  0  0  0  0  0
  119.6179  105.2518  102.6009 H   0  0  0  0  0  0  0  0  0  0  0  0
  120.4327  104.0892  107.3574 H   0  0  0  0  0  0  0  0  0  0  0  0
  126.3996  107.9391  106.5632 H   0  0  0  0  0  0  0  0  0  0  0  0
  127.6226  108.0739  107.8288 H   0  0  0  0  0  0  0  0  0  0  0  0
  126.3257  109.3985  109.1494 H   0  0  0  0  0  0  0  0  0  0  0  0
  125.4443  109.7113  107.6546 H   0  0  0  0  0  0  0  0  0  0  0  0
  126.8231  105.7115  107.5319 H   0  0  0  0  0  0  0  0  0  0  0  0
  126.5431  106.3263  109.1610 H   0  0  0  0  0  0  0  0  0  0  0  0
  122.9492  106.7933  108.6172 H   0  0  0  0  0  0  0  0  0  0  0  0
  123.5559  107.5715  107.1527 H   0  0  0  0  0  0  0  0  0  0  0  0
  124.7093  107.9104  109.9877 H   0  0  0  0  0  0  0  0  0  0  0  0
  123.7433  112.3318  112.3941 H   0  0  0  0  0  0  0  0  0  0  0  0
  124.7657  111.2013  113.2580 H   0  0  0  0  0  0  0  0  0  0  0  0
  125.3242  111.9212  111.7628 H   0  0  0  0  0  0  0  0  0  0  0  0
  122.5164  108.9824  109.6841 H   0  0  0  0  0  0  0  0  0  0  0  0
  123.1534  109.8941  108.2955 H   0  0  0  0  0  0  0  0  0  0  0  0
  123.3248  105.2104  105.3836 H   0  0  0  0  0  0  0  0  0  0  0  0
  124.4328  111.2029  109.7214 H   0  0  0  0  0  0  0  0  0  0  0  0
  1  2  2  0  0  0  0
  1  4  1  0  0  0  0
  2  6  1  0  0  0  0
  3  4  2  0  0  0  0
  3  5  1  0  0  0  0
  4 18  1  0  0  0  0
  5  6  2  0  0  0  0
  5 23  1  0  0  0  0
  6 24  1  0  0  0  0
  7  8  1  0  0  0  0
  7 17  1  0  0  0  0
  7 20  2  0  0  0  0
  8 18  1  0  0  0  0
  8 21  2  0  0  0  0
  9 15  1  0  0  0  0
  9 19  1  0  0  0  0
  9 22  2  0  0  0  0
 10 11  1  0  0  0  0
 10 12  1  0  0  0  0
 11 14  1  0  0  0  0
 12 17  1  0  0  0  0
 13 14  1  0  0  0  0
 13 17  1  0  0  0  0
 14 16  1  0  0  0  0
 16 19  1  0  0  0  0
  1 25  1  0  0  0  0
  2 26  1  0  0  0  0
  3 27  1  0  0  0  0
 10 28  1  0  0  0  0
 10 29  1  0  0  0  0
 11 30  1  0  0  0  0
 11 31  1  0  0  0  0
 12 32  1  0  0  0  0
 12 33  1  0  0  0  0
 13 34  1  0  0  0  0
 13 35  1  0  0  0  0
 14 36  1  0  0  0  0
 15 37  1  0  0  0  0
 15 38  1  0  0  0  0
 15 39  1  0  0  0  0
 16 40  1  0  0  0  0
 16 41  1  0  0  0  0
 18 42  1  0  0  0  0
 19 43  1  0  0  0  0
M  END
> <FRED Chemgauss4 score>
-10.462531

$$$$
C49184176	P73460942
  -OEChem-05122015313D

 39 40  0     0  0  0  0  0  0999 V2000
  117.4027  104.3026  104.4234 C   0  0  0  0  0  0  0  0  0  0  0  0
  116.0718  104.4900  104.1215 C   0  0  0  0  0  0  0  0  0  0  0  0
  116.4058  103.8674  106.4774 C   0  0  0  0  0  0  0  0  0  0  0  0
  117.5962  103.9418  105.7881 C   0  0  0  0  0  0  0  0  0  0  0  0
  122.3107  105.1915  106.4050 C   0  0  0  0  0  0  0  0  0  0  0  0
  123.1547  105.4103  107.4440 C   0  0  0  0  0  0  0  0  0  0  0  0
  122.3853  106.0538  105.1899 C   0  0  0  0  0  0  0  0  0  0  0  0
  124.2254  107.3003  106.2653 C   0  0  0  0  0  0  0  0  0  0  0  0
  122.7073  108.7458  110.5107 C   0  0  0  0  0  0  0  0  0  0  0  0
  118.9475  103.6741  106.4042 C   0  0  0  0  0  0  0  0  0  0  0  0
  124.9937  106.6573  108.5156 C   0  0  0  0  0  0  0  0  0  0  0  0
  120.0651  104.4981  105.7696 C   0  0  0  0  0  0  0  0  0  0  0  0
  124.5272  107.8584  109.3176 C   0  0  0  0  0  0  0  0  0  0  0  0
  123.3433  107.0422  105.2255 N   0  0  0  0  0  0  0  0  0  0  0  0
  124.0992  106.4509  107.3747 N   0  0  0  0  0  0  0  0  0  0  0  0
  123.0710  104.6001  108.5600 N   0  0  0  0  0  0  0  0  0  0  0  0
  121.3498  104.2180  106.3439 N   0  0  0  0  0  0  0  0  0  0  0  0
  121.6364  105.8811  104.2304 O   0  0  0  0  0  0  0  0  0  0  0  0
  125.0441  108.2190  106.1772 O   0  0  0  0  0  0  0  0  0  0  0  0
  123.1925  107.6425  109.7581 O   0  0  0  0  0  0  0  0  0  0  0  0
  115.0621  104.2313  105.4802 S   0  0  0  0  0  0  0  0  0  0  0  0
  118.1966  104.4203  103.6967 H   0  0  0  0  0  0  0  0  0  0  0  0
  115.6441  104.7671  103.1683 H   0  0  0  0  0  0  0  0  0  0  0  0
  116.2564  103.6183  107.5189 H   0  0  0  0  0  0  0  0  0  0  0  0
  121.6822  108.5460  110.8321 H   0  0  0  0  0  0  0  0  0  0  0  0
  122.7384  109.6491  109.8962 H   0  0  0  0  0  0  0  0  0  0  0  0
  123.3419  108.8833  111.3894 H   0  0  0  0  0  0  0  0  0  0  0  0
  119.1757  102.6066  106.2923 H   0  0  0  0  0  0  0  0  0  0  0  0
  118.9064  103.8622  107.4847 H   0  0  0  0  0  0  0  0  0  0  0  0
  126.0087  106.8054  108.1333 H   0  0  0  0  0  0  0  0  0  0  0  0
  124.9719  105.7547  109.1338 H   0  0  0  0  0  0  0  0  0  0  0  0
  120.1392  104.2666  104.7024 H   0  0  0  0  0  0  0  0  0  0  0  0
  119.8839  105.5729  105.8740 H   0  0  0  0  0  0  0  0  0  0  0  0
  124.5348  108.7545  108.6893 H   0  0  0  0  0  0  0  0  0  0  0  0
  125.1632  108.0302  110.1921 H   0  0  0  0  0  0  0  0  0  0  0  0
  123.4130  107.6425  104.4086 H   0  0  0  0  0  0  0  0  0  0  0  0
  122.3905  103.8831  108.5577 H   0  0  0  0  0  0  0  0  0  0  0  0
  123.6958  104.7776  109.3052 H   0  0  0  0  0  0  0  0  0  0  0  0
  121.5925  103.3315  106.7114 H   0  0  0  0  0  0  0  0  0  0  0  0
  1  2  2  0  0  0  0
  1  4  1  0  0  0  0
  2 21  1  0  0  0  0
  3  4  2  0  0  0  0
  3 21  1  0  0  0  0
  4 10  1  0  0  0  0
  5  6  2  0  0  0  0
  5  7  1  0  0  0  0
  5 17  1  0  0  0  0
  6 15  1  0  0  0  0
  6 16  1  0  0  0  0
  7 14  1  0  0  0  0
  7 18  2  0  0  0  0
  8 14  1  0  0  0  0
  8 15  1  0  0  0  0
  8 19  2  0  0  0  0
  9 20  1  0  0  0  0
 10 12  1  0  0  0  0
 11 13  1  0  0  0  0
 11 15  1  0  0  0  0
 12 17  1  0  0  0  0
 13 20  1  0  0  0  0
  1 22  1  0  0  0  0
  2 23  1  0  0  0  0
  3 24  1  0  0  0  0
  9 25  1  0  0  0  0
  9 26  1  0  0  0  0
  9 27  1  0  0  0  0
 10 28  1  0  0  0  0
 10 29  1  0  0  0  0
 11 30  1  0  0  0  0
 11 31  1  0  0  0  0
 12 32  1  0  0  0  0
 12 33  1  0  0  0  0
 13 34  1  0  0  0  0
 13 35  1  0  0  0  0
 14 36  1  0  0  0  0
 16 37  1  0  0  0  0
 16 38  1  0  0  0  0
 17 39  1  0  0  0  0
M  END
> <FRED Chemgauss4 score>
-10.462495

$$$$
C37438702	P55668415
  -OEChem-05122015313D

 37 39  0     1  0  0  0  0  0999 V2000
  120.1508  103.9570  105.8761 C   0  0  0  0  0  0  0  0  0  0  0  0
  121.3333  104.1016  106.6093 C   0  0  0  0  0  0  0  0  0  0  0  0
  120.5242  106.0663  104.7188 C   0  0  0  0  0  0  0  0  0  0  0  0
  119.7516  104.9206  104.9471 C   0  0  0  0  0  0  0  0  0  0  0  0
  121.7151  106.2279  105.4468 C   0  0  0  0  0  0  0  0  0  0  0  0
  122.0867  105.2504  106.3655 C   0  0  0  0  0  0  0  0  0  0  0  0
  123.5585  106.9004  106.2890 C   0  0  0  0  0  0  0  0  0  0  0  0
  125.5567  104.7041  107.6788 C   0  0  0  0  0  0  0  0  0  0  0  0
  124.5608  103.5881  107.7295 C   0  0  0  0  0  0  0  0  0  0  0  0
  124.1009  105.0115  107.9410 C   0  0  0  0  0  0  0  0  0  0  0  0
  118.4823  104.7283  104.1848 C   0  0  0  0  0  0  0  0  0  0  0  0
  123.7096  109.0803  108.5519 C   0  0  0  0  0  0  0  0  0  0  0  0
  124.7723  107.6750  106.6204 C   0  0  2  0  0  0  0  0  0  0  0  0
  124.4513  109.0861  107.2167 C   0  0  2  0  0  0  0  0  0  0  0  0
  122.6415  107.2448  105.4129 N   0  0  0  0  0  0  0  0  0  0  0  0
  123.2692  105.7066  106.8891 N   0  0  0  0  0  0  0  0  0  0  0  0
  125.6780  107.8096  105.4535 N   0  0  0  0  0  0  0  0  0  0  0  0
  125.6894  109.7747  107.4235 O   0  0  0  0  0  0  0  0  0  0  0  0
  119.5376  103.0733  106.0400 H   0  0  0  0  0  0  0  0  0  0  0  0
  121.6421  103.3529  107.3300 H   0  0  0  0  0  0  0  0  0  0  0  0
  120.2134  106.8150  103.9965 H   0  0  0  0  0  0  0  0  0  0  0  0
  126.2491  104.8014  108.5060 H   0  0  0  0  0  0  0  0  0  0  0  0
  125.9729  104.9633  106.7128 H   0  0  0  0  0  0  0  0  0  0  0  0
  124.3078  103.0964  106.7981 H   0  0  0  0  0  0  0  0  0  0  0  0
  124.5799  102.9328  108.5918 H   0  0  0  0  0  0  0  0  0  0  0  0
  123.8141  105.3126  108.9254 H   0  0  0  0  0  0  0  0  0  0  0  0
  117.6412  105.1753  104.7277 H   0  0  0  0  0  0  0  0  0  0  0  0
  118.5420  105.1903  103.1915 H   0  0  0  0  0  0  0  0  0  0  0  0
  118.2707  103.6630  104.0288 H   0  0  0  0  0  0  0  0  0  0  0  0
  124.2407  108.5003  109.3118 H   0  0  0  0  0  0  0  0  0  0  0  0
  122.6999  108.6706  108.4374 H   0  0  0  0  0  0  0  0  0  0  0  0
  123.5920  110.1036  108.9258 H   0  0  0  0  0  0  0  0  0  0  0  0
  125.3671  107.1431  107.3962 H   0  0  0  0  0  0  0  0  0  0  0  0
  123.8726  109.6800  106.5001 H   0  0  0  0  0  0  0  0  0  0  0  0
  125.7413  107.0350  104.8462 H   0  0  0  0  0  0  0  0  0  0  0  0
  126.3079  108.5686  105.4630 H   0  0  0  0  0  0  0  0  0  0  0  0
  125.4559  110.6678  107.7144 H   0  0  0  0  0  0  0  0  0  0  0  0
  1  2  2  0  0  0  0
  1  4  1  0  0  0  0
  2  6  1  0  0  0  0
  3  4  2  0  0  0  0
  3  5  1  0  0  0  0
  4 11  1  0  0  0  0
  5  6  2  0  0  0  0
  5 15  1  0  0  0  0
  6 16  1  0  0  0  0
  7 13  1  0  0  0  0
  7 15  2  0  0  0  0
  7 16  1  0  0  0  0
  8  9  1  0  0  0  0
  8 10  1  0  0  0  0
  9 10  1  0  0  0  0
 10 16  1  0  0  0  0
 12 14  1  0  0  0  0
 13 14  1  0  0  0  0
 13 17  1  0  0  0  0
 14 18  1  0  0  0  0
  1 19  1  0  0  0  0
  2 20  1  0  0  0  0
  3 21  1  0  0  0  0
  8 22  1  0  0  0  0
  8 23  1  0  0  0  0
  9 24  1  0  0  0  0
  9 25  1  0  0  0  0
 10 26  1  0  0  0  0
 11 27  1  0  0  0  0
 11 28  1  0  0  0  0
 11 29  1  0  0  0  0
 12 30  1  0  0  0  0
 12 31  1  0  0  0  0
 12 32  1  0  0  0  0
 13 33  1  0  0  0  0
 14 34  1  0  0  0  0
 17 35  1  0  0  0  0
 17 36  1  0  0  0  0
 18 37  1  0  0  0  0
M  END
> <FRED Chemgauss4 score>
-10.460876

$$$$
C87446021	P136813038
  -OEChem-05122015313D

 30 31  0     1  0  0  0  0  0999 V2000
  122.3736  106.8779  106.3564 C   0  0  0  0  0  0  0  0  0  0  0  0
  120.6918  106.8179  105.0659 C   0  0  0  0  0  0  0  0  0  0  0  0
  123.7180  107.1374  106.8869 C   0  0  0  0  0  0  0  0  0  0  0  0
  125.1000  103.9317  107.6699 C   0  0  0  0  0  0  0  0  0  0  0  0
  126.0779  104.2316  108.8077 C   0  0  0  0  0  0  0  0  0  0  0  0
  123.8628  104.8244  107.7506 C   0  0  0  0  0  0  0  0  0  0  0  0
  125.1485  106.5776  108.9230 C   0  0  0  0  0  0  0  0  0  0  0  0
  126.4116  105.7238  108.8478 C   0  0  1  0  0  0  0  0  0  0  0  0
  119.8268  106.9934  103.9016 C   0  0  0  0  0  0  0  0  0  0  0  0
  120.3114  106.2065  106.2049 N   0  5  0  0  0  0  0  0  0  0  0  0
  121.9611  107.2412  105.1346 N   0  0  0  0  0  0  0  0  0  0  0  0
  121.3996  106.2459  107.0404 N   0  0  0  0  0  0  0  0  0  0  0  0
  124.2458  106.2358  107.8138 N   0  0  0  0  0  0  0  0  0  0  0  0
  127.2538  105.9991  110.0400 N   0  3  0  0  0  0  0  0  0  0  0  0
  124.2781  108.1519  106.4745 O   0  0  0  0  0  0  0  0  0  0  0  0
  125.5995  104.0775  106.7050 H   0  0  0  0  0  0  0  0  0  0  0  0
  124.7947  102.8788  107.7138 H   0  0  0  0  0  0  0  0  0  0  0  0
  125.6581  103.9004  109.7542 H   0  0  0  0  0  0  0  0  0  0  0  0
  126.9962  103.6722  108.6355 H   0  0  0  0  0  0  0  0  0  0  0  0
  123.2381  104.6941  106.8600 H   0  0  0  0  0  0  0  0  0  0  0  0
  123.2605  104.5378  108.6171 H   0  0  0  0  0  0  0  0  0  0  0  0
  124.6756  106.4700  109.8964 H   0  0  0  0  0  0  0  0  0  0  0  0
  125.4078  107.6315  108.8007 H   0  0  0  0  0  0  0  0  0  0  0  0
  127.0154  106.0008  107.9804 H   0  0  0  0  0  0  0  0  0  0  0  0
  119.2597  107.9439  103.9488 H   0  0  0  0  0  0  0  0  0  0  0  0
  120.3901  107.0014  102.9462 H   0  0  0  0  0  0  0  0  0  0  0  0
  119.0819  106.1786  103.7942 H   0  0  0  0  0  0  0  0  0  0  0  0
  127.9392  105.2523  110.1747 H   0  0  0  0  0  0  0  0  0  0  0  0
  126.6747  106.0615  110.8806 H   0  0  0  0  0  0  0  0  0  0  0  0
  127.7564  106.8825  109.9274 H   0  0  0  0  0  0  0  0  0  0  0  0
  1  3  1  0  0  0  0
  1 11  1  0  0  0  0
  1 12  2  0  0  0  0
  2  9  1  0  0  0  0
  2 10  1  0  0  0  0
  2 11  2  0  0  0  0
  3 13  1  0  0  0  0
  3 15  2  0  0  0  0
  4  5  1  0  0  0  0
  4  6  1  0  0  0  0
  5  8  1  0  0  0  0
  6 13  1  0  0  0  0
  7  8  1  0  0  0  0
  7 13  1  0  0  0  0
  8 14  1  0  0  0  0
 10 12  1  0  0  0  0
  4 16  1  0  0  0  0
  4 17  1  0  0  0  0
  5 18  1  0  0  0  0
  5 19  1  0  0  0  0
  6 20  1  0  0  0  0
  6 21  1  0  0  0  0
  7 22  1  0  0  0  0
  7 23  1  0  0  0  0
  8 24  1  0  0  0  0
  9 25  1  0  0  0  0
  9 26  1  0  0  0  0
  9 27  1  0  0  0  0
 14 28  1  0  0  0  0
 14 29  1  0  0  0  0
 14 30  1  0  0  0  0
M  CHG  2  10  -1  14   1
M  END
> <FRED Chemgauss4 score>
-10.459217

$$$$
C53110074	P79617208
  -OEChem-05122015313D

 38 39  0     1  0  0  0  0  0999 V2000
  116.5676  104.6327  103.7722 C   0  0  0  0  0  0  0  0  0  0  0  0
  117.9316  104.1455  105.7426 C   0  0  0  0  0  0  0  0  0  0  0  0
  119.1799  103.9878  106.3448 C   0  0  0  0  0  0  0  0  0  0  0  0
  119.0094  104.6403  103.6378 C   0  0  0  0  0  0  0  0  0  0  0  0
  117.8464  104.4717  104.3891 C   0  0  0  0  0  0  0  0  0  0  0  0
  120.3429  104.1565  105.5934 C   0  0  0  0  0  0  0  0  0  0  0  0
  120.2577  104.4827  104.2399 C   0  0  0  0  0  0  0  0  0  0  0  0
  123.5315  107.2637  106.2312 C   0  0  0  0  0  0  0  0  0  0  0  0
  124.8386  106.6712  106.7498 C   0  0  0  0  0  0  0  0  0  0  0  0
  122.5696  106.1769  105.7548 C   0  0  0  0  0  0  0  0  0  0  0  0
  123.6316  104.5356  107.3631 C   0  0  0  0  0  0  0  0  0  0  0  0
  124.5983  105.6279  107.8478 C   0  0  1  0  0  0  0  0  0  0  0  0
  122.3020  105.0962  106.8202 C   0  0  1  0  0  0  0  0  0  0  0  0
  125.9221  105.0105  108.2990 C   0  0  0  0  0  0  0  0  0  0  0  0
  121.4216  105.6446  107.9542 C   0  0  0  0  0  0  0  0  0  0  0  0
  115.5290  104.7636  103.2713 N   0  0  0  0  0  0  0  0  0  0  0  0
  121.5755  104.0017  106.1919 N   0  0  0  0  0  0  0  0  0  0  0  0
  122.2457  106.3793  108.8354 O   0  0  0  0  0  0  0  0  0  0  0  0
  121.3693  104.6484  103.5089 F   0  0  0  0  0  0  0  0  0  0  0  0
  117.0341  104.0095  106.3414 H   0  0  0  0  0  0  0  0  0  0  0  0
  119.2354  103.7327  107.4000 H   0  0  0  0  0  0  0  0  0  0  0  0
  118.9596  104.8957  102.5822 H   0  0  0  0  0  0  0  0  0  0  0  0
  123.0608  107.8644  107.0178 H   0  0  0  0  0  0  0  0  0  0  0  0
  123.7459  107.9484  105.4024 H   0  0  0  0  0  0  0  0  0  0  0  0
  125.3819  106.2132  105.9132 H   0  0  0  0  0  0  0  0  0  0  0  0
  125.4735  107.4786  107.1339 H   0  0  0  0  0  0  0  0  0  0  0  0
  121.6277  106.6399  105.4338 H   0  0  0  0  0  0  0  0  0  0  0  0
  122.9951  105.7073  104.8568 H   0  0  0  0  0  0  0  0  0  0  0  0
  124.1247  103.9500  106.5737 H   0  0  0  0  0  0  0  0  0  0  0  0
  123.4352  103.8282  108.1800 H   0  0  0  0  0  0  0  0  0  0  0  0
  124.1581  106.1322  108.7171 H   0  0  0  0  0  0  0  0  0  0  0  0
  126.3930  104.4983  107.4621 H   0  0  0  0  0  0  0  0  0  0  0  0
  125.7405  104.2959  109.0994 H   0  0  0  0  0  0  0  0  0  0  0  0
  126.5877  105.7918  108.6608 H   0  0  0  0  0  0  0  0  0  0  0  0
  120.9607  104.8171  108.4866 H   0  0  0  0  0  0  0  0  0  0  0  0
  120.6581  106.2954  107.5372 H   0  0  0  0  0  0  0  0  0  0  0  0
  122.0077  103.0909  106.2010 H   0  0  0  0  0  0  0  0  0  0  0  0
  121.6758  106.7200  109.5472 H   0  0  0  0  0  0  0  0  0  0  0  0
  1  5  1  0  0  0  0
  1 16  3  0  0  0  0
  2  3  2  0  0  0  0
  2  5  1  0  0  0  0
  3  6  1  0  0  0  0
  4  5  2  0  0  0  0
  4  7  1  0  0  0  0
  6  7  2  0  0  0  0
  6 17  1  0  0  0  0
  7 19  1  0  0  0  0
  8  9  1  0  0  0  0
  8 10  1  0  0  0  0
  9 12  1  0  0  0  0
 10 13  1  0  0  0  0
 11 12  1  0  0  0  0
 11 13  1  0  0  0  0
 12 14  1  0  0  0  0
 13 15  1  0  0  0  0
 13 17  1  0  0  0  0
 15 18  1  0  0  0  0
  2 20  1  0  0  0  0
  3 21  1  0  0  0  0
  4 22  1  0  0  0  0
  8 23  1  0  0  0  0
  8 24  1  0  0  0  0
  9 25  1  0  0  0  0
  9 26  1  0  0  0  0
 10 27  1  0  0  0  0
 10 28  1  0  0  0  0
 11 29  1  0  0  0  0
 11 30  1  0  0  0  0
 12 31  1  0  0  0  0
 14 32  1  0  0  0  0
 14 33  1  0  0  0  0
 14 34  1  0  0  0  0
 15 35  1  0  0  0  0
 15 36  1  0  0  0  0
 17 37  1  0  0  0  0
 18 38  1  0  0  0  0
M  END
> <FRED Chemgauss4 score>
-10.458613

$$$$
C77426586	P120815757
  -OEChem-05122015313D

 41 42  0     1  0  0  0  0  0999 V2000
  117.9499  107.5144  103.7374 C   0  0  0  0  0  0  0  0  0  0  0  0
  116.6804  107.1747  103.3328 C   0  0  0  0  0  0  0  0  0  0  0  0
  117.6837  105.4900  104.3386 C   0  0  0  0  0  0  0  0  0  0  0  0
  126.2088  106.9400  107.3977 C   0  0  0  0  0  0  0  0  0  0  0  0
  125.2200  104.7390  107.3223 C   0  0  0  0  0  0  0  0  0  0  0  0
  125.1346  107.6890  108.1778 C   0  0  0  0  0  0  0  0  0  0  0  0
  123.3090  106.1786  108.3172 C   0  0  0  0  0  0  0  0  0  0  0  0
  123.7415  104.8221  107.7357 C   0  0  1  0  0  0  0  0  0  0  0  0
  115.3306  105.0881  103.5104 C   0  0  0  0  0  0  0  0  0  0  0  0
  122.8152  104.4430  106.5735 C   0  0  0  0  0  0  0  0  0  0  0  0
  120.5194  104.1809  105.9245 C   0  0  0  0  0  0  0  0  0  0  0  0
  119.0629  104.2581  106.3619 C   0  0  0  0  0  0  0  0  0  0  0  0
  118.5692  106.4612  104.3625 N   0  0  0  0  0  0  0  0  0  0  0  0
  116.5244  105.8749  103.7245 N   0  0  0  0  0  0  0  0  0  0  0  0
  125.6863  105.8788  106.5310 N   0  0  0  0  0  0  0  0  0  0  0  0
  121.4610  104.5237  106.9992 N   0  0  0  0  0  0  0  0  0  0  0  0
  124.3660  106.8321  109.0206 O   0  0  0  0  0  0  0  0  0  0  0  0
  123.5717  103.8307  108.7613 O   0  0  0  0  0  0  0  0  0  0  0  0
  117.9160  103.8711  105.0045 S   0  0  0  0  0  0  0  0  0  0  0  0
  118.4495  108.4635  103.6099 H   0  0  0  0  0  0  0  0  0  0  0  0
  115.9047  107.7256  102.8196 H   0  0  0  0  0  0  0  0  0  0  0  0
  126.7450  107.6584  106.7672 H   0  0  0  0  0  0  0  0  0  0  0  0
  126.9541  106.5235  108.0865 H   0  0  0  0  0  0  0  0  0  0  0  0
  125.8610  104.5741  108.1995 H   0  0  0  0  0  0  0  0  0  0  0  0
  125.3654  103.8341  106.7176 H   0  0  0  0  0  0  0  0  0  0  0  0
  125.6313  108.4107  108.8360 H   0  0  0  0  0  0  0  0  0  0  0  0
  124.4864  108.2732  107.5130 H   0  0  0  0  0  0  0  0  0  0  0  0
  122.9096  106.8408  107.5389 H   0  0  0  0  0  0  0  0  0  0  0  0
  122.5010  106.0329  109.0436 H   0  0  0  0  0  0  0  0  0  0  0  0
  115.4277  104.5837  102.5454 H   0  0  0  0  0  0  0  0  0  0  0  0
  115.2279  104.3557  104.3159 H   0  0  0  0  0  0  0  0  0  0  0  0
  114.4581  105.7473  103.5124 H   0  0  0  0  0  0  0  0  0  0  0  0
  123.0421  103.4308  106.2737 H   0  0  0  0  0  0  0  0  0  0  0  0
  122.9818  105.1332  105.7604 H   0  0  0  0  0  0  0  0  0  0  0  0
  120.6945  104.8985  105.1161 H   0  0  0  0  0  0  0  0  0  0  0  0
  120.7820  103.1860  105.5500 H   0  0  0  0  0  0  0  0  0  0  0  0
  118.8668  103.5680  107.1889 H   0  0  0  0  0  0  0  0  0  0  0  0
  118.8380  105.2723  106.7063 H   0  0  0  0  0  0  0  0  0  0  0  0
  124.9365  106.2400  105.9437 H   0  0  0  0  0  0  0  0  0  0  0  0
  121.2816  103.8821  107.7869 H   0  0  0  0  0  0  0  0  0  0  0  0
  123.8019  102.9859  108.3525 H   0  0  0  0  0  0  0  0  0  0  0  0
  1  2  2  0  0  0  0
  1 13  1  0  0  0  0
  2 14  1  0  0  0  0
  3 13  2  0  0  0  0
  3 14  1  0  0  0  0
  3 19  1  0  0  0  0
  4  6  1  0  0  0  0
  4 15  1  0  0  0  0
  5  8  1  0  0  0  0
  5 15  1  0  0  0  0
  6 17  1  0  0  0  0
  7  8  1  0  0  0  0
  7 17  1  0  0  0  0
  8 10  1  0  0  0  0
  8 18  1  0  0  0  0
  9 14  1  0  0  0  0
 10 16  1  0  0  0  0
 11 12  1  0  0  0  0
 11 16  1  0  0  0  0
 12 19  1  0  0  0  0
  1 20  1  0  0  0  0
  2 21  1  0  0  0  0
  4 22  1  0  0  0  0
  4 23  1  0  0  0  0
  5 24  1  0  0  0  0
  5 25  1  0  0  0  0
  6 26  1  0  0  0  0
  6 27  1  0  0  0  0
  7 28  1  0  0  0  0
  7 29  1  0  0  0  0
  9 30  1  0  0  0  0
  9 31  1  0  0  0  0
  9 32  1  0  0  0  0
 10 33  1  0  0  0  0
 10 34  1  0  0  0  0
 11 35  1  0  0  0  0
 11 36  1  0  0  0  0
 12 37  1  0  0  0  0
 12 38  1  0  0  0  0
 15 39  1  0  0  0  0
 16 40  1  0  0  0  0
 18 41  1  0  0  0  0
M  END
> <FRED Chemgauss4 score>
-10.449148

$$$$
C79928687	P124912760
  -OEChem-05122015313D

 37 39  0     1  0  0  0  0  0999 V2000
  116.0704  103.5728  104.3529 C   0  0  0  0  0  0  0  0  0  0  0  0
  115.4509  104.7634  104.7344 C   0  0  0  0  0  0  0  0  0  0  0  0
  117.4007  103.3300  104.7013 C   0  0  0  0  0  0  0  0  0  0  0  0
  116.1584  105.7168  105.4656 C   0  0  0  0  0  0  0  0  0  0  0  0
  118.1165  104.2812  105.4344 C   0  0  0  0  0  0  0  0  0  0  0  0
  117.4884  105.4711  105.8122 C   0  0  0  0  0  0  0  0  0  0  0  0
  119.5092  104.0642  105.8180 C   0  0  0  0  0  0  0  0  0  0  0  0
  120.1912  104.9811  106.5219 C   0  0  0  0  0  0  0  0  0  0  0  0
  119.5254  106.2615  106.9322 C   0  0  0  0  0  0  0  0  0  0  0  0
  124.9263  108.4715  108.1848 C   0  0  0  0  0  0  0  0  0  0  0  0
  126.1027  107.5326  108.0769 C   0  0  0  0  0  0  0  0  0  0  0  0
  125.5154  106.1931  108.5142 C   0  0  0  0  0  0  0  0  0  0  0  0
  124.0491  106.2790  108.1089 C   0  0  2  0  0  0  0  0  0  0  0  0
  121.6192  104.7914  106.9305 C   0  0  0  0  0  0  0  0  0  0  0  0
  123.7987  105.7687  106.6960 C   0  0  0  0  0  0  0  0  0  0  0  0
  118.2084  106.4259  106.5488 N   0  0  0  0  0  0  0  0  0  0  0  0
  123.7753  107.6913  108.2099 N   0  0  0  0  0  0  0  0  0  0  0  0
  122.3794  105.8580  106.3456 N   0  0  0  0  0  0  0  0  0  0  0  0
  120.1402  107.1095  107.5777 O   0  0  0  0  0  0  0  0  0  0  0  0
  124.9946  109.6907  108.2074 O   0  0  0  0  0  0  0  0  0  0  0  0
  115.5162  102.8323  103.7833 H   0  0  0  0  0  0  0  0  0  0  0  0
  114.4159  104.9476  104.4611 H   0  0  0  0  0  0  0  0  0  0  0  0
  117.8662  102.3964  104.3950 H   0  0  0  0  0  0  0  0  0  0  0  0
  115.6668  106.6408  105.7576 H   0  0  0  0  0  0  0  0  0  0  0  0
  119.9779  103.1334  105.5139 H   0  0  0  0  0  0  0  0  0  0  0  0
  126.4416  107.5051  107.0369 H   0  0  0  0  0  0  0  0  0  0  0  0
  126.9188  107.8511  108.7300 H   0  0  0  0  0  0  0  0  0  0  0  0
  126.0443  105.3377  108.0835 H   0  0  0  0  0  0  0  0  0  0  0  0
  125.5884  106.1130  109.6066 H   0  0  0  0  0  0  0  0  0  0  0  0
  123.4056  105.7392  108.8066 H   0  0  0  0  0  0  0  0  0  0  0  0
  121.9620  103.8248  106.5636 H   0  0  0  0  0  0  0  0  0  0  0  0
  121.6789  104.8237  108.0177 H   0  0  0  0  0  0  0  0  0  0  0  0
  124.0989  104.7202  106.6082 H   0  0  0  0  0  0  0  0  0  0  0  0
  124.3601  106.3584  105.9653 H   0  0  0  0  0  0  0  0  0  0  0  0
  117.7346  107.2847  106.8143 H   0  0  0  0  0  0  0  0  0  0  0  0
  122.8394  108.0760  108.2910 H   0  0  0  0  0  0  0  0  0  0  0  0
  122.3001  105.8341  105.3218 H   0  0  0  0  0  0  0  0  0  0  0  0
  1  2  1  0  0  0  0
  1  3  2  0  0  0  0
  2  4  2  0  0  0  0
  3  5  1  0  0  0  0
  4  6  1  0  0  0  0
  5  6  2  0  0  0  0
  5  7  1  0  0  0  0
  6 16  1  0  0  0  0
  7  8  2  0  0  0  0
  8  9  1  0  0  0  0
  8 14  1  0  0  0  0
  9 16  1  0  0  0  0
  9 19  2  0  0  0  0
 10 11  1  0  0  0  0
 10 17  1  0  0  0  0
 10 20  2  0  0  0  0
 11 12  1  0  0  0  0
 12 13  1  0  0  0  0
 13 15  1  0  0  0  0
 13 17  1  0  0  0  0
 14 18  1  0  0  0  0
 15 18  1  0  0  0  0
  1 21  1  0  0  0  0
  2 22  1  0  0  0  0
  3 23  1  0  0  0  0
  4 24  1  0  0  0  0
  7 25  1  0  0  0  0
 11 26  1  0  0  0  0
 11 27  1  0  0  0  0
 12 28  1  0  0  0  0
 12 29  1  0  0  0  0
 13 30  1  0  0  0  0
 14 31  1  0  0  0  0
 14 32  1  0  0  0  0
 15 33  1  0  0  0  0
 15 34  1  0  0  0  0
 16 35  1  0  0  0  0
 17 36  1  0  0  0  0
 18 37  1  0  0  0  0
M  END
> <FRED Chemgauss4 score>
-10.439732

$$$$
C67786338	P104082259
  -OEChem-05122015313D

 43 44  0     1  0  0  0  0  0999 V2000
  124.2738  106.1175  107.8592 C   0  0  0  0  0  0  0  0  0  0  0  0
  124.1010  107.0349  106.8439 C   0  0  0  0  0  0  0  0  0  0  0  0
  125.9564  107.8339  107.6980 C   0  0  0  0  0  0  0  0  0  0  0  0
  119.4086  104.4358  103.8418 C   0  0  0  0  0  0  0  0  0  0  0  0
  119.0852  105.0516  106.7016 C   0  0  0  0  0  0  0  0  0  0  0  0
  120.1854  104.1073  106.2580 C   0  0  0  0  0  0  0  0  0  0  0  0
  117.8830  104.8812  105.7925 C   0  0  0  0  0  0  0  0  0  0  0  0
  120.5919  104.3864  104.8129 C   0  0  2  0  0  0  0  0  0  0  0  0
  117.0268  108.7761  103.4735 C   0  0  0  0  0  0  0  0  0  0  0  0
  122.9732  107.0440  105.8529 C   0  0  0  0  0  0  0  0  0  0  0  0
  121.3723  105.6973  104.6765 C   0  0  0  0  0  0  0  0  0  0  0  0
  117.0644  105.0925  103.4689 C   0  0  0  0  0  0  0  0  0  0  0  0
  117.1039  106.4987  102.8990 C   0  0  0  0  0  0  0  0  0  0  0  0
  125.0646  108.0200  106.7502 N   0  0  0  0  0  0  0  0  0  0  0  0
  118.1969  104.8960  104.3640 N   0  0  0  0  0  0  0  0  0  0  0  0
  127.0434  108.6269  107.8932 N   0  0  0  0  0  0  0  0  0  0  0  0
  122.4763  105.6899  105.5730 N   0  0  0  0  0  0  0  0  0  0  0  0
  119.5754  104.1469  102.6532 O   0  0  0  0  0  0  0  0  0  0  0  0
  121.4633  103.3445  104.3796 O   0  0  0  0  0  0  0  0  0  0  0  0
  117.0006  107.4409  103.9589 O   0  0  0  0  0  0  0  0  0  0  0  0
  125.6984  106.4928  108.7373 S   0  0  0  0  0  0  0  0  0  0  0  0
  123.6559  105.2695  108.1188 H   0  0  0  0  0  0  0  0  0  0  0  0
  118.7994  104.8404  107.7381 H   0  0  0  0  0  0  0  0  0  0  0  0
  119.4335  106.0898  106.6766 H   0  0  0  0  0  0  0  0  0  0  0  0
  121.0525  104.1929  106.9243 H   0  0  0  0  0  0  0  0  0  0  0  0
  119.8414  103.0685  106.3544 H   0  0  0  0  0  0  0  0  0  0  0  0
  117.3941  103.9212  105.9978 H   0  0  0  0  0  0  0  0  0  0  0  0
  117.1584  105.6769  105.9997 H   0  0  0  0  0  0  0  0  0  0  0  0
  116.9455  109.4713  104.3127 H   0  0  0  0  0  0  0  0  0  0  0  0
  116.1971  108.9285  102.7787 H   0  0  0  0  0  0  0  0  0  0  0  0
  117.9718  108.9464  102.9524 H   0  0  0  0  0  0  0  0  0  0  0  0
  122.1343  107.6402  106.2282 H   0  0  0  0  0  0  0  0  0  0  0  0
  123.2885  107.4879  104.9028 H   0  0  0  0  0  0  0  0  0  0  0  0
  120.7112  106.5153  104.9221 H   0  0  0  0  0  0  0  0  0  0  0  0
  121.7305  105.7826  103.6614 H   0  0  0  0  0  0  0  0  0  0  0  0
  116.1446  104.9201  104.0367 H   0  0  0  0  0  0  0  0  0  0  0  0
  117.1329  104.3536  102.6648 H   0  0  0  0  0  0  0  0  0  0  0  0
  116.2556  106.6538  102.2251 H   0  0  0  0  0  0  0  0  0  0  0  0
  118.0335  106.6851  102.3514 H   0  0  0  0  0  0  0  0  0  0  0  0
  127.2589  109.4094  107.2660 H   0  0  0  0  0  0  0  0  0  0  0  0
  127.7398  108.4173  108.6164 H   0  0  0  0  0  0  0  0  0  0  0  0
  123.2617  105.1430  105.1882 H   0  0  0  0  0  0  0  0  0  0  0  0
  121.7446  103.5771  103.4815 H   0  0  0  0  0  0  0  0  0  0  0  0
  1  2  2  0  0  0  0
  1 21  1  0  0  0  0
  2 10  1  0  0  0  0
  2 14  1  0  0  0  0
  3 14  2  0  0  0  0
  3 16  1  0  0  0  0
  3 21  1  0  0  0  0
  4  8  1  0  0  0  0
  4 15  1  0  0  0  0
  4 18  2  0  0  0  0
  5  6  1  0  0  0  0
  5  7  1  0  0  0  0
  6  8  1  0  0  0  0
  7 15  1  0  0  0  0
  8 11  1  0  0  0  0
  8 19  1  0  0  0  0
  9 20  1  0  0  0  0
 10 17  1  0  0  0  0
 11 17  1  0  0  0  0
 12 13  1  0  0  0  0
 12 15  1  0  0  0  0
 13 20  1  0  0  0  0
  1 22  1  0  0  0  0
  5 23  1  0  0  0  0
  5 24  1  0  0  0  0
  6 25  1  0  0  0  0
  6 26  1  0  0  0  0
  7 27  1  0  0  0  0
  7 28  1  0  0  0  0
  9 29  1  0  0  0  0
  9 30  1  0  0  0  0
  9 31  1  0  0  0  0
 10 32  1  0  0  0  0
 10 33  1  0  0  0  0
 11 34  1  0  0  0  0
 11 35  1  0  0  0  0
 12 36  1  0  0  0  0
 12 37  1  0  0  0  0
 13 38  1  0  0  0  0
 13 39  1  0  0  0  0
 16 40  1  0  0  0  0
 16 41  1  0  0  0  0
 17 42  1  0  0  0  0
 19 43  1  0  0  0  0
M  END
> <FRED Chemgauss4 score>
-10.439219

$$$$
C97715332	P155012524
  -OEChem-05122015313D

 43 44  0     1  0  0  0  0  0999 V2000
  122.8151  104.2176  106.4701 C   0  0  0  0  0  0  0  0  0  0  0  0
  123.9550  105.0106  106.5396 C   0  0  0  0  0  0  0  0  0  0  0  0
  121.8499  105.8242  105.0059 C   0  0  0  0  0  0  0  0  0  0  0  0
  119.2976  107.7351  107.3409 C   0  0  0  0  0  0  0  0  0  0  0  0
  121.7380  104.6250  105.6908 C   0  0  0  0  0  0  0  0  0  0  0  0
  118.2505  108.2117  106.5687 C   0  0  0  0  0  0  0  0  0  0  0  0
  117.9152  105.9578  105.7994 C   0  0  0  0  0  0  0  0  0  0  0  0
  117.5512  107.2996  105.7861 C   0  0  0  0  0  0  0  0  0  0  0  0
  123.9678  106.1925  105.8165 C   0  0  0  0  0  0  0  0  0  0  0  0
  118.9774  105.5821  106.6059 C   0  0  0  0  0  0  0  0  0  0  0  0
  117.8998  109.6588  106.5894 C   0  0  0  0  0  0  0  0  0  0  0  0
  117.1808  104.9601  104.9687 C   0  0  0  0  0  0  0  0  0  0  0  0
  125.1751  107.0681  105.8676 C   0  0  0  0  0  0  0  0  0  0  0  0
  116.8244  108.1298  103.6794 C   0  0  0  0  0  0  0  0  0  0  0  0
  119.4194  104.1374  106.6615 C   0  0  0  0  0  0  0  0  0  0  0  0
  120.5045  103.7992  105.5961 C   0  0  1  0  0  0  0  0  0  0  0  0
  122.9410  106.6213  105.0488 N   0  0  0  0  0  0  0  0  0  0  0  0
  119.6804  106.4391  107.3798 N   0  0  0  0  0  0  0  0  0  0  0  0
  120.8080  103.4067  103.3114 N   0  0  0  0  0  0  0  0  0  0  0  0
  119.8703  103.8922  104.2612 N   0  0  0  0  0  0  0  0  0  0  0  0
  116.5132  107.7212  105.0094 O   0  0  0  0  0  0  0  0  0  0  0  0
  122.7745  103.2847  107.0256 H   0  0  0  0  0  0  0  0  0  0  0  0
  124.8021  104.7042  107.1439 H   0  0  0  0  0  0  0  0  0  0  0  0
  121.0418  106.1935  104.3820 H   0  0  0  0  0  0  0  0  0  0  0  0
  119.8799  108.3996  107.9719 H   0  0  0  0  0  0  0  0  0  0  0  0
  118.4599  110.2010  105.8167 H   0  0  0  0  0  0  0  0  0  0  0  0
  116.8268  109.8137  106.4118 H   0  0  0  0  0  0  0  0  0  0  0  0
  118.1270  110.1122  107.5641 H   0  0  0  0  0  0  0  0  0  0  0  0
  117.6436  104.8736  103.9780 H   0  0  0  0  0  0  0  0  0  0  0  0
  117.1828  103.9695  105.4415 H   0  0  0  0  0  0  0  0  0  0  0  0
  116.1295  105.2476  104.8379 H   0  0  0  0  0  0  0  0  0  0  0  0
  125.8791  106.7932  105.0730 H   0  0  0  0  0  0  0  0  0  0  0  0
  124.9055  108.1247  105.7444 H   0  0  0  0  0  0  0  0  0  0  0  0
  125.6886  106.9812  106.8337 H   0  0  0  0  0  0  0  0  0  0  0  0
  115.9095  108.4415  103.1697 H   0  0  0  0  0  0  0  0  0  0  0  0
  117.2891  107.2996  103.1415 H   0  0  0  0  0  0  0  0  0  0  0  0
  117.5209  108.9706  103.7196 H   0  0  0  0  0  0  0  0  0  0  0  0
  118.5265  103.5117  106.5234 H   0  0  0  0  0  0  0  0  0  0  0  0
  119.7853  103.9024  107.6697 H   0  0  0  0  0  0  0  0  0  0  0  0
  120.7584  102.7277  105.7185 H   0  0  0  0  0  0  0  0  0  0  0  0
  121.0553  104.1500  102.6587 H   0  0  0  0  0  0  0  0  0  0  0  0
  121.6668  103.1766  103.8097 H   0  0  0  0  0  0  0  0  0  0  0  0
  119.0422  103.3114  104.2633 H   0  0  0  0  0  0  0  0  0  0  0  0
  1  2  2  0  0  0  0
  1  5  1  0  0  0  0
  2  9  1  0  0  0  0
  3  5  2  0  0  0  0
  3 17  1  0  0  0  0
  4  6  2  0  0  0  0
  4 18  1  0  0  0  0
  5 16  1  0  0  0  0
  6  8  1  0  0  0  0
  6 11  1  0  0  0  0
  7  8  2  0  0  0  0
  7 10  1  0  0  0  0
  7 12  1  0  0  0  0
  8 21  1  0  0  0  0
  9 13  1  0  0  0  0
  9 17  2  0  0  0  0
 10 15  1  0  0  0  0
 10 18  2  0  0  0  0
 14 21  1  0  0  0  0
 15 16  1  0  0  0  0
 16 20  1  0  0  0  0
 19 20  1  0  0  0  0
  1 22  1  0  0  0  0
  2 23  1  0  0  0  0
  3 24  1  0  0  0  0
  4 25  1  0  0  0  0
 11 26  1  0  0  0  0
 11 27  1  0  0  0  0
 11 28  1  0  0  0  0
 12 29  1  0  0  0  0
 12 30  1  0  0  0  0
 12 31  1  0  0  0  0
 13 32  1  0  0  0  0
 13 33  1  0  0  0  0
 13 34  1  0  0  0  0
 14 35  1  0  0  0  0
 14 36  1  0  0  0  0
 14 37  1  0  0  0  0
 15 38  1  0  0  0  0
 15 39  1  0  0  0  0
 16 40  1  0  0  0  0
 19 41  1  0  0  0  0
 19 42  1  0  0  0  0
 20 43  1  0  0  0  0
M  END
> <FRED Chemgauss4 score>
-10.437576

$$$$
C94925989	P148795160
  -OEChem-05122015313D

 38 39  0     1  0  0  0  0  0999 V2000
  118.0352  104.1080  106.2063 C   0  0  0  0  0  0  0  0  0  0  0  0
  117.9257  105.4803  106.0107 C   0  0  0  0  0  0  0  0  0  0  0  0
  119.2926  103.5265  106.3247 C   0  0  0  0  0  0  0  0  0  0  0  0
  122.5515  107.6964  108.3581 C   0  0  0  0  0  0  0  0  0  0  0  0
  124.7509  106.7555  108.1089 C   0  0  0  0  0  0  0  0  0  0  0  0
  123.1566  108.9341  108.5058 C   0  0  0  0  0  0  0  0  0  0  0  0
  123.3710  106.5914  108.1563 C   0  0  0  0  0  0  0  0  0  0  0  0
  119.0946  106.2208  105.9412 C   0  0  0  0  0  0  0  0  0  0  0  0
  120.4004  104.3545  106.2409 C   0  0  0  0  0  0  0  0  0  0  0  0
  125.2574  108.0354  108.2675 C   0  0  0  0  0  0  0  0  0  0  0  0
  119.0151  107.6964  105.7326 C   0  0  0  0  0  0  0  0  0  0  0  0
  124.1184  104.2735  106.2456 C   0  0  0  0  0  0  0  0  0  0  0  0
  122.7675  105.2269  107.9888 C   0  0  0  0  0  0  0  0  0  0  0  0
  121.7741  103.7612  106.3647 C   0  0  0  0  0  0  0  0  0  0  0  0
  124.4931  109.1328  108.4655 N   0  0  0  0  0  0  0  0  0  0  0  0
  120.3336  105.6914  106.0517 N   0  0  0  0  0  0  0  0  0  0  0  0
  127.4783  107.1856  107.7501 N   0  0  0  0  0  0  0  0  0  0  0  0
  126.6656  108.1864  108.2185 N   0  0  0  0  0  0  0  0  0  0  0  0
  122.7934  104.7843  106.5952 N   0  0  2  0  0  0  0  0  0  0  0  0
  117.1421  103.4931  106.2644 H   0  0  0  0  0  0  0  0  0  0  0  0
  116.9506  105.9461  105.9154 H   0  0  0  0  0  0  0  0  0  0  0  0
  119.3920  102.4574  106.4788 H   0  0  0  0  0  0  0  0  0  0  0  0
  121.4719  107.6011  108.4003 H   0  0  0  0  0  0  0  0  0  0  0  0
  125.4058  105.9035  107.9531 H   0  0  0  0  0  0  0  0  0  0  0  0
  122.5616  109.8271  108.6660 H   0  0  0  0  0  0  0  0  0  0  0  0
  118.9651  108.2154  106.6972 H   0  0  0  0  0  0  0  0  0  0  0  0
  119.8885  108.0676  105.1817 H   0  0  0  0  0  0  0  0  0  0  0  0
  118.1290  107.9674  105.1444 H   0  0  0  0  0  0  0  0  0  0  0  0
  124.1312  103.9445  105.2033 H   0  0  0  0  0  0  0  0  0  0  0  0
  124.3775  103.4256  106.8855 H   0  0  0  0  0  0  0  0  0  0  0  0
  124.8716  105.0550  106.3773 H   0  0  0  0  0  0  0  0  0  0  0  0
  123.3113  104.4880  108.5874 H   0  0  0  0  0  0  0  0  0  0  0  0
  121.7253  105.2142  108.3247 H   0  0  0  0  0  0  0  0  0  0  0  0
  121.8144  103.0512  107.1979 H   0  0  0  0  0  0  0  0  0  0  0  0
  122.0488  103.2135  105.4571 H   0  0  0  0  0  0  0  0  0  0  0  0
  128.2760  107.1061  108.3791 H   0  0  0  0  0  0  0  0  0  0  0  0
  127.8585  107.4722  106.8490 H   0  0  0  0  0  0  0  0  0  0  0  0
  127.0412  109.1136  108.3330 H   0  0  0  0  0  0  0  0  0  0  0  0
  1  2  2  0  0  0  0
  1  3  1  0  0  0  0
  2  8  1  0  0  0  0
  3  9  2  0  0  0  0
  4  6  2  0  0  0  0
  4  7  1  0  0  0  0
  5  7  2  0  0  0  0
  5 10  1  0  0  0  0
  6 15  1  0  0  0  0
  7 13  1  0  0  0  0
  8 11  1  0  0  0  0
  8 16  2  0  0  0  0
  9 14  1  0  0  0  0
  9 16  1  0  0  0  0
 10 15  2  0  0  0  0
 10 18  1  0  0  0  0
 12 19  1  0  0  0  0
 13 19  1  0  0  0  0
 14 19  1  0  0  0  0
 17 18  1  0  0  0  0
  1 20  1  0  0  0  0
  2 21  1  0  0  0  0
  3 22  1  0  0  0  0
  4 23  1  0  0  0  0
  5 24  1  0  0  0  0
  6 25  1  0  0  0  0
 11 26  1  0  0  0  0
 11 27  1  0  0  0  0
 11 28  1  0  0  0  0
 12 29  1  0  0  0  0
 12 30  1  0  0  0  0
 12 31  1  0  0  0  0
 13 32  1  0  0  0  0
 13 33  1  0  0  0  0
 14 34  1  0  0  0  0
 14 35  1  0  0  0  0
 17 36  1  0  0  0  0
 17 37  1  0  0  0  0
 18 38  1  0  0  0  0
M  END
> <FRED Chemgauss4 score>
-10.433474

$$$$
C00454581	P06762094
  -OEChem-05122015313D

 32 35  0     0  0  0  0  0  0999 V2000
  123.6480  108.0983  109.7777 C   0  0  0  0  0  0  0  0  0  0  0  0
  125.4569  104.3786  107.2373 C   0  0  0  0  0  0  0  0  0  0  0  0
  117.5226  103.7249  106.0887 C   0  0  0  0  0  0  0  0  0  0  0  0
  124.7249  107.2944  109.4135 C   0  0  0  0  0  0  0  0  0  0  0  0
  125.6341  105.4281  108.1349 C   0  0  0  0  0  0  0  0  0  0  0  0
  122.3881  107.8617  109.2357 C   0  0  0  0  0  0  0  0  0  0  0  0
  124.1959  104.1216  106.7072 C   0  0  0  0  0  0  0  0  0  0  0  0
  118.7856  104.0109  106.6068 C   0  0  0  0  0  0  0  0  0  0  0  0
  116.8733  104.6571  105.2793 C   0  0  0  0  0  0  0  0  0  0  0  0
  124.5515  106.2383  108.5071 C   0  0  0  0  0  0  0  0  0  0  0  0
  123.2669  105.9868  107.9607 C   0  0  0  0  0  0  0  0  0  0  0  0
  122.1979  106.8107  108.3275 C   0  0  0  0  0  0  0  0  0  0  0  0
  123.1029  104.9213  107.0697 C   0  0  0  0  0  0  0  0  0  0  0  0
  119.3994  105.2292  106.3157 C   0  0  0  0  0  0  0  0  0  0  0  0
  117.4870  105.8753  104.9881 C   0  0  0  0  0  0  0  0  0  0  0  0
  118.7501  106.1614  105.5063 C   0  0  0  0  0  0  0  0  0  0  0  0
  120.8608  106.6046  107.7276 C   0  0  0  0  0  0  0  0  0  0  0  0
  121.7618  104.6027  106.5310 C   0  0  0  0  0  0  0  0  0  0  0  0
  120.7113  105.4863  106.8737 N   0  0  0  0  0  0  0  0  0  0  0  0
  119.9966  107.4487  107.9606 O   0  0  0  0  0  0  0  0  0  0  0  0
  121.6418  103.5650  105.8812 O   0  0  0  0  0  0  0  0  0  0  0  0
  116.6234  106.9839  103.9794 Cl  0  0  0  0  0  0  0  0  0  0  0  0
  119.5298  107.6731  105.1543 Cl  0  0  0  0  0  0  0  0  0  0  0  0
  123.7924  108.9138  110.4804 H   0  0  0  0  0  0  0  0  0  0  0  0
  126.3014  103.7569  106.9553 H   0  0  0  0  0  0  0  0  0  0  0  0
  117.0447  102.7763  106.3155 H   0  0  0  0  0  0  0  0  0  0  0  0
  125.7021  107.5011  109.8447 H   0  0  0  0  0  0  0  0  0  0  0  0
  126.6273  105.6073  108.5417 H   0  0  0  0  0  0  0  0  0  0  0  0
  121.5667  108.5103  109.5287 H   0  0  0  0  0  0  0  0  0  0  0  0
  124.0828  103.2899  106.0168 H   0  0  0  0  0  0  0  0  0  0  0  0
  119.2807  103.2755  107.2362 H   0  0  0  0  0  0  0  0  0  0  0  0
  115.8891  104.4171  104.8846 H   0  0  0  0  0  0  0  0  0  0  0  0
  1  4  1  0  0  0  0
  1  6  2  0  0  0  0
  2  5  2  0  0  0  0
  2  7  1  0  0  0  0
  3  8  2  0  0  0  0
  3  9  1  0  0  0  0
  4 10  2  0  0  0  0
  5 10  1  0  0  0  0
  6 12  1  0  0  0  0
  7 13  2  0  0  0  0
  8 14  1  0  0  0  0
  9 15  2  0  0  0  0
 10 11  1  0  0  0  0
 11 12  2  0  0  0  0
 11 13  1  0  0  0  0
 12 17  1  0  0  0  0
 13 18  1  0  0  0  0
 14 16  2  0  0  0  0
 14 19  1  0  0  0  0
 15 16  1  0  0  0  0
 15 22  1  0  0  0  0
 16 23  1  0  0  0  0
 17 19  1  0  0  0  0
 17 20  2  0  0  0  0
 18 19  1  0  0  0  0
 18 21  2  0  0  0  0
  1 24  1  0  0  0  0
  2 25  1  0  0  0  0
  3 26  1  0  0  0  0
  4 27  1  0  0  0  0
  5 28  1  0  0  0  0
  6 29  1  0  0  0  0
  7 30  1  0  0  0  0
  8 31  1  0  0  0  0
  9 32  1  0  0  0  0
M  END
> <FRED Chemgauss4 score>
-10.428404

$$$$
C39857159	P60478045
  -OEChem-05122015313D

 43 45  0     0  0  0  0  0  0999 V2000
  118.6381  104.0371  104.0443 C   0  0  0  0  0  0  0  0  0  0  0  0
  117.5782  104.3419  103.1902 C   0  0  0  0  0  0  0  0  0  0  0  0
  125.8362  104.3174  108.6902 C   0  0  0  0  0  0  0  0  0  0  0  0
  125.8225  106.7204  108.4397 C   0  0  0  0  0  0  0  0  0  0  0  0
  124.6191  104.2399  108.0133 C   0  0  0  0  0  0  0  0  0  0  0  0
  124.6054  106.6428  107.7628 C   0  0  0  0  0  0  0  0  0  0  0  0
  117.1839  104.3258  105.9520 C   0  0  0  0  0  0  0  0  0  0  0  0
  118.4409  104.0290  105.4252 C   0  0  0  0  0  0  0  0  0  0  0  0
  126.4379  105.5577  108.9035 C   0  0  0  0  0  0  0  0  0  0  0  0
  116.3212  104.6386  103.7170 C   0  0  0  0  0  0  0  0  0  0  0  0
  116.1240  104.6306  105.0979 C   0  0  0  0  0  0  0  0  0  0  0  0
  124.0037  105.4026  107.5496 C   0  0  0  0  0  0  0  0  0  0  0  0
  120.6197  104.5012  106.2628 C   0  0  0  0  0  0  0  0  0  0  0  0
  121.8174  104.3077  107.1160 C   0  0  0  0  0  0  0  0  0  0  0  0
  122.3909  106.2543  105.8758 C   0  0  0  0  0  0  0  0  0  0  0  0
  119.5461  103.7107  106.3157 C   0  0  0  0  0  0  0  0  0  0  0  0
  127.7393  105.6405  109.6273 C   0  0  0  0  0  0  0  0  0  0  0  0
  115.2019  104.9616  102.7828 C   0  0  0  0  0  0  0  0  0  0  0  0
  114.7871  104.9447  105.6847 C   0  0  0  0  0  0  0  0  0  0  0  0
  119.5191  102.5410  107.2601 C   0  0  0  0  0  0  0  0  0  0  0  0
  122.7477  105.3228  106.8508 N   0  0  0  0  0  0  0  0  0  0  0  0
  121.9214  103.3472  107.8683 O   0  0  0  0  0  0  0  0  0  0  0  0
  122.9731  107.2622  105.5040 O   0  0  0  0  0  0  0  0  0  0  0  0
  120.8119  105.8391  105.2148 S   0  0  0  0  0  0  0  0  0  0  0  0
  119.6119  103.8078  103.6184 H   0  0  0  0  0  0  0  0  0  0  0  0
  117.7425  104.3464  102.1157 H   0  0  0  0  0  0  0  0  0  0  0  0
  126.3076  103.4066  109.0500 H   0  0  0  0  0  0  0  0  0  0  0  0
  126.2839  107.6909  108.6021 H   0  0  0  0  0  0  0  0  0  0  0  0
  124.1594  103.2679  107.8524 H   0  0  0  0  0  0  0  0  0  0  0  0
  124.1339  107.5553  107.4066 H   0  0  0  0  0  0  0  0  0  0  0  0
  117.0249  104.3213  107.0283 H   0  0  0  0  0  0  0  0  0  0  0  0
  128.5748  105.5715  108.9199 H   0  0  0  0  0  0  0  0  0  0  0  0
  127.8284  106.5846  110.1801 H   0  0  0  0  0  0  0  0  0  0  0  0
  127.8383  104.8314  110.3627 H   0  0  0  0  0  0  0  0  0  0  0  0
  114.6645  104.0479  102.5034 H   0  0  0  0  0  0  0  0  0  0  0  0
  114.4905  105.6588  103.2423 H   0  0  0  0  0  0  0  0  0  0  0  0
  115.5741  105.4415  101.8690 H   0  0  0  0  0  0  0  0  0  0  0  0
  114.6995  106.0205  105.8761 H   0  0  0  0  0  0  0  0  0  0  0  0
  113.9770  104.6426  105.0096 H   0  0  0  0  0  0  0  0  0  0  0  0
  114.6327  104.4079  106.6290 H   0  0  0  0  0  0  0  0  0  0  0  0
  119.9261  101.6492  106.7715 H   0  0  0  0  0  0  0  0  0  0  0  0
  120.1165  102.7494  108.1536 H   0  0  0  0  0  0  0  0  0  0  0  0
  118.5016  102.3021  107.5881 H   0  0  0  0  0  0  0  0  0  0  0  0
  1  2  2  0  0  0  0
  1  8  1  0  0  0  0
  2 10  1  0  0  0  0
  3  5  2  0  0  0  0
  3  9  1  0  0  0  0
  4  6  1  0  0  0  0
  4  9  2  0  0  0  0
  5 12  1  0  0  0  0
  6 12  2  0  0  0  0
  7  8  2  0  0  0  0
  7 11  1  0  0  0  0
  8 16  1  0  0  0  0
  9 17  1  0  0  0  0
 10 11  2  0  0  0  0
 10 18  1  0  0  0  0
 11 19  1  0  0  0  0
 12 21  1  0  0  0  0
 13 14  1  0  0  0  0
 13 16  2  0  0  0  0
 13 24  1  0  0  0  0
 14 21  1  0  0  0  0
 14 22  2  0  0  0  0
 15 21  1  0  0  0  0
 15 23  2  0  0  0  0
 15 24  1  0  0  0  0
 16 20  1  0  0  0  0
  1 25  1  0  0  0  0
  2 26  1  0  0  0  0
  3 27  1  0  0  0  0
  4 28  1  0  0  0  0
  5 29  1  0  0  0  0
  6 30  1  0  0  0  0
  7 31  1  0  0  0  0
 17 32  1  0  0  0  0
 17 33  1  0  0  0  0
 17 34  1  0  0  0  0
 18 35  1  0  0  0  0
 18 36  1  0  0  0  0
 18 37  1  0  0  0  0
 19 38  1  0  0  0  0
 19 39  1  0  0  0  0
 19 40  1  0  0  0  0
 20 41  1  0  0  0  0
 20 42  1  0  0  0  0
 20 43  1  0  0  0  0
M  END
> <FRED Chemgauss4 score>
-10.427145

$$$$
C83139589	P129949964
  -OEChem-05122015313D

 31 32  0     0  0  0  0  0  0999 V2000
  124.1912  105.1316  107.3756 C   0  0  0  0  0  0  0  0  0  0  0  0
  123.0905  104.8552  106.5723 C   0  0  0  0  0  0  0  0  0  0  0  0
  124.4412  107.2015  106.2311 C   0  0  0  0  0  0  0  0  0  0  0  0
  124.8850  106.3249  107.2081 C   0  0  0  0  0  0  0  0  0  0  0  0
  122.7270  105.7977  105.6239 C   0  0  0  0  0  0  0  0  0  0  0  0
  117.9492  104.0947  104.6697 C   0  0  0  0  0  0  0  0  0  0  0  0
  117.7784  103.7713  106.1276 C   0  0  0  0  0  0  0  0  0  0  0  0
  119.0598  104.3886  105.6398 C   0  0  0  0  0  0  0  0  0  0  0  0
  126.0652  106.6498  108.0528 C   0  0  0  0  0  0  0  0  0  0  0  0
  119.3956  105.7965  105.9911 C   0  0  0  0  0  0  0  0  0  0  0  0
  123.3763  106.9678  105.4318 N   0  0  0  0  0  0  0  0  0  0  0  0
  121.6670  105.5986  104.8032 N   0  5  0  0  0  0  0  0  0  0  0  0
  125.7183  107.3840  109.3029 N   0  3  0  0  0  0  0  0  0  0  0  0
  119.5965  106.4997  103.5476 O   0  0  0  0  0  0  0  0  0  0  0  0
  120.6312  107.9149  105.2904 O   0  0  0  0  0  0  0  0  0  0  0  0
  120.4096  106.5699  104.7609 S   0  0  0  0  0  0  0  0  0  0  0  0
  124.5010  104.4120  108.1284 H   0  0  0  0  0  0  0  0  0  0  0  0
  122.5440  103.9258  106.6994 H   0  0  0  0  0  0  0  0  0  0  0  0
  124.9419  108.1486  106.0548 H   0  0  0  0  0  0  0  0  0  0  0  0
  118.0670  103.2672  103.9810 H   0  0  0  0  0  0  0  0  0  0  0  0
  117.3931  104.9343  104.2711 H   0  0  0  0  0  0  0  0  0  0  0  0
  117.1074  104.3939  106.7065 H   0  0  0  0  0  0  0  0  0  0  0  0
  117.7820  102.7271  106.4152 H   0  0  0  0  0  0  0  0  0  0  0  0
  119.9397  103.7576  105.6031 H   0  0  0  0  0  0  0  0  0  0  0  0
  126.6025  105.7440  108.3706 H   0  0  0  0  0  0  0  0  0  0  0  0
  126.7885  107.2832  107.5181 H   0  0  0  0  0  0  0  0  0  0  0  0
  119.9553  105.8651  106.9378 H   0  0  0  0  0  0  0  0  0  0  0  0
  118.4960  106.4253  106.0874 H   0  0  0  0  0  0  0  0  0  0  0  0
  125.1871  106.7828  109.9377 H   0  0  0  0  0  0  0  0  0  0  0  0
  125.1505  108.2081  109.0897 H   0  0  0  0  0  0  0  0  0  0  0  0
  126.5658  107.6930  109.7857 H   0  0  0  0  0  0  0  0  0  0  0  0
  1  2  1  0  0  0  0
  1  4  2  0  0  0  0
  2  5  2  0  0  0  0
  3  4  1  0  0  0  0
  3 11  2  0  0  0  0
  4  9  1  0  0  0  0
  5 11  1  0  0  0  0
  5 12  1  0  0  0  0
  6  7  1  0  0  0  0
  6  8  1  0  0  0  0
  7  8  1  0  0  0  0
  8 10  1  0  0  0  0
  9 13  1  0  0  0  0
 10 16  1  0  0  0  0
 12 16  1  0  0  0  0
 14 16  2  0  0  0  0
 15 16  2  0  0  0  0
  1 17  1  0  0  0  0
  2 18  1  0  0  0  0
  3 19  1  0  0  0  0
  6 20  1  0  0  0  0
  6 21  1  0  0  0  0
  7 22  1  0  0  0  0
  7 23  1  0  0  0  0
  8 24  1  0  0  0  0
  9 25  1  0  0  0  0
  9 26  1  0  0  0  0
 10 27  1  0  0  0  0
 10 28  1  0  0  0  0
 13 29  1  0  0  0  0
 13 30  1  0  0  0  0
 13 31  1  0  0  0  0
M  CHG  2  12  -1  13   1
M  END
> <FRED Chemgauss4 score>
-10.426178

$$$$
C96141854	P151445700
  -OEChem-05122015313D

 47 49  0     1  0  0  0  0  0999 V2000
  116.6660  106.1810  103.4840 C   0  0  0  0  0  0  0  0  0  0  0  0
  116.0195  107.3963  103.5370 C   0  0  0  0  0  0  0  0  0  0  0  0
  118.4521  107.6312  103.8148 C   0  0  0  0  0  0  0  0  0  0  0  0
  125.6920  105.3876  107.2970 C   0  0  0  0  0  0  0  0  0  0  0  0
  118.0752  106.3170  103.6451 C   0  0  0  0  0  0  0  0  0  0  0  0
  124.3190  105.5031  107.2382 C   0  0  0  0  0  0  0  0  0  0  0  0
  124.7821  107.4858  108.0533 C   0  0  0  0  0  0  0  0  0  0  0  0
  123.4196  104.4277  106.7467 C   0  0  0  0  0  0  0  0  0  0  0  0
  118.6623  106.2439  106.6276 C   0  0  0  0  0  0  0  0  0  0  0  0
  119.7254  104.0122  107.0268 C   0  0  0  0  0  0  0  0  0  0  0  0
  120.7221  103.9333  104.8623 C   0  0  0  0  0  0  0  0  0  0  0  0
  118.9274  104.8870  106.0536 C   0  0  2  0  0  0  0  0  0  0  0  0
  121.0631  103.7686  106.3349 C   0  0  1  0  0  0  0  0  0  0  0  0
  124.6091  108.8578  108.5783 C   0  0  0  0  0  0  0  0  0  0  0  0
  115.3530  107.8743  107.2442 C   0  0  0  0  0  0  0  0  0  0  0  0
  119.0348  105.1624  103.6302 C   0  0  0  0  0  0  0  0  0  0  0  0
  116.8427  107.8170  107.2573 C   0  0  0  0  0  0  0  0  0  0  0  0
  123.7954  106.7055  107.6718 N   0  0  0  0  0  0  0  0  0  0  0  0
  119.7845  105.0605  104.8755 N   0  0  2  0  0  0  0  0  0  0  0  0
  122.0638  104.7191  106.7584 N   0  0  0  0  0  0  0  0  0  0  0  0
  117.3209  106.5594  106.7292 N   0  0  0  0  0  0  0  0  0  0  0  0
  123.9044  103.3587  106.3849 O   0  0  0  0  0  0  0  0  0  0  0  0
  119.6043  106.9551  106.9570 O   0  0  0  0  0  0  0  0  0  0  0  0
  117.1099  108.6941  103.7799 S   0  0  0  0  0  0  0  0  0  0  0  0
  126.3654  106.8379  107.9171 S   0  0  0  0  0  0  0  0  0  0  0  0
  116.1487  105.2415  103.3361 H   0  0  0  0  0  0  0  0  0  0  0  0
  114.9592  107.5842  103.4439 H   0  0  0  0  0  0  0  0  0  0  0  0
  119.4500  108.0223  103.9567 H   0  0  0  0  0  0  0  0  0  0  0  0
  126.3163  104.5513  107.0152 H   0  0  0  0  0  0  0  0  0  0  0  0
  119.8402  104.4510  108.0240 H   0  0  0  0  0  0  0  0  0  0  0  0
  119.2072  103.0514  107.1391 H   0  0  0  0  0  0  0  0  0  0  0  0
  121.6020  104.1473  104.2465 H   0  0  0  0  0  0  0  0  0  0  0  0
  120.2394  103.0205  104.4897 H   0  0  0  0  0  0  0  0  0  0  0  0
  117.9656  104.4055  105.8220 H   0  0  0  0  0  0  0  0  0  0  0  0
  121.4591  102.7718  106.5533 H   0  0  0  0  0  0  0  0  0  0  0  0
  124.4900  108.8489  109.6730 H   0  0  0  0  0  0  0  0  0  0  0  0
  125.4708  109.5014  108.3375 H   0  0  0  0  0  0  0  0  0  0  0  0
  123.7247  109.3542  108.1463 H   0  0  0  0  0  0  0  0  0  0  0  0
  114.9671  107.7762  106.2237 H   0  0  0  0  0  0  0  0  0  0  0  0
  114.9264  107.0821  107.8691 H   0  0  0  0  0  0  0  0  0  0  0  0
  115.0149  108.8386  107.6421 H   0  0  0  0  0  0  0  0  0  0  0  0
  118.5004  104.2181  103.4799 H   0  0  0  0  0  0  0  0  0  0  0  0
  119.7562  105.2616  102.8123 H   0  0  0  0  0  0  0  0  0  0  0  0
  117.2212  107.9155  108.2792 H   0  0  0  0  0  0  0  0  0  0  0  0
  117.2672  108.6184  106.6455 H   0  0  0  0  0  0  0  0  0  0  0  0
  121.7338  105.6041  107.1316 H   0  0  0  0  0  0  0  0  0  0  0  0
  116.6382  105.8750  106.4179 H   0  0  0  0  0  0  0  0  0  0  0  0
  1  2  2  0  0  0  0
  1  5  1  0  0  0  0
  2 24  1  0  0  0  0
  3  5  2  0  0  0  0
  3 24  1  0  0  0  0
  4  6  2  0  0  0  0
  4 25  1  0  0  0  0
  5 16  1  0  0  0  0
  6  8  1  0  0  0  0
  6 18  1  0  0  0  0
  7 14  1  0  0  0  0
  7 18  2  0  0  0  0
  7 25  1  0  0  0  0
  8 20  1  0  0  0  0
  8 22  2  0  0  0  0
  9 12  1  0  0  0  0
  9 21  1  0  0  0  0
  9 23  2  0  0  0  0
 10 12  1  0  0  0  0
 10 13  1  0  0  0  0
 11 13  1  0  0  0  0
 11 19  1  0  0  0  0
 12 19  1  0  0  0  0
 13 20  1  0  0  0  0
 15 17  1  0  0  0  0
 16 19  1  0  0  0  0
 17 21  1  0  0  0  0
  1 26  1  0  0  0  0
  2 27  1  0  0  0  0
  3 28  1  0  0  0  0
  4 29  1  0  0  0  0
 10 30  1  0  0  0  0
 10 31  1  0  0  0  0
 11 32  1  0  0  0  0
 11 33  1  0  0  0  0
 12 34  1  0  0  0  0
 13 35  1  0  0  0  0
 14 36  1  0  0  0  0
 14 37  1  0  0  0  0
 14 38  1  0  0  0  0
 15 39  1  0  0  0  0
 15 40  1  0  0  0  0
 15 41  1  0  0  0  0
 16 42  1  0  0  0  0
 16 43  1  0  0  0  0
 17 44  1  0  0  0  0
 17 45  1  0  0  0  0
 20 46  1  0  0  0  0
 21 47  1  0  0  0  0
M  END
> <FRED Chemgauss4 score>
-10.419979

$$$$
C36864484	P54786761
  -OEChem-05122015313D

 30 31  0     0  0  0  0  0  0999 V2000
  118.0764  108.2694  106.7293 C   0  0  0  0  0  0  0  0  0  0  0  0
  118.6015  108.9526  107.8261 C   0  0  0  0  0  0  0  0  0  0  0  0
  120.0181  106.8322  106.6947 C   0  0  0  0  0  0  0  0  0  0  0  0
  124.1143  106.4099  108.1338 C   0  0  0  0  0  0  0  0  0  0  0  0
  120.5433  107.5154  107.7916 C   0  0  0  0  0  0  0  0  0  0  0  0
  118.7846  107.2092  106.1636 C   0  0  0  0  0  0  0  0  0  0  0  0
  119.8349  108.5756  108.3573 C   0  0  0  0  0  0  0  0  0  0  0  0
  125.1212  105.4269  108.0914 C   0  0  0  0  0  0  0  0  0  0  0  0
  124.6797  107.4508  108.8289 C   0  0  0  0  0  0  0  0  0  0  0  0
  125.0574  104.0943  107.4654 C   0  0  0  0  0  0  0  0  0  0  0  0
  124.1652  108.7746  109.2185 C   0  0  0  0  0  0  0  0  0  0  0  0
  122.7323  106.3424  107.5509 C   0  0  0  0  0  0  0  0  0  0  0  0
  126.2414  105.8093  108.7103 N   0  0  0  0  0  0  0  0  0  0  0  0
  125.9418  107.0441  109.1479 N   0  0  0  0  0  0  0  0  0  0  0  0
  121.7947  107.1100  108.3078 N   0  0  0  0  0  0  0  0  0  0  0  0
  118.1359  106.3666  104.8104 Cl  0  0  0  0  0  0  0  0  0  0  0  0
  120.4480  109.4480  109.7163 Cl  0  0  0  0  0  0  0  0  0  0  0  0
  117.1140  108.5740  106.3259 H   0  0  0  0  0  0  0  0  0  0  0  0
  118.0367  109.7764  108.2553 H   0  0  0  0  0  0  0  0  0  0  0  0
  120.5723  106.0055  106.2550 H   0  0  0  0  0  0  0  0  0  0  0  0
  125.3908  104.1301  106.4144 H   0  0  0  0  0  0  0  0  0  0  0  0
  125.6899  103.3571  107.9906 H   0  0  0  0  0  0  0  0  0  0  0  0
  124.0346  103.6779  107.4765 H   0  0  0  0  0  0  0  0  0  0  0  0
  123.6722  108.7384  110.2051 H   0  0  0  0  0  0  0  0  0  0  0  0
  124.9660  109.5334  109.2748 H   0  0  0  0  0  0  0  0  0  0  0  0
  123.4292  109.1660  108.4934 H   0  0  0  0  0  0  0  0  0  0  0  0
  122.7277  106.7222  106.5234 H   0  0  0  0  0  0  0  0  0  0  0  0
  122.3699  105.3096  107.5176 H   0  0  0  0  0  0  0  0  0  0  0  0
  126.6492  107.5540  109.6626 H   0  0  0  0  0  0  0  0  0  0  0  0
  122.0065  107.3854  109.2469 H   0  0  0  0  0  0  0  0  0  0  0  0
  1  2  2  0  0  0  0
  1  6  1  0  0  0  0
  2  7  1  0  0  0  0
  3  5  1  0  0  0  0
  3  6  2  0  0  0  0
  4  8  1  0  0  0  0
  4  9  2  0  0  0  0
  4 12  1  0  0  0  0
  5  7  2  0  0  0  0
  5 15  1  0  0  0  0
  6 16  1  0  0  0  0
  7 17  1  0  0  0  0
  8 10  1  0  0  0  0
  8 13  2  0  0  0  0
  9 11  1  0  0  0  0
  9 14  1  0  0  0  0
 12 15  1  0  0  0  0
 13 14  1  0  0  0  0
  1 18  1  0  0  0  0
  2 19  1  0  0  0  0
  3 20  1  0  0  0  0
 10 21  1  0  0  0  0
 10 22  1  0  0  0  0
 10 23  1  0  0  0  0
 11 24  1  0  0  0  0
 11 25  1  0  0  0  0
 11 26  1  0  0  0  0
 12 27  1  0  0  0  0
 12 28  1  0  0  0  0
 14 29  1  0  0  0  0
 15 30  1  0  0  0  0
M  END
> <FRED Chemgauss4 score>
-10.417953

$$$$
C79001101	P123335886
  -OEChem-05122015313D

 35 36  0     0  0  0  0  0  0999 V2000
  124.6549  105.8978  105.2823 C   0  0  0  0  0  0  0  0  0  0  0  0
  123.9702  106.7595  107.4208 C   0  0  0  0  0  0  0  0  0  0  0  0
  125.1785  107.1504  105.0056 C   0  0  0  0  0  0  0  0  0  0  0  0
  117.7654  104.2124  106.7093 C   0  0  0  0  0  0  0  0  0  0  0  0
  117.8006  105.5413  106.3581 C   0  0  0  0  0  0  0  0  0  0  0  0
  124.0409  105.7068  106.5151 C   0  0  0  0  0  0  0  0  0  0  0  0
  124.5247  107.9734  107.0485 C   0  0  0  0  0  0  0  0  0  0  0  0
  119.7902  104.6093  106.1866 C   0  0  0  0  0  0  0  0  0  0  0  0
  124.4798  109.1076  107.9552 C   0  0  0  0  0  0  0  0  0  0  0  0
  119.6411  107.0475  105.5869 C   0  0  0  0  0  0  0  0  0  0  0  0
  123.4606  104.3786  106.8640 C   0  0  0  0  0  0  0  0  0  0  0  0
  121.2617  104.4996  105.9097 C   0  0  0  0  0  0  0  0  0  0  0  0
  125.1290  108.1969  105.8600 N   0  0  0  0  0  0  0  0  0  0  0  0
  119.0072  103.6380  106.6007 N   0  0  0  0  0  0  0  0  0  0  0  0
  123.8922  108.9071  109.1223 N   0  0  0  0  0  0  0  0  0  0  0  0
  119.1042  105.7811  106.0261 N   0  0  0  0  0  0  0  0  0  0  0  0
  125.0219  110.3560  107.6306 N   0  0  0  0  0  0  0  0  0  0  0  0
  122.0484  104.4529  107.1413 N   0  0  0  0  0  0  0  0  0  0  0  0
  123.9012  110.0563  109.9192 O   0  0  0  0  0  0  0  0  0  0  0  0
  124.7259  105.0968  104.5544 H   0  0  0  0  0  0  0  0  0  0  0  0
  123.4953  106.6313  108.3885 H   0  0  0  0  0  0  0  0  0  0  0  0
  125.6675  107.3510  104.0580 H   0  0  0  0  0  0  0  0  0  0  0  0
  116.9091  103.6400  107.0349 H   0  0  0  0  0  0  0  0  0  0  0  0
  117.0388  106.3073  106.3177 H   0  0  0  0  0  0  0  0  0  0  0  0
  119.9708  107.5990  106.4713 H   0  0  0  0  0  0  0  0  0  0  0  0
  120.4822  106.8715  104.9105 H   0  0  0  0  0  0  0  0  0  0  0  0
  118.8645  107.6043  105.0552 H   0  0  0  0  0  0  0  0  0  0  0  0
  123.5982  103.6582  106.0452 H   0  0  0  0  0  0  0  0  0  0  0  0
  123.9456  103.9466  107.7504 H   0  0  0  0  0  0  0  0  0  0  0  0
  121.4799  103.5925  105.3355 H   0  0  0  0  0  0  0  0  0  0  0  0
  121.6150  105.3512  105.3189 H   0  0  0  0  0  0  0  0  0  0  0  0
  125.4933  110.5221  106.7489 H   0  0  0  0  0  0  0  0  0  0  0  0
  124.9984  111.1295  108.2866 H   0  0  0  0  0  0  0  0  0  0  0  0
  121.7539  103.6351  107.6843 H   0  0  0  0  0  0  0  0  0  0  0  0
  123.4432  109.7432  110.7175 H   0  0  0  0  0  0  0  0  0  0  0  0
  1  3  2  0  0  0  0
  1  6  1  0  0  0  0
  2  6  2  0  0  0  0
  2  7  1  0  0  0  0
  3 13  1  0  0  0  0
  4  5  2  0  0  0  0
  4 14  1  0  0  0  0
  5 16  1  0  0  0  0
  6 11  1  0  0  0  0
  7  9  1  0  0  0  0
  7 13  2  0  0  0  0
  8 12  1  0  0  0  0
  8 14  2  0  0  0  0
  8 16  1  0  0  0  0
  9 15  2  0  0  0  0
  9 17  1  0  0  0  0
 10 16  1  0  0  0  0
 11 18  1  0  0  0  0
 12 18  1  0  0  0  0
 15 19  1  0  0  0  0
  1 20  1  0  0  0  0
  2 21  1  0  0  0  0
  3 22  1  0  0  0  0
  4 23  1  0  0  0  0
  5 24  1  0  0  0  0
 10 25  1  0  0  0  0
 10 26  1  0  0  0  0
 10 27  1  0  0  0  0
 11 28  1  0  0  0  0
 11 29  1  0  0  0  0
 12 30  1  0  0  0  0
 12 31  1  0  0  0  0
 17 32  1  0  0  0  0
 17 33  1  0  0  0  0
 18 34  1  0  0  0  0
 19 35  1  0  0  0  0
M  END
> <FRED Chemgauss4 score>
-10.413053

$$$$
C51123437	P76554058
  -OEChem-05122015313D

 35 36  0     1  0  0  0  0  0999 V2000
  120.8079  104.5797  105.9921 C   0  0  0  0  0  0  0  0  0  0  0  0
  125.4584  108.8204  107.7941 C   0  0  0  0  0  0  0  0  0  0  0  0
  118.8464  105.8052  106.5463 C   0  0  0  0  0  0  0  0  0  0  0  0
  124.9736  107.6617  108.3535 C   0  0  0  0  0  0  0  0  0  0  0  0
  126.7438  107.2724  107.0998 C   0  0  0  0  0  0  0  0  0  0  0  0
  121.5671  105.6773  106.3821 C   0  0  0  0  0  0  0  0  0  0  0  0
  119.4210  104.6367  106.0727 C   0  0  0  0  0  0  0  0  0  0  0  0
  120.8964  106.7992  106.8417 C   0  0  0  0  0  0  0  0  0  0  0  0
  123.0484  105.6068  106.2936 C   0  0  0  0  0  0  0  0  0  0  0  0
  125.4191  102.9497  107.2454 C   0  0  0  0  0  0  0  0  0  0  0  0
  125.7151  105.2539  108.2110 C   0  0  0  0  0  0  0  0  0  0  0  0
  125.0851  104.4289  107.0812 C   0  0  2  0  0  0  0  0  0  0  0  0
  126.5601  108.5713  107.0146 N   0  0  0  0  0  0  0  0  0  0  0  0
  119.5509  106.8918  106.9343 N   0  0  0  0  0  0  0  0  0  0  0  0
  125.8070  106.6786  107.8993 N   0  0  0  0  0  0  0  0  0  0  0  0
  121.1085  108.9497  107.9610 N   0  0  0  0  0  0  0  0  0  0  0  0
  121.6633  107.9220  107.2417 N   0  0  0  0  0  0  0  0  0  0  0  0
  123.6521  104.6098  107.0436 N   0  0  0  0  0  0  0  0  0  0  0  0
  123.6475  106.4231  105.5983 O   0  0  0  0  0  0  0  0  0  0  0  0
  118.3566  103.1722  105.5536 Br  0  0  0  0  0  0  0  0  0  0  0  0
  121.3008  103.6818  105.6259 H   0  0  0  0  0  0  0  0  0  0  0  0
  125.0700  109.8214  107.9129 H   0  0  0  0  0  0  0  0  0  0  0  0
  117.7695  105.9144  106.6342 H   0  0  0  0  0  0  0  0  0  0  0  0
  124.1392  107.4599  109.0105 H   0  0  0  0  0  0  0  0  0  0  0  0
  127.5287  106.7122  106.6104 H   0  0  0  0  0  0  0  0  0  0  0  0
  125.0557  102.5741  108.2082 H   0  0  0  0  0  0  0  0  0  0  0  0
  126.5009  102.7856  107.2046 H   0  0  0  0  0  0  0  0  0  0  0  0
  124.9511  102.3468  106.4591 H   0  0  0  0  0  0  0  0  0  0  0  0
  126.7251  104.8966  108.4486 H   0  0  0  0  0  0  0  0  0  0  0  0
  125.1214  105.1725  109.1302 H   0  0  0  0  0  0  0  0  0  0  0  0
  125.4633  104.7672  106.1094 H   0  0  0  0  0  0  0  0  0  0  0  0
  121.4393  109.8277  107.5637 H   0  0  0  0  0  0  0  0  0  0  0  0
  121.4757  108.9151  108.9111 H   0  0  0  0  0  0  0  0  0  0  0  0
  122.6654  107.8526  107.1733 H   0  0  0  0  0  0  0  0  0  0  0  0
  123.0950  104.0110  107.6445 H   0  0  0  0  0  0  0  0  0  0  0  0
  1  6  1  0  0  0  0
  1  7  2  0  0  0  0
  2  4  2  0  0  0  0
  2 13  1  0  0  0  0
  3  7  1  0  0  0  0
  3 14  2  0  0  0  0
  4 15  1  0  0  0  0
  5 13  2  0  0  0  0
  5 15  1  0  0  0  0
  6  8  2  0  0  0  0
  6  9  1  0  0  0  0
  7 20  1  0  0  0  0
  8 14  1  0  0  0  0
  8 17  1  0  0  0  0
  9 18  1  0  0  0  0
  9 19  2  0  0  0  0
 10 12  1  0  0  0  0
 11 12  1  0  0  0  0
 11 15  1  0  0  0  0
 12 18  1  0  0  0  0
 16 17  1  0  0  0  0
  1 21  1  0  0  0  0
  2 22  1  0  0  0  0
  3 23  1  0  0  0  0
  4 24  1  0  0  0  0
  5 25  1  0  0  0  0
 10 26  1  0  0  0  0
 10 27  1  0  0  0  0
 10 28  1  0  0  0  0
 11 29  1  0  0  0  0
 11 30  1  0  0  0  0
 12 31  1  0  0  0  0
 16 32  1  0  0  0  0
 16 33  1  0  0  0  0
 17 34  1  0  0  0  0
 18 35  1  0  0  0  0
M  END
> <FRED Chemgauss4 score>
-10.405703

$$$$
C90644921	P141781001
  -OEChem-05122015313D

 35 37  0     1  0  0  0  0  0999 V2000
  123.7586  105.0203  107.6765 C   0  0  0  0  0  0  0  0  0  0  0  0
  124.1931  107.0669  105.9347 C   0  0  0  0  0  0  0  0  0  0  0  0
  123.0208  105.1799  106.5510 C   0  0  0  0  0  0  0  0  0  0  0  0
  124.8284  105.9837  107.9657 C   0  0  0  0  0  0  0  0  0  0  0  0
  126.0410  107.7554  107.5282 C   0  0  0  0  0  0  0  0  0  0  0  0
  119.0807  104.3062  106.8078 C   0  0  0  0  0  0  0  0  0  0  0  0
  119.8043  103.4752  105.7314 C   0  0  2  0  0  0  0  0  0  0  0  0
  120.8519  104.5992  105.5962 C   0  0  1  0  0  0  0  0  0  0  0  0
  119.9220  105.5398  106.4041 C   0  0  1  0  0  0  0  0  0  0  0  0
  117.7149  108.3849  105.6162 C   0  0  0  0  0  0  0  0  0  0  0  0
  118.4297  107.3581  106.4684 C   0  0  0  0  0  0  0  0  0  0  0  0
  123.2462  106.2301  105.6608 N   0  0  0  0  0  0  0  0  0  0  0  0
  125.6454  106.0221  108.9697 N   0  0  0  0  0  0  0  0  0  0  0  0
  126.4229  107.1250  108.7271 N   0  0  0  0  0  0  0  0  0  0  0  0
  124.9878  106.9743  107.0572 N   0  0  0  0  0  0  0  0  0  0  0  0
  118.9805  103.4673  104.5222 N   0  0  0  0  0  0  0  0  0  0  0  0
  122.0493  104.2868  106.3079 N   0  0  0  0  0  0  0  0  0  0  0  0
  126.5310  108.7558  107.0282 O   0  0  0  0  0  0  0  0  0  0  0  0
  119.2211  106.5354  105.6320 O   0  0  0  0  0  0  0  0  0  0  0  0
  123.5969  104.2104  108.3786 H   0  0  0  0  0  0  0  0  0  0  0  0
  124.4288  107.9192  105.2799 H   0  0  0  0  0  0  0  0  0  0  0  0
  117.9931  104.4518  106.6650 H   0  0  0  0  0  0  0  0  0  0  0  0
  119.2310  103.9573  107.8438 H   0  0  0  0  0  0  0  0  0  0  0  0
  120.1628  102.4930  106.0584 H   0  0  0  0  0  0  0  0  0  0  0  0
  121.0743  104.9466  104.5786 H   0  0  0  0  0  0  0  0  0  0  0  0
  120.4045  106.0188  107.2722 H   0  0  0  0  0  0  0  0  0  0  0  0
  118.4310  109.0160  105.0826 H   0  0  0  0  0  0  0  0  0  0  0  0
  117.0632  107.8942  104.8858 H   0  0  0  0  0  0  0  0  0  0  0  0
  117.0752  109.0224  106.2356 H   0  0  0  0  0  0  0  0  0  0  0  0
  117.7079  106.7303  106.9993 H   0  0  0  0  0  0  0  0  0  0  0  0
  119.0810  107.8501  107.1970 H   0  0  0  0  0  0  0  0  0  0  0  0
  127.1575  107.3882  109.3716 H   0  0  0  0  0  0  0  0  0  0  0  0
  118.0072  103.2638  104.6148 H   0  0  0  0  0  0  0  0  0  0  0  0
  119.4416  103.4615  103.6364 H   0  0  0  0  0  0  0  0  0  0  0  0
  122.2135  103.3350  106.6697 H   0  0  0  0  0  0  0  0  0  0  0  0
  1  3  2  0  0  0  0
  1  4  1  0  0  0  0
  2 12  2  0  0  0  0
  2 15  1  0  0  0  0
  3 12  1  0  0  0  0
  3 17  1  0  0  0  0
  4 13  2  0  0  0  0
  4 15  1  0  0  0  0
  5 14  1  0  0  0  0
  5 15  1  0  0  0  0
  5 18  2  0  0  0  0
  6  7  1  0  0  0  0
  6  9  1  0  0  0  0
  7  8  1  0  0  0  0
  7 16  1  0  0  0  0
  8  9  1  0  0  0  0
  8 17  1  0  0  0  0
  9 19  1  0  0  0  0
 10 11  1  0  0  0  0
 11 19  1  0  0  0  0
 13 14  1  0  0  0  0
  1 20  1  0  0  0  0
  2 21  1  0  0  0  0
  6 22  1  0  0  0  0
  6 23  1  0  0  0  0
  7 24  1  0  0  0  0
  8 25  1  0  0  0  0
  9 26  1  0  0  0  0
 10 27  1  0  0  0  0
 10 28  1  0  0  0  0
 10 29  1  0  0  0  0
 11 30  1  0  0  0  0
 11 31  1  0  0  0  0
 14 32  1  0  0  0  0
 16 33  1  0  0  0  0
 16 34  1  0  0  0  0
 17 35  1  0  0  0  0
M  END
> <FRED Chemgauss4 score>
-10.404028

$$$$
C86456117	P135352603
  -OEChem-05122015313D

 32 32  0     0  0  0  0  0  0999 V2000
  125.2670  103.5489  108.4467 C   0  0  0  0  0  0  0  0  0  0  0  0
  126.0482  104.6315  108.1239 C   0  0  0  0  0  0  0  0  0  0  0  0
  125.2327  105.4170  107.2874 C   0  0  0  0  0  0  0  0  0  0  0  0
  123.0184  108.7557  112.5016 C   0  0  0  0  0  0  0  0  0  0  0  0
  127.4297  104.8900  108.5679 C   0  0  0  0  0  0  0  0  0  0  0  0
  123.7286  107.9824  108.9732 C   0  0  0  0  0  0  0  0  0  0  0  0
  123.7909  108.7547  110.2821 C   0  0  0  0  0  0  0  0  0  0  0  0
  124.5573  108.6491  107.8892 C   0  0  0  0  0  0  0  0  0  0  0  0
  124.0259  104.8792  107.0910 N   0  0  0  0  0  0  0  0  0  0  0  0
  125.5614  106.5977  106.7089 N   0  5  0  0  0  0  0  0  0  0  0  0
  124.0775  103.7440  107.8086 N   0  0  0  0  0  0  0  0  0  0  0  0
  127.5236  105.6662  109.8434 N   0  3  0  0  0  0  0  0  0  0  0  0
  123.1072  107.2891  106.2913 O   0  0  0  0  0  0  0  0  0  0  0  0
  124.9089  108.7048  105.3636 O   0  0  0  0  0  0  0  0  0  0  0  0
  122.9865  108.0899  111.2462 O   0  0  0  0  0  0  0  0  0  0  0  0
  124.4988  107.7351  106.3810 S   0  0  0  0  0  0  0  0  0  0  0  0
  125.4436  102.6762  109.0594 H   0  0  0  0  0  0  0  0  0  0  0  0
  122.3905  108.2180  113.2162 H   0  0  0  0  0  0  0  0  0  0  0  0
  122.6567  109.7800  112.3811 H   0  0  0  0  0  0  0  0  0  0  0  0
  124.0478  108.7756  112.8673 H   0  0  0  0  0  0  0  0  0  0  0  0
  127.9969  103.9587  108.7473 H   0  0  0  0  0  0  0  0  0  0  0  0
  128.0095  105.4697  107.8268 H   0  0  0  0  0  0  0  0  0  0  0  0
  124.0732  106.9535  109.1375 H   0  0  0  0  0  0  0  0  0  0  0  0
  122.6835  107.8899  108.6513 H   0  0  0  0  0  0  0  0  0  0  0  0
  123.4101  109.7729  110.1534 H   0  0  0  0  0  0  0  0  0  0  0  0
  124.8176  108.8032  110.6589 H   0  0  0  0  0  0  0  0  0  0  0  0
  125.6102  108.7174  108.1785 H   0  0  0  0  0  0  0  0  0  0  0  0
  124.1867  109.6540  107.6662 H   0  0  0  0  0  0  0  0  0  0  0  0
  123.2602  103.1467  107.8200 H   0  0  0  0  0  0  0  0  0  0  0  0
  126.8566  105.3059  110.5275 H   0  0  0  0  0  0  0  0  0  0  0  0
  127.3167  106.6519  109.6738 H   0  0  0  0  0  0  0  0  0  0  0  0
  128.4641  105.5928  110.2345 H   0  0  0  0  0  0  0  0  0  0  0  0
  1  2  2  0  0  0  0
  1 11  1  0  0  0  0
  2  3  1  0  0  0  0
  2  5  1  0  0  0  0
  3  9  2  0  0  0  0
  3 10  1  0  0  0  0
  4 15  1  0  0  0  0
  5 12  1  0  0  0  0
  6  7  1  0  0  0  0
  6  8  1  0  0  0  0
  7 15  1  0  0  0  0
  8 16  1  0  0  0  0
  9 11  1  0  0  0  0
 10 16  1  0  0  0  0
 13 16  2  0  0  0  0
 14 16  2  0  0  0  0
  1 17  1  0  0  0  0
  4 18  1  0  0  0  0
  4 19  1  0  0  0  0
  4 20  1  0  0  0  0
  5 21  1  0  0  0  0
  5 22  1  0  0  0  0
  6 23  1  0  0  0  0
  6 24  1  0  0  0  0
  7 25  1  0  0  0  0
  7 26  1  0  0  0  0
  8 27  1  0  0  0  0
  8 28  1  0  0  0  0
 11 29  1  0  0  0  0
 12 30  1  0  0  0  0
 12 31  1  0  0  0  0
 12 32  1  0  0  0  0
M  CHG  2  10  -1  12   1
M  END
> <FRED Chemgauss4 score>
-10.401814

$$$$
C01596463	P139535506
  -OEChem-05122015313D

 16 17  0     0  0  0  0  0  0999 V2000
  126.1740  105.4635  108.5718 C   0  0  0  0  0  0  0  0  0  0  0  0
  125.3469  104.4641  108.0543 C   0  0  0  0  0  0  0  0  0  0  0  0
  124.4960  105.9240  106.3536 C   0  0  0  0  0  0  0  0  0  0  0  0
  125.3136  106.9037  106.8687 C   0  0  0  0  0  0  0  0  0  0  0  0
  126.1592  106.6907  107.9493 C   0  0  0  0  0  0  0  0  0  0  0  0
  125.5341  108.2908  106.4624 C   0  0  0  0  0  0  0  0  0  0  0  0
  124.5128  104.6830  106.9545 N   0  3  0  0  0  0  0  0  0  0  0  0
  126.8316  107.8549  108.3009 N   0  0  0  0  0  0  0  0  0  0  0  0
  126.4779  108.7920  107.3459 N   0  0  0  0  0  0  0  0  0  0  0  0
  123.7730  103.7424  106.5148 O   0  5  0  0  0  0  0  0  0  0  0  0
  124.9807  108.8400  105.5293 O   0  0  0  0  0  0  0  0  0  0  0  0
  126.8002  105.2696  109.4353 H   0  0  0  0  0  0  0  0  0  0  0  0
  125.2880  103.4662  108.4660 H   0  0  0  0  0  0  0  0  0  0  0  0
  123.8312  106.0309  105.5122 H   0  0  0  0  0  0  0  0  0  0  0  0
  127.7685  107.8462  108.6778 H   0  0  0  0  0  0  0  0  0  0  0  0
  126.8608  109.7276  107.2983 H   0  0  0  0  0  0  0  0  0  0  0  0
  1  2  1  0  0  0  0
  1  5  2  0  0  0  0
  2  7  2  0  0  0  0
  3  4  2  0  0  0  0
  3  7  1  0  0  0  0
  4  5  1  0  0  0  0
  4  6  1  0  0  0  0
  5  8  1  0  0  0  0
  6  9  1  0  0  0  0
  6 11  2  0  0  0  0
  7 10  1  0  0  0  0
  8  9  1  0  0  0  0
  1 12  1  0  0  0  0
  2 13  1  0  0  0  0
  3 14  1  0  0  0  0
  8 15  1  0  0  0  0
  9 16  1  0  0  0  0
M  CHG  2   7   1  10  -1
M  END
> <FRED Chemgauss4 score>
-10.400890

$$$$
C86157456	P134917516
  -OEChem-05122015313D

 28 28  0     0  0  0  0  0  0999 V2000
  117.0215  103.7377  105.2782 C   0  0  0  0  0  0  0  0  0  0  0  0
  118.1362  103.6290  105.7108 C   0  0  0  0  0  0  0  0  0  0  0  0
  124.5194  109.0593  108.7380 C   0  0  0  0  0  0  0  0  0  0  0  0
  124.7482  107.8980  107.0186 C   0  0  0  0  0  0  0  0  0  0  0  0
  122.4848  105.7169  105.9064 C   0  0  0  0  0  0  0  0  0  0  0  0
  124.3798  104.6766  107.1748 C   0  0  0  0  0  0  0  0  0  0  0  0
  119.4950  103.4915  106.2406 C   0  0  0  0  0  0  0  0  0  0  0  0
  124.7372  106.8067  105.9875 C   0  0  0  0  0  0  0  0  0  0  0  0
  121.6574  104.5264  106.3582 C   0  0  0  0  0  0  0  0  0  0  0  0
  124.2521  107.8197  108.2315 N   0  0  0  0  0  0  0  0  0  0  0  0
  125.2841  109.1325  106.8222 N   0  0  0  0  0  0  0  0  0  0  0  0
  125.1497  109.8997  107.9147 N   0  0  0  0  0  0  0  0  0  0  0  0
  120.3306  104.6182  105.8195 N   0  0  0  0  0  0  0  0  0  0  0  0
  123.8155  105.7336  106.3390 N   0  0  0  0  0  0  0  0  0  0  0  0
  121.9889  106.5991  105.2005 O   0  0  0  0  0  0  0  0  0  0  0  0
  116.0330  103.8342  104.8940 H   0  0  0  0  0  0  0  0  0  0  0  0
  124.2385  109.3439  109.7435 H   0  0  0  0  0  0  0  0  0  0  0  0
  124.8050  103.8886  106.5479 H   0  0  0  0  0  0  0  0  0  0  0  0
  123.6029  104.2410  107.8091 H   0  0  0  0  0  0  0  0  0  0  0  0
  125.1685  105.0813  107.8147 H   0  0  0  0  0  0  0  0  0  0  0  0
  119.9478  102.5593  105.8891 H   0  0  0  0  0  0  0  0  0  0  0  0
  119.4695  103.4519  107.3343 H   0  0  0  0  0  0  0  0  0  0  0  0
  124.4382  107.2017  105.0105 H   0  0  0  0  0  0  0  0  0  0  0  0
  125.7333  106.3673  105.8698 H   0  0  0  0  0  0  0  0  0  0  0  0
  122.0992  103.5961  105.9922 H   0  0  0  0  0  0  0  0  0  0  0  0
  121.5703  104.5143  107.4477 H   0  0  0  0  0  0  0  0  0  0  0  0
  125.4872  110.8570  107.9653 H   0  0  0  0  0  0  0  0  0  0  0  0
  120.3618  104.6282  104.7930 H   0  0  0  0  0  0  0  0  0  0  0  0
  1  2  3  0  0  0  0
  2  7  1  0  0  0  0
  3 10  2  0  0  0  0
  3 12  1  0  0  0  0
  4  8  1  0  0  0  0
  4 10  1  0  0  0  0
  4 11  2  0  0  0  0
  5  9  1  0  0  0  0
  5 14  1  0  0  0  0
  5 15  2  0  0  0  0
  6 14  1  0  0  0  0
  7 13  1  0  0  0  0
  8 14  1  0  0  0  0
  9 13  1  0  0  0  0
 11 12  1  0  0  0  0
  1 16  1  0  0  0  0
  3 17  1  0  0  0  0
  6 18  1  0  0  0  0
  6 19  1  0  0  0  0
  6 20  1  0  0  0  0
  7 21  1  0  0  0  0
  7 22  1  0  0  0  0
  8 23  1  0  0  0  0
  8 24  1  0  0  0  0
  9 25  1  0  0  0  0
  9 26  1  0  0  0  0
 12 27  1  0  0  0  0
 13 28  1  0  0  0  0
M  END
> <FRED Chemgauss4 score>
-10.391474

$$$$
C84174532	P131723943
  -OEChem-05122015313D

 39 39  0     1  0  0  0  0  0999 V2000
  125.8299  104.0629  108.5946 C   0  0  0  0  0  0  0  0  0  0  0  0
  126.6662  105.3346  108.5077 C   0  0  0  0  0  0  0  0  0  0  0  0
  124.9201  103.9356  107.3756 C   0  0  0  0  0  0  0  0  0  0  0  0
  125.7921  106.5679  108.3185 C   0  0  0  0  0  0  0  0  0  0  0  0
  124.0492  105.1782  107.1500 C   0  0  1  0  0  0  0  0  0  0  0  0
  122.8594  108.5157  110.6713 C   0  0  0  0  0  0  0  0  0  0  0  0
  124.1698  110.6479  110.6732 C   0  0  0  0  0  0  0  0  0  0  0  0
  122.9242  105.3023  108.1756 C   0  0  0  0  0  0  0  0  0  0  0  0
  124.1751  109.2135  108.6059 C   0  0  0  0  0  0  0  0  0  0  0  0
  123.3434  109.6885  109.8126 C   0  0  0  0  0  0  0  0  0  0  0  0
  123.4008  108.3363  107.7388 N   0  5  0  0  0  0  0  0  0  0  0  0
  124.9208  106.3983  107.1216 N   0  0  1  0  0  0  0  0  0  0  0  0
  122.0376  104.1279  108.0500 N   0  3  0  0  0  0  0  0  0  0  0  0
  123.4353  107.3799  105.3417 O   0  0  0  0  0  0  0  0  0  0  0  0
  125.3891  108.6632  106.1278 O   0  0  0  0  0  0  0  0  0  0  0  0
  124.2386  107.8293  106.4801 S   0  0  0  0  0  0  0  0  0  0  0  0
  126.4898  103.1888  108.6551 H   0  0  0  0  0  0  0  0  0  0  0  0
  125.2271  104.0759  109.5095 H   0  0  0  0  0  0  0  0  0  0  0  0
  127.2608  105.4417  109.4261 H   0  0  0  0  0  0  0  0  0  0  0  0
  127.3775  105.2530  107.6754 H   0  0  0  0  0  0  0  0  0  0  0  0
  125.5404  103.7437  106.4861 H   0  0  0  0  0  0  0  0  0  0  0  0
  124.2793  103.0473  107.5037 H   0  0  0  0  0  0  0  0  0  0  0  0
  125.1699  106.6936  109.2123 H   0  0  0  0  0  0  0  0  0  0  0  0
  126.4110  107.4661  108.2025 H   0  0  0  0  0  0  0  0  0  0  0  0
  123.5759  105.0957  106.1293 H   0  0  0  0  0  0  0  0  0  0  0  0
  123.7091  107.9397  111.0534 H   0  0  0  0  0  0  0  0  0  0  0  0
  122.2245  107.8359  110.0929 H   0  0  0  0  0  0  0  0  0  0  0  0
  122.2848  108.8643  111.5352 H   0  0  0  0  0  0  0  0  0  0  0  0
  125.0660  110.1507  111.0596 H   0  0  0  0  0  0  0  0  0  0  0  0
  123.5885  110.9995  111.5322 H   0  0  0  0  0  0  0  0  0  0  0  0
  124.4892  111.5238  110.0980 H   0  0  0  0  0  0  0  0  0  0  0  0
  122.3244  106.1912  107.9907 H   0  0  0  0  0  0  0  0  0  0  0  0
  123.3201  105.3112  109.1891 H   0  0  0  0  0  0  0  0  0  0  0  0
  124.5116  110.0895  108.0366 H   0  0  0  0  0  0  0  0  0  0  0  0
  125.0843  108.7116  108.9596 H   0  0  0  0  0  0  0  0  0  0  0  0
  122.4615  110.2352  109.4528 H   0  0  0  0  0  0  0  0  0  0  0  0
  122.0470  103.5593  108.9063 H   0  0  0  0  0  0  0  0  0  0  0  0
  122.3288  103.5222  107.2719 H   0  0  0  0  0  0  0  0  0  0  0  0
  121.0648  104.4112  107.8759 H   0  0  0  0  0  0  0  0  0  0  0  0
  1  2  1  0  0  0  0
  1  3  1  0  0  0  0
  2  4  1  0  0  0  0
  3  5  1  0  0  0  0
  4 12  1  0  0  0  0
  5  8  1  0  0  0  0
  5 12  1  0  0  0  0
  6 10  1  0  0  0  0
  7 10  1  0  0  0  0
  8 13  1  0  0  0  0
  9 10  1  0  0  0  0
  9 11  1  0  0  0  0
 11 16  1  0  0  0  0
 12 16  1  0  0  0  0
 14 16  2  0  0  0  0
 15 16  2  0  0  0  0
  1 17  1  0  0  0  0
  1 18  1  0  0  0  0
  2 19  1  0  0  0  0
  2 20  1  0  0  0  0
  3 21  1  0  0  0  0
  3 22  1  0  0  0  0
  4 23  1  0  0  0  0
  4 24  1  0  0  0  0
  5 25  1  0  0  0  0
  6 26  1  0  0  0  0
  6 27  1  0  0  0  0
  6 28  1  0  0  0  0
  7 29  1  0  0  0  0
  7 30  1  0  0  0  0
  7 31  1  0  0  0  0
  8 32  1  0  0  0  0
  8 33  1  0  0  0  0
  9 34  1  0  0  0  0
  9 35  1  0  0  0  0
 10 36  1  0  0  0  0
 13 37  1  0  0  0  0
 13 38  1  0  0  0  0
 13 39  1  0  0  0  0
M  CHG  2  11  -1  13   1
M  END
> <FRED Chemgauss4 score>
-10.385057

$$$$
C13466960	P20703256
  -OEChem-05122015313D

 56 59  0     1  0  0  0  0  0999 V2000
  118.0167  106.8724  106.3607 C   0  0  0  0  0  0  0  0  0  0  0  0
  124.4170  109.2048  109.3651 C   0  0  0  0  0  0  0  0  0  0  0  0
  116.7308  106.1085  106.6057 C   0  0  0  0  0  0  0  0  0  0  0  0
  116.5322  105.0502  105.5338 C   0  0  0  0  0  0  0  0  0  0  0  0
  117.6932  104.0572  105.4560 C   0  0  0  0  0  0  0  0  0  0  0  0
  120.1744  103.6706  105.7902 C   0  0  0  0  0  0  0  0  0  0  0  0
  121.5230  104.2611  106.2237 C   0  0  0  0  0  0  0  0  0  0  0  0
  123.6317  104.7770  108.5575 C   0  0  0  0  0  0  0  0  0  0  0  0
  121.3132  107.6799  106.2559 C   0  0  0  0  0  0  0  0  0  0  0  0
  124.8601  105.6353  108.9206 C   0  0  0  0  0  0  0  0  0  0  0  0
  122.5426  108.0684  107.0910 C   0  0  0  0  0  0  0  0  0  0  0  0
  118.9706  104.5587  106.1527 C   0  0  1  0  0  0  0  0  0  0  0  0
  121.3468  105.2999  107.3305 C   0  0  2  0  0  0  0  0  0  0  0  0
  120.4783  106.5099  106.8477 C   0  0  2  0  0  0  0  0  0  0  0  0
  122.6064  105.7887  108.0559 C   0  0  2  0  0  0  0  0  0  0  0  0
  124.5739  107.0569  108.3917 C   0  0  1  0  0  0  0  0  0  0  0  0
  119.2624  106.0697  105.9293 C   0  0  2  0  0  0  0  0  0  0  0  0
  123.4518  106.8579  107.3435 C   0  0  2  0  0  0  0  0  0  0  0  0
  123.8955  109.9340  110.5661 C   0  0  0  0  0  0  0  0  0  0  0  0
  119.4744  106.3724  104.4301 C   0  0  0  0  0  0  0  0  0  0  0  0
  124.1222  106.4061  106.0259 C   0  0  0  0  0  0  0  0  0  0  0  0
  118.0518  108.0943  106.5184 O   0  0  0  0  0  0  0  0  0  0  0  0
  125.0066  109.7442  108.4386 O   0  0  0  0  0  0  0  0  0  0  0  0
  124.1320  107.8730  109.4731 O   0  0  0  0  0  0  0  0  0  0  0  0
  116.7862  105.6290  107.5840 H   0  0  0  0  0  0  0  0  0  0  0  0
  115.9009  106.8146  106.6199 H   0  0  0  0  0  0  0  0  0  0  0  0
  115.6035  104.4962  105.7377 H   0  0  0  0  0  0  0  0  0  0  0  0
  116.3971  105.5343  104.5566 H   0  0  0  0  0  0  0  0  0  0  0  0
  117.3715  103.1041  105.9207 H   0  0  0  0  0  0  0  0  0  0  0  0
  117.8947  103.8016  104.3974 H   0  0  0  0  0  0  0  0  0  0  0  0
  120.2028  103.4694  104.7118 H   0  0  0  0  0  0  0  0  0  0  0  0
  120.0413  102.6935  106.2734 H   0  0  0  0  0  0  0  0  0  0  0  0
  122.1663  103.4376  106.5510 H   0  0  0  0  0  0  0  0  0  0  0  0
  122.0104  104.7003  105.3506 H   0  0  0  0  0  0  0  0  0  0  0  0
  123.9088  104.0471  107.7909 H   0  0  0  0  0  0  0  0  0  0  0  0
  123.2623  104.2211  109.4251 H   0  0  0  0  0  0  0  0  0  0  0  0
  120.6721  108.5636  106.1547 H   0  0  0  0  0  0  0  0  0  0  0  0
  121.6568  107.4409  105.2470 H   0  0  0  0  0  0  0  0  0  0  0  0
  125.0323  105.6283  110.0023 H   0  0  0  0  0  0  0  0  0  0  0  0
  125.7470  105.2143  108.4339 H   0  0  0  0  0  0  0  0  0  0  0  0
  123.0989  108.8641  106.5805 H   0  0  0  0  0  0  0  0  0  0  0  0
  122.1850  108.4963  108.0358 H   0  0  0  0  0  0  0  0  0  0  0  0
  118.7750  104.4190  107.2313 H   0  0  0  0  0  0  0  0  0  0  0  0
  120.7730  104.7896  108.1102 H   0  0  0  0  0  0  0  0  0  0  0  0
  120.0598  106.9115  107.7805 H   0  0  0  0  0  0  0  0  0  0  0  0
  122.2074  106.2619  108.9714 H   0  0  0  0  0  0  0  0  0  0  0  0
  125.4747  107.5179  107.9752 H   0  0  0  0  0  0  0  0  0  0  0  0
  122.8710  110.2667  110.3821 H   0  0  0  0  0  0  0  0  0  0  0  0
  124.5423  110.7853  110.7930 H   0  0  0  0  0  0  0  0  0  0  0  0
  123.8937  109.2596  111.4273 H   0  0  0  0  0  0  0  0  0  0  0  0
  120.3427  105.8274  104.0825 H   0  0  0  0  0  0  0  0  0  0  0  0
  119.6298  107.4364  104.3065 H   0  0  0  0  0  0  0  0  0  0  0  0
  118.5951  106.0590  103.8821 H   0  0  0  0  0  0  0  0  0  0  0  0
  124.7570  105.5528  106.2297 H   0  0  0  0  0  0  0  0  0  0  0  0
  124.7146  107.2238  105.6351 H   0  0  0  0  0  0  0  0  0  0  0  0
  123.3518  106.1337  105.3155 H   0  0  0  0  0  0  0  0  0  0  0  0
  1  3  1  0  0  0  0
  1 17  1  0  0  0  0
  1 22  2  0  0  0  0
  2 19  1  0  0  0  0
  2 23  2  0  0  0  0
  2 24  1  0  0  0  0
  3  4  1  0  0  0  0
  4  5  1  0  0  0  0
  5 12  1  0  0  0  0
  6  7  1  0  0  0  0
  6 12  1  0  0  0  0
  7 13  1  0  0  0  0
  8 10  1  0  0  0  0
  8 15  1  0  0  0  0
  9 11  1  0  0  0  0
  9 14  1  0  0  0  0
 10 16  1  0  0  0  0
 11 18  1  0  0  0  0
 12 17  1  0  0  0  0
 13 14  1  0  0  0  0
 13 15  1  0  0  0  0
 14 17  1  0  0  0  0
 15 18  1  0  0  0  0
 16 18  1  0  0  0  0
 16 24  1  0  0  0  0
 17 20  1  0  0  0  0
 18 21  1  0  0  0  0
  3 25  1  0  0  0  0
  3 26  1  0  0  0  0
  4 27  1  0  0  0  0
  4 28  1  0  0  0  0
  5 29  1  0  0  0  0
  5 30  1  0  0  0  0
  6 31  1  0  0  0  0
  6 32  1  0  0  0  0
  7 33  1  0  0  0  0
  7 34  1  0  0  0  0
  8 35  1  0  0  0  0
  8 36  1  0  0  0  0
  9 37  1  0  0  0  0
  9 38  1  0  0  0  0
 10 39  1  0  0  0  0
 10 40  1  0  0  0  0
 11 41  1  0  0  0  0
 11 42  1  0  0  0  0
 12 43  1  0  0  0  0
 13 44  1  0  0  0  0
 14 45  1  0  0  0  0
 15 46  1  0  0  0  0
 16 47  1  0  0  0  0
 19 48  1  0  0  0  0
 19 49  1  0  0  0  0
 19 50  1  0  0  0  0
 20 51  1  0  0  0  0
 20 52  1  0  0  0  0
 20 53  1  0  0  0  0
 21 54  1  0  0  0  0
 21 55  1  0  0  0  0
 21 56  1  0  0  0  0
M  END
> <FRED Chemgauss4 score>
-10.374505

$$$$
C97617202	P154726500
  -OEChem-05122015313D

 37 38  0     1  0  0  0  0  0999 V2000
  123.4433  107.6459  108.8932 C   0  0  0  0  0  0  0  0  0  0  0  0
  121.5871  104.7569  106.6152 C   0  0  0  0  0  0  0  0  0  0  0  0
  123.7003  108.9538  109.2718 C   0  0  0  0  0  0  0  0  0  0  0  0
  122.6485  106.2603  105.1086 C   0  0  0  0  0  0  0  0  0  0  0  0
  120.6230  105.3479  104.5230 C   0  0  0  0  0  0  0  0  0  0  0  0
  125.0670  109.3044  107.4586 C   0  0  0  0  0  0  0  0  0  0  0  0
  124.0452  107.1742  107.7320 C   0  0  0  0  0  0  0  0  0  0  0  0
  122.6636  105.5855  106.3186 C   0  0  0  0  0  0  0  0  0  0  0  0
  120.5432  104.6301  105.7055 C   0  0  0  0  0  0  0  0  0  0  0  0
  124.8741  108.0129  106.9952 C   0  0  0  0  0  0  0  0  0  0  0  0
  117.1275  103.3963  106.2841 C   0  0  0  0  0  0  0  0  0  0  0  0
  118.2011  105.5337  107.0781 C   0  0  0  0  0  0  0  0  0  0  0  0
  123.7954  105.7424  107.2706 C   0  0  1  0  0  0  0  0  0  0  0  0
  118.1920  104.4483  106.0124 C   0  0  0  0  0  0  0  0  0  0  0  0
  124.4995  109.7981  108.5820 N   0  0  0  0  0  0  0  0  0  0  0  0
  121.6524  106.1625  104.1999 N   0  0  0  0  0  0  0  0  0  0  0  0
  124.9340  103.7669  106.7522 N   0  0  0  0  0  0  0  0  0  0  0  0
  125.0429  105.1837  106.7123 N   0  0  0  0  0  0  0  0  0  0  0  0
  119.4704  103.8217  105.9703 O   0  0  0  0  0  0  0  0  0  0  0  0
  125.4713  107.5939  105.8731 F   0  0  0  0  0  0  0  0  0  0  0  0
  122.7917  107.0167  109.4898 H   0  0  0  0  0  0  0  0  0  0  0  0
  121.5593  104.2089  107.5536 H   0  0  0  0  0  0  0  0  0  0  0  0
  123.2563  109.3695  110.1703 H   0  0  0  0  0  0  0  0  0  0  0  0
  123.4611  106.9211  104.8229 H   0  0  0  0  0  0  0  0  0  0  0  0
  119.8365  105.2878  103.7771 H   0  0  0  0  0  0  0  0  0  0  0  0
  125.7041  109.9978  106.9198 H   0  0  0  0  0  0  0  0  0  0  0  0
  117.2758  102.9240  107.2600 H   0  0  0  0  0  0  0  0  0  0  0  0
  116.1302  103.8488  106.2622 H   0  0  0  0  0  0  0  0  0  0  0  0
  117.1363  102.6179  105.5131 H   0  0  0  0  0  0  0  0  0  0  0  0
  118.3750  105.1124  108.0729 H   0  0  0  0  0  0  0  0  0  0  0  0
  117.2449  106.0677  107.0864 H   0  0  0  0  0  0  0  0  0  0  0  0
  118.9764  106.2804  106.8734 H   0  0  0  0  0  0  0  0  0  0  0  0
  123.6117  105.1222  108.1684 H   0  0  0  0  0  0  0  0  0  0  0  0
  118.0162  104.9011  105.0312 H   0  0  0  0  0  0  0  0  0  0  0  0
  123.9961  103.5015  107.0516 H   0  0  0  0  0  0  0  0  0  0  0  0
  125.0320  103.4163  105.8002 H   0  0  0  0  0  0  0  0  0  0  0  0
  125.8173  105.4891  107.2892 H   0  0  0  0  0  0  0  0  0  0  0  0
  1  3  2  0  0  0  0
  1  7  1  0  0  0  0
  2  8  2  0  0  0  0
  2  9  1  0  0  0  0
  3 15  1  0  0  0  0
  4  8  1  0  0  0  0
  4 16  2  0  0  0  0
  5  9  2  0  0  0  0
  5 16  1  0  0  0  0
  6 10  1  0  0  0  0
  6 15  2  0  0  0  0
  7 10  2  0  0  0  0
  7 13  1  0  0  0  0
  8 13  1  0  0  0  0
  9 19  1  0  0  0  0
 10 20  1  0  0  0  0
 11 14  1  0  0  0  0
 12 14  1  0  0  0  0
 13 18  1  0  0  0  0
 14 19  1  0  0  0  0
 17 18  1  0  0  0  0
  1 21  1  0  0  0  0
  2 22  1  0  0  0  0
  3 23  1  0  0  0  0
  4 24  1  0  0  0  0
  5 25  1  0  0  0  0
  6 26  1  0  0  0  0
 11 27  1  0  0  0  0
 11 28  1  0  0  0  0
 11 29  1  0  0  0  0
 12 30  1  0  0  0  0
 12 31  1  0  0  0  0
 12 32  1  0  0  0  0
 13 33  1  0  0  0  0
 14 34  1  0  0  0  0
 17 35  1  0  0  0  0
 17 36  1  0  0  0  0
 18 37  1  0  0  0  0
M  END
> <FRED Chemgauss4 score>
-10.367458

$$$$
C70394015	P108532505
  -OEChem-05122015313D

 39 40  0     1  0  0  0  0  0999 V2000
  118.8112  103.5680  106.0757 C   0  0  0  0  0  0  0  0  0  0  0  0
  117.8061  104.5295  106.1805 C   0  0  0  0  0  0  0  0  0  0  0  0
  120.1492  103.9598  106.0311 C   0  0  0  0  0  0  0  0  0  0  0  0
  119.4770  106.2745  106.1960 C   0  0  0  0  0  0  0  0  0  0  0  0
  118.1390  105.8827  106.2407 C   0  0  0  0  0  0  0  0  0  0  0  0
  120.4821  105.3130  106.0913 C   0  0  0  0  0  0  0  0  0  0  0  0
  125.1757  108.9740  107.8437 C   0  0  0  0  0  0  0  0  0  0  0  0
  124.2866  105.3399  108.6907 C   0  0  0  0  0  0  0  0  0  0  0  0
  125.0159  106.6798  108.7695 C   0  0  0  0  0  0  0  0  0  0  0  0
  122.7744  105.5324  108.6884 C   0  0  0  0  0  0  0  0  0  0  0  0
  123.0241  107.7812  107.6814 C   0  0  0  0  0  0  0  0  0  0  0  0
  124.5438  107.6284  107.6651 C   0  0  1  0  0  0  0  0  0  0  0  0
  119.8030  107.7309  106.2601 C   0  0  0  0  0  0  0  0  0  0  0  0
  122.3655  106.4486  107.5881 N   0  0  1  0  0  0  0  0  0  0  0  0
  126.3756  109.1147  107.1874 N   0  0  0  0  0  0  0  0  0  0  0  0
  119.3204  108.3450  107.4699 N   0  0  0  0  0  0  0  0  0  0  0  0
  124.6446  109.8619  108.5063 O   0  0  0  0  0  0  0  0  0  0  0  0
  122.9689  104.5583  105.9514 O   0  0  0  0  0  0  0  0  0  0  0  0
  122.3305  106.8207  105.0449 O   0  0  0  0  0  0  0  0  0  0  0  0
  117.1651  106.7985  106.3405 F   0  0  0  0  0  0  0  0  0  0  0  0
  122.1854  105.7720  106.0312 S   0  0  0  0  0  0  0  0  0  0  0  0
  118.5518  102.5142  106.0304 H   0  0  0  0  0  0  0  0  0  0  0  0
  116.7642  104.2247  106.2148 H   0  0  0  0  0  0  0  0  0  0  0  0
  120.9231  103.2014  105.9474 H   0  0  0  0  0  0  0  0  0  0  0  0
  124.5925  104.8071  107.7841 H   0  0  0  0  0  0  0  0  0  0  0  0
  124.5759  104.7144  109.5434 H   0  0  0  0  0  0  0  0  0  0  0  0
  124.8584  107.1226  109.7542 H   0  0  0  0  0  0  0  0  0  0  0  0
  126.0879  106.5057  108.6527 H   0  0  0  0  0  0  0  0  0  0  0  0
  122.2596  104.5652  108.5769 H   0  0  0  0  0  0  0  0  0  0  0  0
  122.4707  105.9621  109.6549 H   0  0  0  0  0  0  0  0  0  0  0  0
  122.7122  108.2714  108.6107 H   0  0  0  0  0  0  0  0  0  0  0  0
  122.6994  108.4028  106.8389 H   0  0  0  0  0  0  0  0  0  0  0  0
  124.8603  107.2581  106.7052 H   0  0  0  0  0  0  0  0  0  0  0  0
  120.8881  107.8938  106.2154 H   0  0  0  0  0  0  0  0  0  0  0  0
  119.3633  108.2773  105.4156 H   0  0  0  0  0  0  0  0  0  0  0  0
  126.7325  108.3303  106.6516 H   0  0  0  0  0  0  0  0  0  0  0  0
  126.9187  109.9714  107.2173 H   0  0  0  0  0  0  0  0  0  0  0  0
  119.1219  109.3319  107.4723 H   0  0  0  0  0  0  0  0  0  0  0  0
  119.3822  107.8351  108.3358 H   0  0  0  0  0  0  0  0  0  0  0  0
  1  2  1  0  0  0  0
  1  3  2  0  0  0  0
  2  5  2  0  0  0  0
  3  6  1  0  0  0  0
  4  5  1  0  0  0  0
  4  6  2  0  0  0  0
  4 13  1  0  0  0  0
  5 20  1  0  0  0  0
  6 21  1  0  0  0  0
  7 12  1  0  0  0  0
  7 15  1  0  0  0  0
  7 17  2  0  0  0  0
  8  9  1  0  0  0  0
  8 10  1  0  0  0  0
  9 12  1  0  0  0  0
 10 14  1  0  0  0  0
 11 12  1  0  0  0  0
 11 14  1  0  0  0  0
 13 16  1  0  0  0  0
 14 21  1  0  0  0  0
 18 21  2  0  0  0  0
 19 21  2  0  0  0  0
  1 22  1  0  0  0  0
  2 23  1  0  0  0  0
  3 24  1  0  0  0  0
  8 25  1  0  0  0  0
  8 26  1  0  0  0  0
  9 27  1  0  0  0  0
  9 28  1  0  0  0  0
 10 29  1  0  0  0  0
 10 30  1  0  0  0  0
 11 31  1  0  0  0  0
 11 32  1  0  0  0  0
 12 33  1  0  0  0  0
 13 34  1  0  0  0  0
 13 35  1  0  0  0  0
 15 36  1  0  0  0  0
 15 37  1  0  0  0  0
 16 38  1  0  0  0  0
 16 39  1  0  0  0  0
M  END
> <FRED Chemgauss4 score>
-10.366707

$$$$
C39065281	P59185761
  -OEChem-05122015313D

 16 16  0     0  0  0  0  0  0999 V2000
  126.4319  106.9699  107.7330 C   0  0  0  0  0  0  0  0  0  0  0  0
  125.7668  105.8910  107.2022 C   0  0  0  0  0  0  0  0  0  0  0  0
  126.6970  108.2689  107.2021 C   0  0  0  0  0  0  0  0  0  0  0  0
  125.2609  103.5949  108.0617 C   0  0  0  0  0  0  0  0  0  0  0  0
  126.4707  105.2855  109.2617 N   0  0  0  0  0  0  0  0  0  0  0  0
  126.8400  106.5565  108.9799 N   0  0  0  0  0  0  0  0  0  0  0  0
  125.8271  104.9148  108.1710 N   0  3  0  0  0  0  0  0  0  0  0  0
  127.4151  109.1845  107.9883 N   0  0  0  0  0  0  0  0  0  0  0  0
  126.2972  108.6274  106.0651 O   0  0  0  0  0  0  0  0  0  0  0  0
  124.9953  105.7895  105.6032 S   0  5  0  0  0  0  0  0  0  0  0  0
  126.0084  102.9237  107.6301 H   0  0  0  0  0  0  0  0  0  0  0  0
  124.9639  103.2240  109.0467 H   0  0  0  0  0  0  0  0  0  0  0  0
  124.3770  103.6252  107.4182 H   0  0  0  0  0  0  0  0  0  0  0  0
  127.3611  107.0765  109.6753 H   0  0  0  0  0  0  0  0  0  0  0  0
  127.7255  108.8985  108.9106 H   0  0  0  0  0  0  0  0  0  0  0  0
  127.6348  110.1219  107.6674 H   0  0  0  0  0  0  0  0  0  0  0  0
  1  2  2  0  0  0  0
  1  3  1  0  0  0  0
  1  6  1  0  0  0  0
  2  7  1  0  0  0  0
  2 10  1  0  0  0  0
  3  8  1  0  0  0  0
  3  9  2  0  0  0  0
  4  7  1  0  0  0  0
  5  6  1  0  0  0  0
  5  7  2  0  0  0  0
  4 11  1  0  0  0  0
  4 12  1  0  0  0  0
  4 13  1  0  0  0  0
  6 14  1  0  0  0  0
  8 15  1  0  0  0  0
  8 16  1  0  0  0  0
M  CHG  2   7   1  10  -1
M  END
> <FRED Chemgauss4 score>
-10.342471

$$$$
C05275769	P07801859
  -OEChem-05122015313D

 56 60  0     1  0  0  0  0  0999 V2000
  119.1519  104.2452  106.5358 C   0  0  0  0  0  0  0  0  0  0  0  0
  120.6078  104.3162  106.9921 C   0  0  0  0  0  0  0  0  0  0  0  0
  115.0241  104.8970  104.7128 C   0  0  0  0  0  0  0  0  0  0  0  0
  116.0280  104.5679  105.8292 C   0  0  0  0  0  0  0  0  0  0  0  0
  118.7638  107.7878  105.1906 C   0  0  0  0  0  0  0  0  0  0  0  0
  115.6527  106.0169  103.8676 C   0  0  0  0  0  0  0  0  0  0  0  0
  117.8441  107.3724  104.0211 C   0  0  0  0  0  0  0  0  0  0  0  0
  121.8728  107.2801  106.0643 C   0  0  0  0  0  0  0  0  0  0  0  0
  123.1547  107.3286  106.8898 C   0  0  0  0  0  0  0  0  0  0  0  0
  122.2268  105.6263  108.4849 C   0  0  0  0  0  0  0  0  0  0  0  0
  124.8358  104.3101  107.0958 C   0  0  0  0  0  0  0  0  0  0  0  0
  125.5979  105.4004  107.7949 C   0  0  0  0  0  0  0  0  0  0  0  0
  118.4154  105.5852  106.4555 C   0  0  2  0  0  0  0  0  0  0  0  0
  120.8640  105.6219  107.7682 C   0  0  1  0  0  0  0  0  0  0  0  0
  117.0687  105.6781  105.7283 C   0  0  1  0  0  0  0  0  0  0  0  0
  119.4484  106.5781  105.8480 C   0  0  2  0  0  0  0  0  0  0  0  0
  117.1519  106.0049  104.2285 C   0  0  1  0  0  0  0  0  0  0  0  0
  120.6030  106.8908  106.8751 C   0  0  2  0  0  0  0  0  0  0  0  0
  123.4158  106.0059  107.6048 C   0  0  0  0  0  0  0  0  0  0  0  0
  117.8530  104.9162  103.3870 C   0  0  0  0  0  0  0  0  0  0  0  0
  120.2175  108.0676  107.8004 C   0  0  0  0  0  0  0  0  0  0  0  0
  118.6438  103.1636  106.2542 O   0  0  0  0  0  0  0  0  0  0  0  0
  123.6647  104.9783  106.6319 O   0  0  0  0  0  0  0  0  0  0  0  0
  124.5741  106.1490  108.4478 O   0  0  0  0  0  0  0  0  0  0  0  0
  120.8033  103.4424  107.6163 H   0  0  0  0  0  0  0  0  0  0  0  0
  121.2564  104.2435  106.1169 H   0  0  0  0  0  0  0  0  0  0  0  0
  114.8329  104.0073  104.1021 H   0  0  0  0  0  0  0  0  0  0  0  0
  114.0627  105.2214  105.1260 H   0  0  0  0  0  0  0  0  0  0  0  0
  115.5452  104.5503  106.8125 H   0  0  0  0  0  0  0  0  0  0  0  0
  116.4435  103.5731  105.6496 H   0  0  0  0  0  0  0  0  0  0  0  0
  119.4943  108.5034  104.7996 H   0  0  0  0  0  0  0  0  0  0  0  0
  118.1721  108.3287  105.9408 H   0  0  0  0  0  0  0  0  0  0  0  0
  115.4652  105.8728  102.7975 H   0  0  0  0  0  0  0  0  0  0  0  0
  115.1900  106.9719  104.1501 H   0  0  0  0  0  0  0  0  0  0  0  0
  117.1032  108.1675  103.8789 H   0  0  0  0  0  0  0  0  0  0  0  0
  118.4334  107.3520  103.0966 H   0  0  0  0  0  0  0  0  0  0  0  0
  121.7229  108.2737  105.6170 H   0  0  0  0  0  0  0  0  0  0  0  0
  122.0159  106.6067  105.2113 H   0  0  0  0  0  0  0  0  0  0  0  0
  124.0123  107.6006  106.2609 H   0  0  0  0  0  0  0  0  0  0  0  0
  123.0640  108.1358  107.6298 H   0  0  0  0  0  0  0  0  0  0  0  0
  122.1761  106.3337  109.3337 H   0  0  0  0  0  0  0  0  0  0  0  0
  122.4287  104.6481  108.9577 H   0  0  0  0  0  0  0  0  0  0  0  0
  125.3830  103.8632  106.2626 H   0  0  0  0  0  0  0  0  0  0  0  0
  124.5270  103.5229  107.7917 H   0  0  0  0  0  0  0  0  0  0  0  0
  126.3258  105.0264  108.5188 H   0  0  0  0  0  0  0  0  0  0  0  0
  126.1020  106.0618  107.0821 H   0  0  0  0  0  0  0  0  0  0  0  0
  118.1908  105.8348  107.4793 H   0  0  0  0  0  0  0  0  0  0  0  0
  120.0809  105.6507  108.5789 H   0  0  0  0  0  0  0  0  0  0  0  0
  116.5793  106.5480  106.1948 H   0  0  0  0  0  0  0  0  0  0  0  0
  119.9601  106.0661  105.0192 H   0  0  0  0  0  0  0  0  0  0  0  0
  118.9067  104.9033  103.6365 H   0  0  0  0  0  0  0  0  0  0  0  0
  117.7240  105.1465  102.3367 H   0  0  0  0  0  0  0  0  0  0  0  0
  117.4070  103.9557  103.6132 H   0  0  0  0  0  0  0  0  0  0  0  0
  119.3347  107.7935  108.3623 H   0  0  0  0  0  0  0  0  0  0  0  0
  120.0162  108.9380  107.1905 H   0  0  0  0  0  0  0  0  0  0  0  0
  121.0413  108.2655  108.4729 H   0  0  0  0  0  0  0  0  0  0  0  0
  1  2  1  0  0  0  0
  1 13  1  0  0  0  0
  1 22  2  0  0  0  0
  2 14  1  0  0  0  0
  3  4  1  0  0  0  0
  3  6  1  0  0  0  0
  4 15  1  0  0  0  0
  5  7  1  0  0  0  0
  5 16  1  0  0  0  0
  6 17  1  0  0  0  0
  7 17  1  0  0  0  0
  8  9  1  0  0  0  0
  8 18  1  0  0  0  0
  9 19  1  0  0  0  0
 10 14  1  0  0  0  0
 10 19  1  0  0  0  0
 11 12  1  0  0  0  0
 11 23  1  0  0  0  0
 12 24  1  0  0  0  0
 13 15  1  0  0  0  0
 13 16  1  0  0  0  0
 14 18  1  0  0  0  0
 15 17  1  0  0  0  0
 16 18  1  0  0  0  0
 17 20  1  0  0  0  0
 18 21  1  0  0  0  0
 19 23  1  0  0  0  0
 19 24  1  0  0  0  0
  2 25  1  0  0  0  0
  2 26  1  0  0  0  0
  3 27  1  0  0  0  0
  3 28  1  0  0  0  0
  4 29  1  0  0  0  0
  4 30  1  0  0  0  0
  5 31  1  0  0  0  0
  5 32  1  0  0  0  0
  6 33  1  0  0  0  0
  6 34  1  0  0  0  0
  7 35  1  0  0  0  0
  7 36  1  0  0  0  0
  8 37  1  0  0  0  0
  8 38  1  0  0  0  0
  9 39  1  0  0  0  0
  9 40  1  0  0  0  0
 10 41  1  0  0  0  0
 10 42  1  0  0  0  0
 11 43  1  0  0  0  0
 11 44  1  0  0  0  0
 12 45  1  0  0  0  0
 12 46  1  0  0  0  0
 13 47  1  0  0  0  0
 14 48  1  0  0  0  0
 15 49  1  0  0  0  0
 16 50  1  0  0  0  0
 20 51  1  0  0  0  0
 20 52  1  0  0  0  0
 20 53  1  0  0  0  0
 21 54  1  0  0  0  0
 21 55  1  0  0  0  0
 21 56  1  0  0  0  0
M  END
> <FRED Chemgauss4 score>
-10.342101

$$$$
C91502398	P143190438
  -OEChem-05122015313D

 39 40  0     1  0  0  0  0  0999 V2000
  117.8843  106.1789  106.4009 C   0  0  0  0  0  0  0  0  0  0  0  0
  116.5821  105.7998  106.0553 C   0  0  0  0  0  0  0  0  0  0  0  0
  117.3401  103.5810  105.4174 C   0  0  0  0  0  0  0  0  0  0  0  0
  120.8520  104.0584  106.1623 C   0  0  0  0  0  0  0  0  0  0  0  0
  118.9326  105.2488  106.2542 C   0  0  0  0  0  0  0  0  0  0  0  0
  118.6369  103.9740  105.7668 C   0  0  0  0  0  0  0  0  0  0  0  0
  116.3164  104.5203  105.5714 C   0  0  0  0  0  0  0  0  0  0  0  0
  120.3339  105.2876  106.4991 C   0  0  0  0  0  0  0  0  0  0  0  0
  124.0568  106.2447  108.4717 C   0  0  0  0  0  0  0  0  0  0  0  0
  123.0295  104.9941  110.3920 C   0  0  0  0  0  0  0  0  0  0  0  0
  126.2447  106.4220  107.3485 C   0  0  0  0  0  0  0  0  0  0  0  0
  125.2990  104.1730  107.6641 C   0  0  0  0  0  0  0  0  0  0  0  0
  122.8941  105.3611  108.9214 C   0  0  1  0  0  0  0  0  0  0  0  0
  119.8209  103.2729  105.7214 N   0  0  0  0  0  0  0  0  0  0  0  0
  114.9918  104.1646  105.2310 N   0  0  0  0  0  0  0  0  0  0  0  0
  121.6750  106.0991  108.6939 N   0  0  0  0  0  0  0  0  0  0  0  0
  125.1346  105.6141  107.8404 N   0  0  0  0  0  0  0  0  0  0  0  0
  123.9986  107.4686  108.6350 O   0  0  0  0  0  0  0  0  0  0  0  0
  122.4712  106.7758  106.3347 O   0  0  0  0  0  0  0  0  0  0  0  0
  120.3424  107.7774  107.2231 O   0  0  0  0  0  0  0  0  0  0  0  0
  121.2595  106.6582  107.1232 S   0  0  0  0  0  0  0  0  0  0  0  0
  118.0743  107.1802  106.7768 H   0  0  0  0  0  0  0  0  0  0  0  0
  115.7767  106.5218  106.1707 H   0  0  0  0  0  0  0  0  0  0  0  0
  117.1418  102.5822  105.0412 H   0  0  0  0  0  0  0  0  0  0  0  0
  121.8607  103.6704  106.1956 H   0  0  0  0  0  0  0  0  0  0  0  0
  123.1108  105.8820  111.0262 H   0  0  0  0  0  0  0  0  0  0  0  0
  122.1646  104.4120  110.7282 H   0  0  0  0  0  0  0  0  0  0  0  0
  123.9248  104.3859  110.5669 H   0  0  0  0  0  0  0  0  0  0  0  0
  127.0036  106.5318  108.1275 H   0  0  0  0  0  0  0  0  0  0  0  0
  125.8905  107.4153  107.0599 H   0  0  0  0  0  0  0  0  0  0  0  0
  126.7015  105.9459  106.4768 H   0  0  0  0  0  0  0  0  0  0  0  0
  124.8466  103.8558  106.7209 H   0  0  0  0  0  0  0  0  0  0  0  0
  124.8166  103.6344  108.4844 H   0  0  0  0  0  0  0  0  0  0  0  0
  126.3607  103.9126  107.6503 H   0  0  0  0  0  0  0  0  0  0  0  0
  122.8133  104.4704  108.2941 H   0  0  0  0  0  0  0  0  0  0  0  0
  119.9144  102.3165  105.4084 H   0  0  0  0  0  0  0  0  0  0  0  0
  114.2573  104.8227  105.3877 H   0  0  0  0  0  0  0  0  0  0  0  0
  114.8025  103.2315  104.9298 H   0  0  0  0  0  0  0  0  0  0  0  0
  120.8917  105.9439  109.3591 H   0  0  0  0  0  0  0  0  0  0  0  0
  1  2  1  0  0  0  0
  1  5  2  0  0  0  0
  2  7  2  0  0  0  0
  3  6  2  0  0  0  0
  3  7  1  0  0  0  0
  4  8  2  0  0  0  0
  4 14  1  0  0  0  0
  5  6  1  0  0  0  0
  5  8  1  0  0  0  0
  6 14  1  0  0  0  0
  7 15  1  0  0  0  0
  8 21  1  0  0  0  0
  9 13  1  0  0  0  0
  9 17  1  0  0  0  0
  9 18  2  0  0  0  0
 10 13  1  0  0  0  0
 11 17  1  0  0  0  0
 12 17  1  0  0  0  0
 13 16  1  0  0  0  0
 16 21  1  0  0  0  0
 19 21  2  0  0  0  0
 20 21  2  0  0  0  0
  1 22  1  0  0  0  0
  2 23  1  0  0  0  0
  3 24  1  0  0  0  0
  4 25  1  0  0  0  0
 10 26  1  0  0  0  0
 10 27  1  0  0  0  0
 10 28  1  0  0  0  0
 11 29  1  0  0  0  0
 11 30  1  0  0  0  0
 11 31  1  0  0  0  0
 12 32  1  0  0  0  0
 12 33  1  0  0  0  0
 12 34  1  0  0  0  0
 13 35  1  0  0  0  0
 14 36  1  0  0  0  0
 15 37  1  0  0  0  0
 15 38  1  0  0  0  0
 16 39  1  0  0  0  0
M  END
> <FRED Chemgauss4 score>
-10.339480

$$$$
C92292923	P144481736
  -OEChem-05122015313D

 43 45  0     0  0  0  0  0  0999 V2000
  115.8627  104.0455  103.5618 C   0  0  0  0  0  0  0  0  0  0  0  0
  115.0838  104.9639  104.2510 C   0  0  0  0  0  0  0  0  0  0  0  0
  114.9202  106.8118  105.8509 C   0  0  0  0  0  0  0  0  0  0  0  0
  116.9177  107.6508  106.8917 C   0  0  0  0  0  0  0  0  0  0  0  0
  117.2241  104.0669  103.7874 C   0  0  0  0  0  0  0  0  0  0  0  0
  115.6810  105.8697  105.1380 C   0  0  0  0  0  0  0  0  0  0  0  0
  115.5392  107.7000  106.7258 C   0  0  0  0  0  0  0  0  0  0  0  0
  117.0810  105.8139  105.3016 C   0  0  0  0  0  0  0  0  0  0  0  0
  117.6738  106.7140  106.1827 C   0  0  0  0  0  0  0  0  0  0  0  0
  124.1643  108.8224  108.8872 C   0  0  0  0  0  0  0  0  0  0  0  0
  124.0831  107.5770  108.3004 C   0  0  0  0  0  0  0  0  0  0  0  0
  125.8053  109.0289  107.4468 C   0  0  0  0  0  0  0  0  0  0  0  0
  119.8012  107.5225  107.2150 C   0  0  0  0  0  0  0  0  0  0  0  0
  121.2672  107.2131  107.1648 C   0  0  0  0  0  0  0  0  0  0  0  0
  114.7275  108.6977  107.4794 C   0  0  0  0  0  0  0  0  0  0  0  0
  123.3029  109.3282  109.9756 C   0  0  0  0  0  0  0  0  0  0  0  0
  126.9367  109.6055  106.6883 C   0  0  0  0  0  0  0  0  0  0  0  0
  123.1482  106.4357  108.5789 C   0  0  0  0  0  0  0  0  0  0  0  0
  117.8395  104.9238  104.6341 N   0  0  0  0  0  0  0  0  0  0  0  0
  125.1516  109.6562  108.3993 N   0  0  0  0  0  0  0  0  0  0  0  0
  119.0597  106.6997  106.3797 N   0  0  0  0  0  0  0  0  0  0  0  0
  121.7669  106.8080  108.3816 N   0  0  0  0  0  0  0  0  0  0  0  0
  119.4545  108.4164  107.9689 O   0  0  0  0  0  0  0  0  0  0  0  0
  121.8406  107.3307  106.0937 O   0  0  0  0  0  0  0  0  0  0  0  0
  125.2854  107.4337  107.0858 S   0  0  0  0  0  0  0  0  0  0  0  0
  115.4180  103.3381  102.8719 H   0  0  0  0  0  0  0  0  0  0  0  0
  114.0078  104.9691  104.0922 H   0  0  0  0  0  0  0  0  0  0  0  0
  113.8401  106.8516  105.7218 H   0  0  0  0  0  0  0  0  0  0  0  0
  117.4059  108.3421  107.5752 H   0  0  0  0  0  0  0  0  0  0  0  0
  117.8834  103.3731  103.2763 H   0  0  0  0  0  0  0  0  0  0  0  0
  114.4024  108.2794  108.4401 H   0  0  0  0  0  0  0  0  0  0  0  0
  115.3014  109.6130  107.6755 H   0  0  0  0  0  0  0  0  0  0  0  0
  113.8365  108.9978  106.9119 H   0  0  0  0  0  0  0  0  0  0  0  0
  123.7328  109.0931  110.9626 H   0  0  0  0  0  0  0  0  0  0  0  0
  123.1668  110.4212  109.9200 H   0  0  0  0  0  0  0  0  0  0  0  0
  122.2906  108.8917  109.9371 H   0  0  0  0  0  0  0  0  0  0  0  0
  127.8956  109.3860  107.1831 H   0  0  0  0  0  0  0  0  0  0  0  0
  126.9877  109.2081  105.6615 H   0  0  0  0  0  0  0  0  0  0  0  0
  126.8499  110.7000  106.5902 H   0  0  0  0  0  0  0  0  0  0  0  0
  123.3665  105.5882  107.9200 H   0  0  0  0  0  0  0  0  0  0  0  0
  123.2557  106.0823  109.6098 H   0  0  0  0  0  0  0  0  0  0  0  0
  119.5864  106.0020  105.8463 H   0  0  0  0  0  0  0  0  0  0  0  0
  121.1461  106.7650  109.1846 H   0  0  0  0  0  0  0  0  0  0  0  0
  1  2  2  0  0  0  0
  1  5  1  0  0  0  0
  2  6  1  0  0  0  0
  3  6  2  0  0  0  0
  3  7  1  0  0  0  0
  4  7  2  0  0  0  0
  4  9  1  0  0  0  0
  5 19  2  0  0  0  0
  6  8  1  0  0  0  0
  7 15  1  0  0  0  0
  8  9  2  0  0  0  0
  8 19  1  0  0  0  0
  9 21  1  0  0  0  0
 10 11  2  0  0  0  0
 10 16  1  0  0  0  0
 10 20  1  0  0  0  0
 11 18  1  0  0  0  0
 11 25  1  0  0  0  0
 12 17  1  0  0  0  0
 12 20  2  0  0  0  0
 12 25  1  0  0  0  0
 13 14  1  0  0  0  0
 13 21  1  0  0  0  0
 13 23  2  0  0  0  0
 14 22  1  0  0  0  0
 14 24  2  0  0  0  0
 18 22  1  0  0  0  0
  1 26  1  0  0  0  0
  2 27  1  0  0  0  0
  3 28  1  0  0  0  0
  4 29  1  0  0  0  0
  5 30  1  0  0  0  0
 15 31  1  0  0  0  0
 15 32  1  0  0  0  0
 15 33  1  0  0  0  0
 16 34  1  0  0  0  0
 16 35  1  0  0  0  0
 16 36  1  0  0  0  0
 17 37  1  0  0  0  0
 17 38  1  0  0  0  0
 17 39  1  0  0  0  0
 18 40  1  0  0  0  0
 18 41  1  0  0  0  0
 21 42  1  0  0  0  0
 22 43  1  0  0  0  0
M  END
> <FRED Chemgauss4 score>
-10.336764

$$$$
C91131479	P142561522
  -OEChem-05122015313D

 44 45  0     1  0  0  0  0  0999 V2000
  121.7487  106.1942  106.1833 C   0  0  0  0  0  0  0  0  0  0  0  0
  124.3136  109.5547  108.1857 C   0  0  0  0  0  0  0  0  0  0  0  0
  118.8181  103.7753  106.1066 C   0  0  0  0  0  0  0  0  0  0  0  0
  117.6962  104.8043  106.0229 C   0  0  0  0  0  0  0  0  0  0  0  0
  120.1735  104.4056  105.8018 C   0  0  0  0  0  0  0  0  0  0  0  0
  117.9651  106.0000  106.9325 C   0  0  0  0  0  0  0  0  0  0  0  0
  122.9423  105.1262  108.0618 C   0  0  0  0  0  0  0  0  0  0  0  0
  124.2522  104.3557  107.9825 C   0  0  0  0  0  0  0  0  0  0  0  0
  125.2977  106.6848  107.0134 C   0  0  0  0  0  0  0  0  0  0  0  0
  120.4491  105.6059  106.7072 C   0  0  2  0  0  0  0  0  0  0  0  0
  119.3270  106.6503  106.6403 C   0  0  2  0  0  0  0  0  0  0  0  0
  123.8768  107.2576  107.1062 C   0  0  2  0  0  0  0  0  0  0  0  0
  123.6749  108.1766  108.3155 C   0  0  0  0  0  0  0  0  0  0  0  0
  119.5708  107.8019  107.6202 C   0  0  0  0  0  0  0  0  0  0  0  0
  122.8432  106.1951  107.0571 N   0  0  0  0  0  0  0  0  0  0  0  0
  118.5181  108.8163  107.4222 N   0  3  0  0  0  0  0  0  0  0  0  0
  124.1529  110.3569  109.1458 O   0  5  0  0  0  0  0  0  0  0  0  0
  121.7797  106.6403  105.0329 O   0  0  0  0  0  0  0  0  0  0  0  0
  124.9417  109.7196  107.0998 O   0  0  0  0  0  0  0  0  0  0  0  0
  125.6681  105.4467  108.2886 S   0  0  0  0  0  0  0  0  0  0  0  0
  118.8375  103.3327  107.1101 H   0  0  0  0  0  0  0  0  0  0  0  0
  118.6236  102.9594  105.4012 H   0  0  0  0  0  0  0  0  0  0  0  0
  117.5914  105.1493  104.9869 H   0  0  0  0  0  0  0  0  0  0  0  0
  116.7454  104.3359  106.3010 H   0  0  0  0  0  0  0  0  0  0  0  0
  120.9629  103.6522  105.9225 H   0  0  0  0  0  0  0  0  0  0  0  0
  120.2030  104.7110  104.7463 H   0  0  0  0  0  0  0  0  0  0  0  0
  117.1640  106.7375  106.8023 H   0  0  0  0  0  0  0  0  0  0  0  0
  117.9264  105.6705  107.9790 H   0  0  0  0  0  0  0  0  0  0  0  0
  122.1190  104.4154  107.9340 H   0  0  0  0  0  0  0  0  0  0  0  0
  122.8032  105.5751  109.0521 H   0  0  0  0  0  0  0  0  0  0  0  0
  124.2633  103.5588  108.7325 H   0  0  0  0  0  0  0  0  0  0  0  0
  124.3723  103.8897  106.9987 H   0  0  0  0  0  0  0  0  0  0  0  0
  125.4412  106.2053  106.0384 H   0  0  0  0  0  0  0  0  0  0  0  0
  126.0379  107.4884  107.0891 H   0  0  0  0  0  0  0  0  0  0  0  0
  120.6282  105.2769  107.7152 H   0  0  0  0  0  0  0  0  0  0  0  0
  119.2945  107.0798  105.6282 H   0  0  0  0  0  0  0  0  0  0  0  0
  123.7670  107.8989  106.2277 H   0  0  0  0  0  0  0  0  0  0  0  0
  124.0905  107.6807  109.1944 H   0  0  0  0  0  0  0  0  0  0  0  0
  122.6023  108.3023  108.4737 H   0  0  0  0  0  0  0  0  0  0  0  0
  120.5302  108.2741  107.4284 H   0  0  0  0  0  0  0  0  0  0  0  0
  119.5095  107.4529  108.6473 H   0  0  0  0  0  0  0  0  0  0  0  0
  118.5645  109.5505  108.1410 H   0  0  0  0  0  0  0  0  0  0  0  0
  117.5800  108.3967  107.4690 H   0  0  0  0  0  0  0  0  0  0  0  0
  118.6065  109.2748  106.5056 H   0  0  0  0  0  0  0  0  0  0  0  0
  1 10  1  0  0  0  0
  1 15  1  0  0  0  0
  1 18  2  0  0  0  0
  2 13  1  0  0  0  0
  2 17  1  0  0  0  0
  2 19  2  0  0  0  0
  3  4  1  0  0  0  0
  3  5  1  0  0  0  0
  4  6  1  0  0  0  0
  5 10  1  0  0  0  0
  6 11  1  0  0  0  0
  7  8  1  0  0  0  0
  7 15  1  0  0  0  0
  8 20  1  0  0  0  0
  9 12  1  0  0  0  0
  9 20  1  0  0  0  0
 10 11  1  0  0  0  0
 11 14  1  0  0  0  0
 12 13  1  0  0  0  0
 12 15  1  0  0  0  0
 14 16  1  0  0  0  0
  3 21  1  0  0  0  0
  3 22  1  0  0  0  0
  4 23  1  0  0  0  0
  4 24  1  0  0  0  0
  5 25  1  0  0  0  0
  5 26  1  0  0  0  0
  6 27  1  0  0  0  0
  6 28  1  0  0  0  0
  7 29  1  0  0  0  0
  7 30  1  0  0  0  0
  8 31  1  0  0  0  0
  8 32  1  0  0  0  0
  9 33  1  0  0  0  0
  9 34  1  0  0  0  0
 10 35  1  0  0  0  0
 11 36  1  0  0  0  0
 12 37  1  0  0  0  0
 13 38  1  0  0  0  0
 13 39  1  0  0  0  0
 14 40  1  0  0  0  0
 14 41  1  0  0  0  0
 16 42  1  0  0  0  0
 16 43  1  0  0  0  0
 16 44  1  0  0  0  0
M  CHG  2  16   1  17  -1
M  END
> <FRED Chemgauss4 score>
-10.334244

$$$$
C00386377	P06593472
  -OEChem-05122015313D

 40 41  0     1  0  0  0  0  0999 V2000
  119.8626  104.6669  104.6649 C   0  0  0  0  0  0  0  0  0  0  0  0
  118.4459  104.5616  104.5266 C   0  0  0  0  0  0  0  0  0  0  0  0
  117.8098  104.6964  105.7459 C   0  0  0  0  0  0  0  0  0  0  0  0
  120.2438  104.8706  105.9736 C   0  0  0  0  0  0  0  0  0  0  0  0
  120.8172  104.5722  103.5884 C   0  0  0  0  0  0  0  0  0  0  0  0
  124.2653  104.7104  107.4514 C   0  0  0  0  0  0  0  0  0  0  0  0
  122.0746  106.0295  107.3514 C   0  0  0  0  0  0  0  0  0  0  0  0
  117.6914  104.3615  103.2497 C   0  0  0  0  0  0  0  0  0  0  0  0
  116.3298  104.6113  105.9644 C   0  0  0  0  0  0  0  0  0  0  0  0
  116.2347  103.9432  103.5073 C   0  0  0  0  0  0  0  0  0  0  0  0
  115.5560  104.7544  104.6337 C   0  0  2  0  0  0  0  0  0  0  0  0
  115.3790  106.2260  104.2449 C   0  0  0  0  0  0  0  0  0  0  0  0
  126.3058  106.1880  107.6321 C   0  0  0  0  0  0  0  0  0  0  0  0
  125.6267  104.9114  108.0938 C   0  0  0  0  0  0  0  0  0  0  0  0
  121.3278  103.3111  103.2680 N   0  0  0  0  0  0  0  0  0  0  0  0
  121.4798  105.0216  106.5424 N   0  0  0  0  0  0  0  0  0  0  0  0
  123.4093  105.7918  107.7363 N   0  0  0  0  0  0  0  0  0  0  0  0
  121.2036  105.5798  102.9574 O   0  0  0  0  0  0  0  0  0  0  0  0
  123.9813  103.7254  106.7768 O   0  0  0  0  0  0  0  0  0  0  0  0
  121.3608  107.4372  107.9220 S   0  0  0  0  0  0  0  0  0  0  0  0
  118.8998  104.9362  107.0321 S   0  0  0  0  0  0  0  0  0  0  0  0
  117.7020  105.2780  102.6491 H   0  0  0  0  0  0  0  0  0  0  0  0
  118.1938  103.5803  102.6663 H   0  0  0  0  0  0  0  0  0  0  0  0
  116.0623  103.6577  106.4416 H   0  0  0  0  0  0  0  0  0  0  0  0
  116.0344  105.4132  106.6577 H   0  0  0  0  0  0  0  0  0  0  0  0
  115.6530  104.0606  102.5748 H   0  0  0  0  0  0  0  0  0  0  0  0
  116.2099  102.8658  103.7450 H   0  0  0  0  0  0  0  0  0  0  0  0
  114.5414  104.3262  104.7833 H   0  0  0  0  0  0  0  0  0  0  0  0
  116.3532  106.6862  104.0881 H   0  0  0  0  0  0  0  0  0  0  0  0
  114.8573  106.7575  105.0391 H   0  0  0  0  0  0  0  0  0  0  0  0
  114.7986  106.2979  103.3264 H   0  0  0  0  0  0  0  0  0  0  0  0
  125.6943  107.0656  107.8669 H   0  0  0  0  0  0  0  0  0  0  0  0
  126.4727  106.1754  106.5499 H   0  0  0  0  0  0  0  0  0  0  0  0
  127.2752  106.3045  108.1263 H   0  0  0  0  0  0  0  0  0  0  0  0
  126.2581  104.0501  107.8474 H   0  0  0  0  0  0  0  0  0  0  0  0
  125.4969  104.9376  109.1817 H   0  0  0  0  0  0  0  0  0  0  0  0
  121.0153  102.5043  103.7972 H   0  0  0  0  0  0  0  0  0  0  0  0
  122.0023  103.1794  102.5211 H   0  0  0  0  0  0  0  0  0  0  0  0
  122.1321  104.2244  106.4204 H   0  0  0  0  0  0  0  0  0  0  0  0
  123.8219  106.5205  108.3145 H   0  0  0  0  0  0  0  0  0  0  0  0
  1  2  1  0  0  0  0
  1  4  2  0  0  0  0
  1  5  1  0  0  0  0
  2  3  2  0  0  0  0
  2  8  1  0  0  0  0
  3  9  1  0  0  0  0
  3 21  1  0  0  0  0
  4 16  1  0  0  0  0
  4 21  1  0  0  0  0
  5 15  1  0  0  0  0
  5 18  2  0  0  0  0
  6 14  1  0  0  0  0
  6 17  1  0  0  0  0
  6 19  2  0  0  0  0
  7 16  1  0  0  0  0
  7 17  1  0  0  0  0
  7 20  2  0  0  0  0
  8 10  1  0  0  0  0
  9 11  1  0  0  0  0
 10 11  1  0  0  0  0
 11 12  1  0  0  0  0
 13 14  1  0  0  0  0
  8 22  1  0  0  0  0
  8 23  1  0  0  0  0
  9 24  1  0  0  0  0
  9 25  1  0  0  0  0
 10 26  1  0  0  0  0
 10 27  1  0  0  0  0
 11 28  1  0  0  0  0
 12 29  1  0  0  0  0
 12 30  1  0  0  0  0
 12 31  1  0  0  0  0
 13 32  1  0  0  0  0
 13 33  1  0  0  0  0
 13 34  1  0  0  0  0
 14 35  1  0  0  0  0
 14 36  1  0  0  0  0
 15 37  1  0  0  0  0
 15 38  1  0  0  0  0
 16 39  1  0  0  0  0
 17 40  1  0  0  0  0
M  END
> <FRED Chemgauss4 score>
-10.329455

$$$$
C86456111	P135359542
  -OEChem-05122015313D

 29 29  0     0  0  0  0  0  0999 V2000
  126.8633  106.3477  106.6491 C   0  0  0  0  0  0  0  0  0  0  0  0
  126.2616  106.5746  107.9014 C   0  0  0  0  0  0  0  0  0  0  0  0
  125.8806  107.8937  107.8653 C   0  0  0  0  0  0  0  0  0  0  0  0
  119.5746  108.6484  107.5097 C   0  0  0  0  0  0  0  0  0  0  0  0
  126.0912  105.5983  108.9933 C   0  0  0  0  0  0  0  0  0  0  0  0
  121.3188  108.3673  109.0594 C   0  0  0  0  0  0  0  0  0  0  0  0
  122.7828  107.9831  109.1506 C   0  0  0  0  0  0  0  0  0  0  0  0
  126.8665  107.4355  105.8739 N   0  0  0  0  0  0  0  0  0  0  0  0
  125.2557  108.6097  108.8315 N   0  5  0  0  0  0  0  0  0  0  0  0
  126.2621  108.3585  106.6411 N   0  0  0  0  0  0  0  0  0  0  0  0
  127.2327  105.5614  109.9593 N   0  3  0  0  0  0  0  0  0  0  0  0
  123.4454  109.5304  107.2343 O   0  0  0  0  0  0  0  0  0  0  0  0
  123.5266  110.3898  109.5506 O   0  0  0  0  0  0  0  0  0  0  0  0
  120.9781  108.7122  107.7227 O   0  0  0  0  0  0  0  0  0  0  0  0
  123.8374  109.2992  108.6254 S   0  0  0  0  0  0  0  0  0  0  0  0
  127.3004  105.4361  106.2667 H   0  0  0  0  0  0  0  0  0  0  0  0
  119.3497  108.9187  106.4751 H   0  0  0  0  0  0  0  0  0  0  0  0
  119.0696  109.3340  108.1947 H   0  0  0  0  0  0  0  0  0  0  0  0
  119.2322  107.6284  107.7000 H   0  0  0  0  0  0  0  0  0  0  0  0
  125.1937  105.8018  109.6046 H   0  0  0  0  0  0  0  0  0  0  0  0
  125.9864  104.5635  108.6205 H   0  0  0  0  0  0  0  0  0  0  0  0
  120.6840  107.5286  109.3618 H   0  0  0  0  0  0  0  0  0  0  0  0
  121.0868  109.2221  109.7019 H   0  0  0  0  0  0  0  0  0  0  0  0
  123.0169  107.1252  108.5137 H   0  0  0  0  0  0  0  0  0  0  0  0
  123.0610  107.7566  110.1837 H   0  0  0  0  0  0  0  0  0  0  0  0
  126.1430  109.2909  106.2654 H   0  0  0  0  0  0  0  0  0  0  0  0
  128.0680  105.9698  109.5370 H   0  0  0  0  0  0  0  0  0  0  0  0
  127.4401  104.5974  110.2256 H   0  0  0  0  0  0  0  0  0  0  0  0
  127.0014  106.0901  110.8020 H   0  0  0  0  0  0  0  0  0  0  0  0
  1  2  1  0  0  0  0
  1  8  2  0  0  0  0
  2  3  2  0  0  0  0
  2  5  1  0  0  0  0
  3  9  1  0  0  0  0
  3 10  1  0  0  0  0
  4 14  1  0  0  0  0
  5 11  1  0  0  0  0
  6  7  1  0  0  0  0
  6 14  1  0  0  0  0
  7 15  1  0  0  0  0
  8 10  1  0  0  0  0
  9 15  1  0  0  0  0
 12 15  2  0  0  0  0
 13 15  2  0  0  0  0
  1 16  1  0  0  0  0
  4 17  1  0  0  0  0
  4 18  1  0  0  0  0
  4 19  1  0  0  0  0
  5 20  1  0  0  0  0
  5 21  1  0  0  0  0
  6 22  1  0  0  0  0
  6 23  1  0  0  0  0
  7 24  1  0  0  0  0
  7 25  1  0  0  0  0
 10 26  1  0  0  0  0
 11 27  1  0  0  0  0
 11 28  1  0  0  0  0
 11 29  1  0  0  0  0
M  CHG  2   9  -1  11   1
M  END
> <FRED Chemgauss4 score>
-10.327065

$$$$
C90433636	P141417536
  -OEChem-05122015313D

 37 38  0     1  0  0  0  0  0999 V2000
  125.5689  106.2392  108.8334 C   0  0  0  0  0  0  0  0  0  0  0  0
  125.7723  104.9962  108.2341 C   0  0  0  0  0  0  0  0  0  0  0  0
  123.2572  106.1991  108.1322 C   0  0  0  0  0  0  0  0  0  0  0  0
  123.4606  104.9561  107.5328 C   0  0  0  0  0  0  0  0  0  0  0  0
  124.3114  106.8406  108.7825 C   0  0  0  0  0  0  0  0  0  0  0  0
  124.7182  104.3547  107.5838 C   0  0  0  0  0  0  0  0  0  0  0  0
  121.0734  104.8136  106.7549 C   0  0  0  0  0  0  0  0  0  0  0  0
  118.7503  103.9206  106.3944 C   0  0  0  0  0  0  0  0  0  0  0  0
  118.8761  103.3854  104.1282 C   0  0  0  0  0  0  0  0  0  0  0  0
  120.2139  103.8537  105.9939 C   0  0  1  0  0  0  0  0  0  0  0  0
  120.1701  104.0961  104.4928 C   0  0  2  0  0  0  0  0  0  0  0  0
  121.3733  106.1268  104.0027 C   0  0  0  0  0  0  0  0  0  0  0  0
  124.4321  109.4481  108.2427 N   0  0  0  0  0  0  0  0  0  0  0  0
  122.3702  104.3321  106.8816 N   0  0  0  0  0  0  0  0  0  0  0  0
  120.0578  105.5106  104.1321 N   0  0  0  0  0  0  0  0  0  0  0  0
  120.6142  105.8705  107.1755 O   0  0  0  0  0  0  0  0  0  0  0  0
  122.6415  108.5262  109.8519 O   0  0  0  0  0  0  0  0  0  0  0  0
  125.0518  108.5700  110.5840 O   0  0  0  0  0  0  0  0  0  0  0  0
  117.9799  103.5701  105.2341 O   0  0  0  0  0  0  0  0  0  0  0  0
  124.0568  108.3954  109.5352 S   0  0  0  0  0  0  0  0  0  0  0  0
  125.0138  102.8165  106.8547 Cl  0  0  0  0  0  0  0  0  0  0  0  0
  126.3967  106.7295  109.3384 H   0  0  0  0  0  0  0  0  0  0  0  0
  126.7586  104.5410  108.2832 H   0  0  0  0  0  0  0  0  0  0  0  0
  122.2774  106.6703  108.0946 H   0  0  0  0  0  0  0  0  0  0  0  0
  118.5241  103.1815  107.1703 H   0  0  0  0  0  0  0  0  0  0  0  0
  118.4327  104.9056  106.7493 H   0  0  0  0  0  0  0  0  0  0  0  0
  118.3977  103.8173  103.2403 H   0  0  0  0  0  0  0  0  0  0  0  0
  119.0215  102.3145  103.9491 H   0  0  0  0  0  0  0  0  0  0  0  0
  120.6363  102.8285  106.2159 H   0  0  0  0  0  0  0  0  0  0  0  0
  120.9887  103.6479  104.0123 H   0  0  0  0  0  0  0  0  0  0  0  0
  121.9560  105.6109  103.2351 H   0  0  0  0  0  0  0  0  0  0  0  0
  121.9127  106.0693  104.9520 H   0  0  0  0  0  0  0  0  0  0  0  0
  121.2720  107.1782  103.7203 H   0  0  0  0  0  0  0  0  0  0  0  0
  123.6597  109.9570  107.7958 H   0  0  0  0  0  0  0  0  0  0  0  0
  125.3066  109.9845  108.2963 H   0  0  0  0  0  0  0  0  0  0  0  0
  122.5731  103.4274  106.4615 H   0  0  0  0  0  0  0  0  0  0  0  0
  119.5287  106.0049  104.8524 H   0  0  0  0  0  0  0  0  0  0  0  0
  1  2  2  0  0  0  0
  1  5  1  0  0  0  0
  2  6  1  0  0  0  0
  3  4  1  0  0  0  0
  3  5  2  0  0  0  0
  4  6  2  0  0  0  0
  4 14  1  0  0  0  0
  5 20  1  0  0  0  0
  6 21  1  0  0  0  0
  7 10  1  0  0  0  0
  7 14  1  0  0  0  0
  7 16  2  0  0  0  0
  8 10  1  0  0  0  0
  8 19  1  0  0  0  0
  9 11  1  0  0  0  0
  9 19  1  0  0  0  0
 10 11  1  0  0  0  0
 11 15  1  0  0  0  0
 12 15  1  0  0  0  0
 13 20  1  0  0  0  0
 17 20  2  0  0  0  0
 18 20  2  0  0  0  0
  1 22  1  0  0  0  0
  2 23  1  0  0  0  0
  3 24  1  0  0  0  0
  8 25  1  0  0  0  0
  8 26  1  0  0  0  0
  9 27  1  0  0  0  0
  9 28  1  0  0  0  0
 10 29  1  0  0  0  0
 11 30  1  0  0  0  0
 12 31  1  0  0  0  0
 12 32  1  0  0  0  0
 12 33  1  0  0  0  0
 13 34  1  0  0  0  0
 13 35  1  0  0  0  0
 14 36  1  0  0  0  0
 15 37  1  0  0  0  0
M  END
> <FRED Chemgauss4 score>
-10.321496

$$$$
C37787742	P56188607
  -OEChem-05122015313D

 39 40  0     1  0  0  0  0  0999 V2000
  125.0547  104.0548  107.2713 C   0  0  0  0  0  0  0  0  0  0  0  0
  118.7017  103.0239  105.3981 C   0  0  0  0  0  0  0  0  0  0  0  0
  118.7167  105.2162  106.4133 C   0  0  0  0  0  0  0  0  0  0  0  0
  123.6746  103.9134  107.1265 C   0  0  0  0  0  0  0  0  0  0  0  0
  117.3100  102.9928  105.4857 C   0  0  0  0  0  0  0  0  0  0  0  0
  117.3249  105.1851  106.5009 C   0  0  0  0  0  0  0  0  0  0  0  0
  125.6251  105.3271  107.3109 C   0  0  0  0  0  0  0  0  0  0  0  0
  119.4051  104.1356  105.8619 C   0  0  0  0  0  0  0  0  0  0  0  0
  123.4354  106.3167  107.0609 C   0  0  0  0  0  0  0  0  0  0  0  0
  122.8649  105.0444  107.0213 C   0  0  0  0  0  0  0  0  0  0  0  0
  116.6216  104.0734  106.0371 C   0  0  0  0  0  0  0  0  0  0  0  0
  124.8155  106.4580  107.2056 C   0  0  0  0  0  0  0  0  0  0  0  0
  122.5617  107.5270  106.9475 C   0  0  0  0  0  0  0  0  0  0  0  0
  121.4080  104.7694  104.4510 C   0  0  0  0  0  0  0  0  0  0  0  0
  120.8930  104.1693  105.7678 C   0  0  1  0  0  0  0  0  0  0  0  0
  125.8851  108.2989  105.6019 N   0  0  0  0  0  0  0  0  0  0  0  0
  121.5014  104.8830  106.8779 N   0  0  0  0  0  0  0  0  0  0  0  0
  124.5754  109.0002  107.7087 O   0  0  0  0  0  0  0  0  0  0  0  0
  126.8353  107.9164  107.9658 O   0  0  0  0  0  0  0  0  0  0  0  0
  115.2634  104.0434  106.1214 O   0  0  0  0  0  0  0  0  0  0  0  0
  125.5690  108.0371  107.2597 S   0  0  0  0  0  0  0  0  0  0  0  0
  125.6847  103.1738  107.3535 H   0  0  0  0  0  0  0  0  0  0  0  0
  119.2299  102.1776  104.9671 H   0  0  0  0  0  0  0  0  0  0  0  0
  119.2565  106.0866  106.7774 H   0  0  0  0  0  0  0  0  0  0  0  0
  123.2414  102.9172  107.0966 H   0  0  0  0  0  0  0  0  0  0  0  0
  116.7676  102.1239  105.1224 H   0  0  0  0  0  0  0  0  0  0  0  0
  116.7945  106.0300  106.9311 H   0  0  0  0  0  0  0  0  0  0  0  0
  126.7017  105.4236  107.4243 H   0  0  0  0  0  0  0  0  0  0  0  0
  122.2330  107.8483  107.9413 H   0  0  0  0  0  0  0  0  0  0  0  0
  123.0969  108.3545  106.4685 H   0  0  0  0  0  0  0  0  0  0  0  0
  121.6778  107.3174  106.3345 H   0  0  0  0  0  0  0  0  0  0  0  0
  121.0360  105.7915  104.3201 H   0  0  0  0  0  0  0  0  0  0  0  0
  122.5032  104.8016  104.4303 H   0  0  0  0  0  0  0  0  0  0  0  0
  121.0871  104.1795  103.5851 H   0  0  0  0  0  0  0  0  0  0  0  0
  121.3031  103.1460  105.8353 H   0  0  0  0  0  0  0  0  0  0  0  0
  125.3185  108.9998  105.1089 H   0  0  0  0  0  0  0  0  0  0  0  0
  126.8616  108.2575  105.2858 H   0  0  0  0  0  0  0  0  0  0  0  0
  120.8859  105.2782  107.5737 H   0  0  0  0  0  0  0  0  0  0  0  0
  114.9333  104.8618  106.5251 H   0  0  0  0  0  0  0  0  0  0  0  0
  1  4  1  0  0  0  0
  1  7  2  0  0  0  0
  2  5  2  0  0  0  0
  2  8  1  0  0  0  0
  3  6  1  0  0  0  0
  3  8  2  0  0  0  0
  4 10  2  0  0  0  0
  5 11  1  0  0  0  0
  6 11  2  0  0  0  0
  7 12  1  0  0  0  0
  8 15  1  0  0  0  0
  9 10  1  0  0  0  0
  9 12  2  0  0  0  0
  9 13  1  0  0  0  0
 10 17  1  0  0  0  0
 11 20  1  0  0  0  0
 12 21  1  0  0  0  0
 14 15  1  0  0  0  0
 15 17  1  0  0  0  0
 16 21  1  0  0  0  0
 18 21  2  0  0  0  0
 19 21  2  0  0  0  0
  1 22  1  0  0  0  0
  2 23  1  0  0  0  0
  3 24  1  0  0  0  0
  4 25  1  0  0  0  0
  5 26  1  0  0  0  0
  6 27  1  0  0  0  0
  7 28  1  0  0  0  0
 13 29  1  0  0  0  0
 13 30  1  0  0  0  0
 13 31  1  0  0  0  0
 14 32  1  0  0  0  0
 14 33  1  0  0  0  0
 14 34  1  0  0  0  0
 15 35  1  0  0  0  0
 16 36  1  0  0  0  0
 16 37  1  0  0  0  0
 17 38  1  0  0  0  0
 20 39  1  0  0  0  0
M  END
> <FRED Chemgauss4 score>
-10.320257

$$$$
C72408939	P112633960
  -OEChem-05122015313D

 47 50  0     1  0  0  0  0  0999 V2000
  126.4886  104.9104  108.3084 C   0  0  0  0  0  0  0  0  0  0  0  0
  125.8176  105.9884  108.9549 C   0  0  0  0  0  0  0  0  0  0  0  0
  121.9963  106.9567  105.9304 C   0  0  0  0  0  0  0  0  0  0  0  0
  120.9937  108.6476  107.3161 C   0  0  0  0  0  0  0  0  0  0  0  0
  120.7222  106.6409  105.4871 C   0  0  0  0  0  0  0  0  0  0  0  0
  119.7644  108.2562  106.8106 C   0  0  0  0  0  0  0  0  0  0  0  0
  124.5584  112.0374  112.9383 C   0  0  0  0  0  0  0  0  0  0  0  0
  122.1261  107.9804  106.8623 C   0  0  0  0  0  0  0  0  0  0  0  0
  122.6978  111.4380  112.1250 C   0  0  0  0  0  0  0  0  0  0  0  0
  123.5799  110.4339  111.8054 C   0  0  0  0  0  0  0  0  0  0  0  0
  125.6092  104.0538  107.6836 C   0  0  0  0  0  0  0  0  0  0  0  0
  124.4508  105.9148  108.7992 C   0  0  0  0  0  0  0  0  0  0  0  0
  123.8313  109.2897  109.6722 C   0  0  0  0  0  0  0  0  0  0  0  0
  121.2691  111.3747  111.7471 C   0  0  0  0  0  0  0  0  0  0  0  0
  121.0694  110.3063  110.6441 C   0  0  0  0  0  0  0  0  0  0  0  0
  123.2556  109.2069  111.0482 C   0  0  2  0  0  0  0  0  0  0  0  0
  125.9093  102.8282  106.9119 C   0  0  0  0  0  0  0  0  0  0  0  0
  123.4835  108.3634  107.3772 C   0  0  0  0  0  0  0  0  0  0  0  0
  123.3991  106.8501  109.3219 C   0  0  0  0  0  0  0  0  0  0  0  0
  119.5988  107.2665  105.9047 N   0  0  0  0  0  0  0  0  0  0  0  0
  123.3060  112.4361  112.8308 N   0  0  0  0  0  0  0  0  0  0  0  0
  124.7739  110.8231  112.3341 N   0  0  0  0  0  0  0  0  0  0  0  0
  121.7894  109.0368  110.9116 N   0  0  0  0  0  0  0  0  0  0  0  0
  123.5812  108.2109  108.8232 N   0  0  0  0  0  0  0  0  0  0  0  0
  124.4875  110.2847  109.3532 O   0  0  0  0  0  0  0  0  0  0  0  0
  123.9817  104.5501  107.8773 S   0  0  0  0  0  0  0  0  0  0  0  0
  127.5627  104.7747  108.3034 H   0  0  0  0  0  0  0  0  0  0  0  0
  126.3165  106.7769  109.5039 H   0  0  0  0  0  0  0  0  0  0  0  0
  122.8598  106.4163  105.5574 H   0  0  0  0  0  0  0  0  0  0  0  0
  121.0626  109.4502  108.0423 H   0  0  0  0  0  0  0  0  0  0  0  0
  120.5670  105.8493  104.7612 H   0  0  0  0  0  0  0  0  0  0  0  0
  118.8510  108.7452  107.1325 H   0  0  0  0  0  0  0  0  0  0  0  0
  125.3537  112.5727  113.4372 H   0  0  0  0  0  0  0  0  0  0  0  0
  120.6776  111.1071  112.6305 H   0  0  0  0  0  0  0  0  0  0  0  0
  120.9198  112.3487  111.3892 H   0  0  0  0  0  0  0  0  0  0  0  0
  119.9999  110.0891  110.5452 H   0  0  0  0  0  0  0  0  0  0  0  0
  121.3910  110.7067  109.6745 H   0  0  0  0  0  0  0  0  0  0  0  0
  123.6742  108.3194  111.5343 H   0  0  0  0  0  0  0  0  0  0  0  0
  125.9217  101.9430  107.5668 H   0  0  0  0  0  0  0  0  0  0  0  0
  125.1657  102.6503  106.1179 H   0  0  0  0  0  0  0  0  0  0  0  0
  126.8879  102.8894  106.4081 H   0  0  0  0  0  0  0  0  0  0  0  0
  124.2599  107.7409  106.9192 H   0  0  0  0  0  0  0  0  0  0  0  0
  123.7164  109.4054  107.1339 H   0  0  0  0  0  0  0  0  0  0  0  0
  122.4001  106.5128  109.0246 H   0  0  0  0  0  0  0  0  0  0  0  0
  123.4168  106.8894  110.4161 H   0  0  0  0  0  0  0  0  0  0  0  0
  125.6512  110.3216  112.2894 H   0  0  0  0  0  0  0  0  0  0  0  0
  121.4309  108.6564  111.7889 H   0  0  0  0  0  0  0  0  0  0  0  0
  1  2  1  0  0  0  0
  1 11  2  0  0  0  0
  2 12  2  0  0  0  0
  3  5  2  0  0  0  0
  3  8  1  0  0  0  0
  4  6  1  0  0  0  0
  4  8  2  0  0  0  0
  5 20  1  0  0  0  0
  6 20  2  0  0  0  0
  7 21  2  0  0  0  0
  7 22  1  0  0  0  0
  8 18  1  0  0  0  0
  9 10  2  0  0  0  0
  9 14  1  0  0  0  0
  9 21  1  0  0  0  0
 10 16  1  0  0  0  0
 10 22  1  0  0  0  0
 11 17  1  0  0  0  0
 11 26  1  0  0  0  0
 12 19  1  0  0  0  0
 12 26  1  0  0  0  0
 13 16  1  0  0  0  0
 13 24  1  0  0  0  0
 13 25  2  0  0  0  0
 14 15  1  0  0  0  0
 15 23  1  0  0  0  0
 16 23  1  0  0  0  0
 18 24  1  0  0  0  0
 19 24  1  0  0  0  0
  1 27  1  0  0  0  0
  2 28  1  0  0  0  0
  3 29  1  0  0  0  0
  4 30  1  0  0  0  0
  5 31  1  0  0  0  0
  6 32  1  0  0  0  0
  7 33  1  0  0  0  0
 14 34  1  0  0  0  0
 14 35  1  0  0  0  0
 15 36  1  0  0  0  0
 15 37  1  0  0  0  0
 16 38  1  0  0  0  0
 17 39  1  0  0  0  0
 17 40  1  0  0  0  0
 17 41  1  0  0  0  0
 18 42  1  0  0  0  0
 18 43  1  0  0  0  0
 19 44  1  0  0  0  0
 19 45  1  0  0  0  0
 22 46  1  0  0  0  0
 23 47  1  0  0  0  0
M  END
> <FRED Chemgauss4 score>
-10.312181

$$$$
C94262800	P147740251
  -OEChem-05122015313D

 39 40  0     1  0  0  0  0  0999 V2000
  119.2128  106.3636  106.3411 C   0  0  0  0  0  0  0  0  0  0  0  0
  118.3378  105.4924  105.6919 C   0  0  0  0  0  0  0  0  0  0  0  0
  120.3692  105.8089  106.9043 C   0  0  0  0  0  0  0  0  0  0  0  0
  120.5585  104.4398  106.7757 C   0  0  0  0  0  0  0  0  0  0  0  0
  118.6522  104.1381  105.6369 C   0  0  0  0  0  0  0  0  0  0  0  0
  122.2155  105.3765  107.8822 C   0  0  0  0  0  0  0  0  0  0  0  0
  125.2132  103.2897  107.0947 C   0  0  0  0  0  0  0  0  0  0  0  0
  126.0310  105.9130  108.5894 C   0  0  0  0  0  0  0  0  0  0  0  0
  116.3564  103.2170  105.4343 C   0  0  0  0  0  0  0  0  0  0  0  0
  118.1276  102.5536  103.7999 C   0  0  0  0  0  0  0  0  0  0  0  0
  124.9733  104.7176  106.6227 C   0  0  0  0  0  0  0  0  0  0  0  0
  123.5267  105.4564  108.6440 C   0  0  1  0  0  0  0  0  0  0  0  0
  124.7556  105.7596  107.7450 C   0  0  1  0  0  0  0  0  0  0  0  0
  121.4105  106.3779  107.5963 N   0  0  0  0  0  0  0  0  0  0  0  0
  119.7552  103.5535  106.1646 N   0  0  0  0  0  0  0  0  0  0  0  0
  121.7429  104.1829  107.4064 N   0  0  0  0  0  0  0  0  0  0  0  0
  123.3652  106.4552  109.6803 N   0  0  0  0  0  0  0  0  0  0  0  0
  117.7188  103.3042  104.9638 N   0  0  0  0  0  0  0  0  0  0  0  0
  119.0001  107.4250  106.4035 H   0  0  0  0  0  0  0  0  0  0  0  0
  117.4285  105.8810  105.2427 H   0  0  0  0  0  0  0  0  0  0  0  0
  126.0878  103.2596  107.7532 H   0  0  0  0  0  0  0  0  0  0  0  0
  125.4106  102.6163  106.2560 H   0  0  0  0  0  0  0  0  0  0  0  0
  124.3625  102.9003  107.6598 H   0  0  0  0  0  0  0  0  0  0  0  0
  126.2604  104.9839  109.1221 H   0  0  0  0  0  0  0  0  0  0  0  0
  126.8958  106.1753  107.9716 H   0  0  0  0  0  0  0  0  0  0  0  0
  125.9106  106.6973  109.3440 H   0  0  0  0  0  0  0  0  0  0  0  0
  115.7834  102.5343  104.8015 H   0  0  0  0  0  0  0  0  0  0  0  0
  115.8834  104.2024  105.4074 H   0  0  0  0  0  0  0  0  0  0  0  0
  116.3346  102.8457  106.4624 H   0  0  0  0  0  0  0  0  0  0  0  0
  117.2869  101.9711  103.4141 H   0  0  0  0  0  0  0  0  0  0  0  0
  118.9407  101.8696  104.0578 H   0  0  0  0  0  0  0  0  0  0  0  0
  118.4753  103.2316  103.0159 H   0  0  0  0  0  0  0  0  0  0  0  0
  124.0936  104.7190  105.9663 H   0  0  0  0  0  0  0  0  0  0  0  0
  125.8143  105.0241  105.9899 H   0  0  0  0  0  0  0  0  0  0  0  0
  123.7030  104.5171  109.1825 H   0  0  0  0  0  0  0  0  0  0  0  0
  124.5982  106.7272  107.2480 H   0  0  0  0  0  0  0  0  0  0  0  0
  122.1852  103.2783  107.5024 H   0  0  0  0  0  0  0  0  0  0  0  0
  124.1855  106.8682  110.0824 H   0  0  0  0  0  0  0  0  0  0  0  0
  122.4654  106.5612  110.1100 H   0  0  0  0  0  0  0  0  0  0  0  0
  1  2  1  0  0  0  0
  1  3  2  0  0  0  0
  2  5  2  0  0  0  0
  3  4  1  0  0  0  0
  3 14  1  0  0  0  0
  4 15  2  0  0  0  0
  4 16  1  0  0  0  0
  5 15  1  0  0  0  0
  5 18  1  0  0  0  0
  6 12  1  0  0  0  0
  6 14  2  0  0  0  0
  6 16  1  0  0  0  0
  7 11  1  0  0  0  0
  8 13  1  0  0  0  0
  9 18  1  0  0  0  0
 10 18  1  0  0  0  0
 11 13  1  0  0  0  0
 12 13  1  0  0  0  0
 12 17  1  0  0  0  0
  1 19  1  0  0  0  0
  2 20  1  0  0  0  0
  7 21  1  0  0  0  0
  7 22  1  0  0  0  0
  7 23  1  0  0  0  0
  8 24  1  0  0  0  0
  8 25  1  0  0  0  0
  8 26  1  0  0  0  0
  9 27  1  0  0  0  0
  9 28  1  0  0  0  0
  9 29  1  0  0  0  0
 10 30  1  0  0  0  0
 10 31  1  0  0  0  0
 10 32  1  0  0  0  0
 11 33  1  0  0  0  0
 11 34  1  0  0  0  0
 12 35  1  0  0  0  0
 13 36  1  0  0  0  0
 16 37  1  0  0  0  0
 17 38  1  0  0  0  0
 17 39  1  0  0  0  0
M  END
> <FRED Chemgauss4 score>
-10.311038

$$$$
C21813873	P32484664
  -OEChem-05122015313D

 33 35  0     1  0  0  0  0  0999 V2000
  115.6901  106.4869  103.4849 C   0  0  0  0  0  0  0  0  0  0  0  0
  124.0632  106.8402  107.8185 C   0  0  0  0  0  0  0  0  0  0  0  0
  124.6610  104.5109  107.5861 C   0  0  0  0  0  0  0  0  0  0  0  0
  125.2225  107.0636  108.5611 C   0  0  0  0  0  0  0  0  0  0  0  0
  125.8204  104.7343  108.3287 C   0  0  0  0  0  0  0  0  0  0  0  0
  117.0207  106.2116  103.9137 C   0  0  0  0  0  0  0  0  0  0  0  0
  114.7658  105.6868  104.1199 C   0  0  0  0  0  0  0  0  0  0  0  0
  123.7824  105.5638  107.3310 C   0  0  0  0  0  0  0  0  0  0  0  0
  126.1011  106.0107  108.8162 C   0  0  0  0  0  0  0  0  0  0  0  0
  117.0627  105.2116  104.8604 C   0  0  0  0  0  0  0  0  0  0  0  0
  118.2985  104.7118  105.4878 C   0  0  0  0  0  0  0  0  0  0  0  0
  120.0648  104.6795  106.5642 C   0  0  0  0  0  0  0  0  0  0  0  0
  122.5432  105.3248  106.5364 C   0  0  0  0  0  0  0  0  0  0  0  0
  121.3130  104.9229  107.3953 C   0  0  1  0  0  0  0  0  0  0  0  0
  119.1266  105.5209  106.2100 N   0  0  0  0  0  0  0  0  0  0  0  0
  118.6787  103.4349  105.3847 N   0  0  0  0  0  0  0  0  0  0  0  0
  121.0648  105.9358  108.4302 N   0  0  0  0  0  0  0  0  0  0  0  0
  119.8747  103.4118  106.1131 O   0  0  0  0  0  0  0  0  0  0  0  0
  127.2330  106.2293  109.5399 O   0  0  0  0  0  0  0  0  0  0  0  0
  115.5025  104.6091  105.2281 S   0  0  0  0  0  0  0  0  0  0  0  0
  115.4246  107.2343  102.7487 H   0  0  0  0  0  0  0  0  0  0  0  0
  123.3843  107.6662  107.6246 H   0  0  0  0  0  0  0  0  0  0  0  0
  124.4502  103.5129  107.2102 H   0  0  0  0  0  0  0  0  0  0  0  0
  125.4359  108.0604  108.9380 H   0  0  0  0  0  0  0  0  0  0  0  0
  126.5009  103.9102  108.5237 H   0  0  0  0  0  0  0  0  0  0  0  0
  117.8979  106.7264  103.5411 H   0  0  0  0  0  0  0  0  0  0  0  0
  113.6932  105.6837  103.9867 H   0  0  0  0  0  0  0  0  0  0  0  0
  122.7445  104.5230  105.8025 H   0  0  0  0  0  0  0  0  0  0  0  0
  122.3005  106.2085  105.9189 H   0  0  0  0  0  0  0  0  0  0  0  0
  121.5588  103.9953  107.9280 H   0  0  0  0  0  0  0  0  0  0  0  0
  121.8519  106.4012  108.8167 H   0  0  0  0  0  0  0  0  0  0  0  0
  120.1599  105.9650  108.8377 H   0  0  0  0  0  0  0  0  0  0  0  0
  127.7379  105.4056  109.6316 H   0  0  0  0  0  0  0  0  0  0  0  0
  1  6  1  0  0  0  0
  1  7  2  0  0  0  0
  2  4  2  0  0  0  0
  2  8  1  0  0  0  0
  3  5  1  0  0  0  0
  3  8  2  0  0  0  0
  4  9  1  0  0  0  0
  5  9  2  0  0  0  0
  6 10  2  0  0  0  0
  7 20  1  0  0  0  0
  8 13  1  0  0  0  0
  9 19  1  0  0  0  0
 10 11  1  0  0  0  0
 10 20  1  0  0  0  0
 11 15  1  0  0  0  0
 11 16  2  0  0  0  0
 12 14  1  0  0  0  0
 12 15  2  0  0  0  0
 12 18  1  0  0  0  0
 13 14  1  0  0  0  0
 14 17  1  0  0  0  0
 16 18  1  0  0  0  0
  1 21  1  0  0  0  0
  2 22  1  0  0  0  0
  3 23  1  0  0  0  0
  4 24  1  0  0  0  0
  5 25  1  0  0  0  0
  6 26  1  0  0  0  0
  7 27  1  0  0  0  0
 13 28  1  0  0  0  0
 13 29  1  0  0  0  0
 14 30  1  0  0  0  0
 17 31  1  0  0  0  0
 17 32  1  0  0  0  0
 19 33  1  0  0  0  0
M  END
> <FRED Chemgauss4 score>
-10.310545

$$$$
C92306668	P144505057
  -OEChem-05122015313D

 39 42  0     1  0  0  0  0  0999 V2000
  124.4865  108.9954  107.0940 C   0  0  0  0  0  0  0  0  0  0  0  0
  125.6700  108.8277  107.8319 C   0  0  0  0  0  0  0  0  0  0  0  0
  123.6814  107.8974  106.7799 C   0  0  0  0  0  0  0  0  0  0  0  0
  118.5489  103.5073  105.9555 C   0  0  0  0  0  0  0  0  0  0  0  0
  119.7395  103.8618  106.5964 C   0  0  0  0  0  0  0  0  0  0  0  0
  126.0658  107.5599  108.2614 C   0  0  0  0  0  0  0  0  0  0  0  0
  119.6026  107.4599  106.8808 C   0  0  0  0  0  0  0  0  0  0  0  0
  117.8559  105.8314  105.8314 C   0  0  0  0  0  0  0  0  0  0  0  0
  120.8174  107.2060  107.4746 C   0  0  0  0  0  0  0  0  0  0  0  0
  119.0492  106.2128  106.4763 C   0  0  0  0  0  0  0  0  0  0  0  0
  124.0864  106.6452  107.2074 C   0  0  0  0  0  0  0  0  0  0  0  0
  117.6203  104.4752  105.5780 C   0  0  0  0  0  0  0  0  0  0  0  0
  119.9616  105.2213  106.8432 C   0  0  0  0  0  0  0  0  0  0  0  0
  125.2614  106.4874  107.9283 C   0  0  0  0  0  0  0  0  0  0  0  0
  124.5819  104.4228  107.4809 C   0  0  0  0  0  0  0  0  0  0  0  0
  123.4142  105.3291  107.0599 C   0  0  1  0  0  0  0  0  0  0  0  0
  116.3594  104.0633  104.8934 C   0  0  0  0  0  0  0  0  0  0  0  0
  122.2097  105.1933  107.9833 C   0  0  0  0  0  0  0  0  0  0  0  0
  121.0254  105.8530  107.4470 N   0  0  0  0  0  0  0  0  0  0  0  0
  115.2180  104.1189  105.7704 N   0  0  0  0  0  0  0  0  0  0  0  0
  125.5130  105.1873  108.2850 O   0  0  0  0  0  0  0  0  0  0  0  0
  124.2005  109.9879  106.7570 H   0  0  0  0  0  0  0  0  0  0  0  0
  126.2838  109.6931  108.0667 H   0  0  0  0  0  0  0  0  0  0  0  0
  122.7705  108.0314  106.2074 H   0  0  0  0  0  0  0  0  0  0  0  0
  118.3543  102.4564  105.7533 H   0  0  0  0  0  0  0  0  0  0  0  0
  120.4588  103.1037  106.8880 H   0  0  0  0  0  0  0  0  0  0  0  0
  126.9727  107.4291  108.8411 H   0  0  0  0  0  0  0  0  0  0  0  0
  119.1603  108.4382  106.7522 H   0  0  0  0  0  0  0  0  0  0  0  0
  117.1285  106.5827  105.5348 H   0  0  0  0  0  0  0  0  0  0  0  0
  121.5467  107.8743  107.9118 H   0  0  0  0  0  0  0  0  0  0  0  0
  124.2484  103.5665  108.0851 H   0  0  0  0  0  0  0  0  0  0  0  0
  125.1117  104.0253  106.6061 H   0  0  0  0  0  0  0  0  0  0  0  0
  123.1384  105.1735  106.0363 H   0  0  0  0  0  0  0  0  0  0  0  0
  116.1473  104.7123  104.0327 H   0  0  0  0  0  0  0  0  0  0  0  0
  116.4281  103.0370  104.5085 H   0  0  0  0  0  0  0  0  0  0  0  0
  122.4237  105.6308  108.9653 H   0  0  0  0  0  0  0  0  0  0  0  0
  121.9632  104.1375  108.1450 H   0  0  0  0  0  0  0  0  0  0  0  0
  114.4268  103.5263  105.5813 H   0  0  0  0  0  0  0  0  0  0  0  0
  115.1415  104.8792  106.4255 H   0  0  0  0  0  0  0  0  0  0  0  0
  1  2  1  0  0  0  0
  1  3  2  0  0  0  0
  2  6  2  0  0  0  0
  3 11  1  0  0  0  0
  4  5  1  0  0  0  0
  4 12  2  0  0  0  0
  5 13  2  0  0  0  0
  6 14  1  0  0  0  0
  7  9  2  0  0  0  0
  7 10  1  0  0  0  0
  8 10  2  0  0  0  0
  8 12  1  0  0  0  0
  9 19  1  0  0  0  0
 10 13  1  0  0  0  0
 11 14  2  0  0  0  0
 11 16  1  0  0  0  0
 12 17  1  0  0  0  0
 13 19  1  0  0  0  0
 14 21  1  0  0  0  0
 15 16  1  0  0  0  0
 15 21  1  0  0  0  0
 16 18  1  0  0  0  0
 17 20  1  0  0  0  0
 18 19  1  0  0  0  0
  1 22  1  0  0  0  0
  2 23  1  0  0  0  0
  3 24  1  0  0  0  0
  4 25  1  0  0  0  0
  5 26  1  0  0  0  0
  6 27  1  0  0  0  0
  7 28  1  0  0  0  0
  8 29  1  0  0  0  0
  9 30  1  0  0  0  0
 15 31  1  0  0  0  0
 15 32  1  0  0  0  0
 16 33  1  0  0  0  0
 17 34  1  0  0  0  0
 17 35  1  0  0  0  0
 18 36  1  0  0  0  0
 18 37  1  0  0  0  0
 20 38  1  0  0  0  0
 20 39  1  0  0  0  0
M  END
> <FRED Chemgauss4 score>
-10.291743

$$$$
C33636969	P49840826
  -OEChem-05122015313D

 19 19  0     1  0  0  0  0  0999 V2000
  123.7999  107.1759  106.4287 C   0  0  0  0  0  0  0  0  0  0  0  0
  122.9147  105.2131  106.9647 C   0  0  0  0  0  0  0  0  0  0  0  0
  124.6860  106.8647  107.6299 C   0  0  1  0  0  0  0  0  0  0  0  0
  124.5795  107.9428  108.6963 C   0  0  0  0  0  0  0  0  0  0  0  0
  125.4019  109.1665  108.3252 C   0  0  0  0  0  0  0  0  0  0  0  0
  122.8708  106.1956  106.1316 N   0  0  0  0  0  0  0  0  0  0  0  0
  122.1401  104.1493  106.9167 N   0  5  0  0  0  0  0  0  0  0  0  0
  126.8167  108.7633  108.1414 N   0  3  0  0  0  0  0  0  0  0  0  0
  123.9239  108.2174  105.7900 O   0  0  0  0  0  0  0  0  0  0  0  0
  124.0688  105.2732  108.2516 S   0  0  0  0  0  0  0  0  0  0  0  0
  125.7168  106.7403  107.2845 H   0  0  0  0  0  0  0  0  0  0  0  0
  124.9221  107.5350  109.6548 H   0  0  0  0  0  0  0  0  0  0  0  0
  123.5263  108.2205  108.8226 H   0  0  0  0  0  0  0  0  0  0  0  0
  125.0732  109.6106  107.3811 H   0  0  0  0  0  0  0  0  0  0  0  0
  125.3878  109.9248  109.1135 H   0  0  0  0  0  0  0  0  0  0  0  0
  122.2556  103.6120  107.7826 H   0  0  0  0  0  0  0  0  0  0  0  0
  126.9119  108.0978  107.3665 H   0  0  0  0  0  0  0  0  0  0  0  0
  127.1840  108.3155  108.9885 H   0  0  0  0  0  0  0  0  0  0  0  0
  127.4069  109.5763  107.9333 H   0  0  0  0  0  0  0  0  0  0  0  0
  1  3  1  0  0  0  0
  1  6  1  0  0  0  0
  1  9  2  0  0  0  0
  2  6  2  0  0  0  0
  2  7  1  0  0  0  0
  2 10  1  0  0  0  0
  3  4  1  0  0  0  0
  3 10  1  0  0  0  0
  4  5  1  0  0  0  0
  5  8  1  0  0  0  0
  3 11  1  0  0  0  0
  4 12  1  0  0  0  0
  4 13  1  0  0  0  0
  5 14  1  0  0  0  0
  5 15  1  0  0  0  0
  7 16  1  0  0  0  0
  8 17  1  0  0  0  0
  8 18  1  0  0  0  0
  8 19  1  0  0  0  0
M  CHG  2   7  -1   8   1
M  END
> <FRED Chemgauss4 score>
-10.289470

$$$$
C79926186	P124866785
  -OEChem-05122015313D

 40 41  0     1  0  0  0  0  0999 V2000
  115.3920  105.6950  106.1665 C   0  0  0  0  0  0  0  0  0  0  0  0
  116.5246  103.7687  105.2478 C   0  0  0  0  0  0  0  0  0  0  0  0
  116.2443  106.5369  105.4521 C   0  0  0  0  0  0  0  0  0  0  0  0
  117.3768  104.6106  104.5333 C   0  0  0  0  0  0  0  0  0  0  0  0
  115.5322  104.3109  106.0644 C   0  0  0  0  0  0  0  0  0  0  0  0
  117.2367  105.9947  104.6355 C   0  0  0  0  0  0  0  0  0  0  0  0
  125.1337  104.2429  107.5319 C   0  0  0  0  0  0  0  0  0  0  0  0
  125.3856  105.7126  107.7622 C   0  0  0  0  0  0  0  0  0  0  0  0
  124.3462  106.0786  108.8187 C   0  0  0  0  0  0  0  0  0  0  0  0
  123.1920  105.1199  108.5535 C   0  0  1  0  0  0  0  0  0  0  0  0
  122.1787  105.6789  107.5636 C   0  0  0  0  0  0  0  0  0  0  0  0
  119.0759  107.9722  105.1045 C   0  0  0  0  0  0  0  0  0  0  0  0
  119.8007  107.0202  106.0377 C   0  0  0  0  0  0  0  0  0  0  0  0
  123.8609  103.9604  108.0168 N   0  0  0  0  0  0  0  0  0  0  0  0
  114.6708  103.4591  106.7871 N   0  0  0  0  0  0  0  0  0  0  0  0
  121.2991  106.5837  108.2270 N   0  0  0  0  0  0  0  0  0  0  0  0
  125.9056  103.4703  106.9854 O   0  0  0  0  0  0  0  0  0  0  0  0
  121.6361  108.7228  106.8011 O   0  0  0  0  0  0  0  0  0  0  0  0
  119.5296  108.5007  108.1684 O   0  0  0  0  0  0  0  0  0  0  0  0
  118.3170  107.0612  103.7319 S   0  0  0  0  0  0  0  0  0  0  0  0
  120.5819  107.9047  107.3679 S   0  0  0  0  0  0  0  0  0  0  0  0
  114.6215  106.1278  106.7996 H   0  0  0  0  0  0  0  0  0  0  0  0
  116.6420  102.6918  105.1604 H   0  0  0  0  0  0  0  0  0  0  0  0
  116.1195  107.6129  105.5453 H   0  0  0  0  0  0  0  0  0  0  0  0
  118.1451  104.1698  103.9026 H   0  0  0  0  0  0  0  0  0  0  0  0
  126.4045  105.8839  108.1180 H   0  0  0  0  0  0  0  0  0  0  0  0
  125.2178  106.2533  106.8259 H   0  0  0  0  0  0  0  0  0  0  0  0
  124.7655  105.8793  109.8135 H   0  0  0  0  0  0  0  0  0  0  0  0
  124.0613  107.1344  108.7850 H   0  0  0  0  0  0  0  0  0  0  0  0
  122.6888  104.8367  109.4836 H   0  0  0  0  0  0  0  0  0  0  0  0
  121.6021  104.8599  107.1509 H   0  0  0  0  0  0  0  0  0  0  0  0
  122.7035  106.2059  106.7765 H   0  0  0  0  0  0  0  0  0  0  0  0
  119.7699  108.7118  104.6920 H   0  0  0  0  0  0  0  0  0  0  0  0
  118.2925  108.5183  105.6400 H   0  0  0  0  0  0  0  0  0  0  0  0
  120.5954  106.4709  105.5225 H   0  0  0  0  0  0  0  0  0  0  0  0
  119.1156  106.3042  106.5026 H   0  0  0  0  0  0  0  0  0  0  0  0
  123.4378  103.0389  107.9691 H   0  0  0  0  0  0  0  0  0  0  0  0
  113.9947  103.8596  107.4053 H   0  0  0  0  0  0  0  0  0  0  0  0
  114.8123  102.4703  106.7417 H   0  0  0  0  0  0  0  0  0  0  0  0
  120.6768  106.1720  108.9641 H   0  0  0  0  0  0  0  0  0  0  0  0
  1  3  1  0  0  0  0
  1  5  2  0  0  0  0
  2  4  2  0  0  0  0
  2  5  1  0  0  0  0
  3  6  2  0  0  0  0
  4  6  1  0  0  0  0
  5 15  1  0  0  0  0
  6 20  1  0  0  0  0
  7  8  1  0  0  0  0
  7 14  1  0  0  0  0
  7 17  2  0  0  0  0
  8  9  1  0  0  0  0
  9 10  1  0  0  0  0
 10 11  1  0  0  0  0
 10 14  1  0  0  0  0
 11 16  1  0  0  0  0
 12 13  1  0  0  0  0
 12 20  1  0  0  0  0
 13 21  1  0  0  0  0
 16 21  1  0  0  0  0
 18 21  2  0  0  0  0
 19 21  2  0  0  0  0
  1 22  1  0  0  0  0
  2 23  1  0  0  0  0
  3 24  1  0  0  0  0
  4 25  1  0  0  0  0
  8 26  1  0  0  0  0
  8 27  1  0  0  0  0
  9 28  1  0  0  0  0
  9 29  1  0  0  0  0
 10 30  1  0  0  0  0
 11 31  1  0  0  0  0
 11 32  1  0  0  0  0
 12 33  1  0  0  0  0
 12 34  1  0  0  0  0
 13 35  1  0  0  0  0
 13 36  1  0  0  0  0
 14 37  1  0  0  0  0
 15 38  1  0  0  0  0
 15 39  1  0  0  0  0
 16 40  1  0  0  0  0
M  END
> <FRED Chemgauss4 score>
-10.288898

$$$$
C88999711	P139200393
  -OEChem-05122015313D

 31 32  0     0  0  0  0  0  0999 V2000
  124.3428  104.9109  107.5374 C   0  0  0  0  0  0  0  0  0  0  0  0
  118.8700  107.6384  104.1397 C   0  0  0  0  0  0  0  0  0  0  0  0
  118.2774  107.0676  105.2466 C   0  0  0  0  0  0  0  0  0  0  0  0
  125.5981  104.5189  108.0857 C   0  0  0  0  0  0  0  0  0  0  0  0
  126.5266  105.5351  108.0310 C   0  0  0  0  0  0  0  0  0  0  0  0
  124.3595  106.2119  107.0847 C   0  0  0  0  0  0  0  0  0  0  0  0
  120.5195  106.3332  104.7606 C   0  0  0  0  0  0  0  0  0  0  0  0
  125.8619  103.1721  108.6464 C   0  0  0  0  0  0  0  0  0  0  0  0
  127.9334  105.5340  108.4910 C   0  0  0  0  0  0  0  0  0  0  0  0
  121.8612  105.6450  104.7876 C   0  0  0  0  0  0  0  0  0  0  0  0
  120.1558  107.2187  103.8597 N   0  0  0  0  0  0  0  0  0  0  0  0
  122.9132  106.6500  104.8503 N   0  5  0  0  0  0  0  0  0  0  0  0
  128.1034  105.9677  109.9100 N   0  3  0  0  0  0  0  0  0  0  0  0
  123.7509  108.5810  106.3447 O   0  0  0  0  0  0  0  0  0  0  0  0
  121.9761  107.1245  107.2083 O   0  0  0  0  0  0  0  0  0  0  0  0
  119.3644  105.9576  105.9730 S   0  0  0  0  0  0  0  0  0  0  0  0
  125.8842  106.9548  107.3209 S   0  0  0  0  0  0  0  0  0  0  0  0
  123.1497  107.2381  106.3281 S   0  0  0  0  0  0  0  0  0  0  0  0
  123.4696  104.2734  107.4767 H   0  0  0  0  0  0  0  0  0  0  0  0
  118.4033  108.3721  103.4963 H   0  0  0  0  0  0  0  0  0  0  0  0
  117.2895  107.2424  105.6485 H   0  0  0  0  0  0  0  0  0  0  0  0
  126.2342  102.4906  107.8674 H   0  0  0  0  0  0  0  0  0  0  0  0
  126.6089  103.2064  109.4544 H   0  0  0  0  0  0  0  0  0  0  0  0
  124.9537  102.7275  109.0823 H   0  0  0  0  0  0  0  0  0  0  0  0
  128.3914  104.5329  108.4270 H   0  0  0  0  0  0  0  0  0  0  0  0
  128.5667  106.2106  107.8933 H   0  0  0  0  0  0  0  0  0  0  0  0
  121.9054  104.9561  105.6401 H   0  0  0  0  0  0  0  0  0  0  0  0
  121.9624  105.0153  103.8953 H   0  0  0  0  0  0  0  0  0  0  0  0
  127.1966  106.1876  110.3271 H   0  0  0  0  0  0  0  0  0  0  0  0
  128.6937  106.8007  109.9599 H   0  0  0  0  0  0  0  0  0  0  0  0
  128.5419  105.2259  110.4598 H   0  0  0  0  0  0  0  0  0  0  0  0
  1  4  1  0  0  0  0
  1  6  2  0  0  0  0
  2  3  2  0  0  0  0
  2 11  1  0  0  0  0
  3 16  1  0  0  0  0
  4  5  2  0  0  0  0
  4  8  1  0  0  0  0
  5  9  1  0  0  0  0
  5 17  1  0  0  0  0
  6 17  1  0  0  0  0
  6 18  1  0  0  0  0
  7 10  1  0  0  0  0
  7 11  2  0  0  0  0
  7 16  1  0  0  0  0
  9 13  1  0  0  0  0
 10 12  1  0  0  0  0
 12 18  1  0  0  0  0
 14 18  2  0  0  0  0
 15 18  2  0  0  0  0
  1 19  1  0  0  0  0
  2 20  1  0  0  0  0
  3 21  1  0  0  0  0
  8 22  1  0  0  0  0
  8 23  1  0  0  0  0
  8 24  1  0  0  0  0
  9 25  1  0  0  0  0
  9 26  1  0  0  0  0
 10 27  1  0  0  0  0
 10 28  1  0  0  0  0
 13 29  1  0  0  0  0
 13 30  1  0  0  0  0
 13 31  1  0  0  0  0
M  CHG  2  12  -1  13   1
M  END
> <FRED Chemgauss4 score>
-10.287043

$$$$
C45169388	P68083549
  -OEChem-05122015313D

 42 43  0     1  0  0  0  0  0999 V2000
  119.7937  103.9697  106.5325 C   0  0  0  0  0  0  0  0  0  0  0  0
  118.1233  105.8289  106.1010 C   0  0  0  0  0  0  0  0  0  0  0  0
  119.3266  105.2567  106.6591 C   0  0  0  0  0  0  0  0  0  0  0  0
  117.6768  107.1553  106.2531 C   0  0  0  0  0  0  0  0  0  0  0  0
  117.1657  105.2320  105.3179 C   0  0  0  0  0  0  0  0  0  0  0  0
  121.1451  105.2002  107.7638 C   0  0  0  0  0  0  0  0  0  0  0  0
  118.3185  108.2514  107.0024 C   0  0  0  0  0  0  0  0  0  0  0  0
  117.0457  103.8549  104.8006 C   0  0  0  0  0  0  0  0  0  0  0  0
  125.5580  103.7383  107.0878 C   0  0  0  0  0  0  0  0  0  0  0  0
  123.6263  105.9829  106.4591 C   0  0  0  0  0  0  0  0  0  0  0  0
  115.0368  106.0615  104.2712 C   0  0  0  0  0  0  0  0  0  0  0  0
  124.2284  103.9258  107.8064 C   0  0  0  0  0  0  0  0  0  0  0  0
  122.3561  105.5302  108.6185 C   0  0  1  0  0  0  0  0  0  0  0  0
  123.7089  105.3814  107.8714 C   0  0  2  0  0  0  0  0  0  0  0  0
  120.1725  106.0177  107.4265 N   0  0  0  0  0  0  0  0  0  0  0  0
  116.5253  107.3879  105.6175 N   0  0  0  0  0  0  0  0  0  0  0  0
  120.9595  103.9489  107.2451 N   0  0  0  0  0  0  0  0  0  0  0  0
  116.2402  106.1995  105.0584 N   0  0  0  0  0  0  0  0  0  0  0  0
  122.1736  106.8738  109.1277 N   0  0  0  0  0  0  0  0  0  0  0  0
  119.4208  103.0941  106.0201 H   0  0  0  0  0  0  0  0  0  0  0  0
  119.0127  108.8198  106.3611 H   0  0  0  0  0  0  0  0  0  0  0  0
  117.5802  108.9642  107.4091 H   0  0  0  0  0  0  0  0  0  0  0  0
  118.8924  107.8810  107.8698 H   0  0  0  0  0  0  0  0  0  0  0  0
  116.4926  103.2125  105.5052 H   0  0  0  0  0  0  0  0  0  0  0  0
  116.5185  103.8211  103.8318 H   0  0  0  0  0  0  0  0  0  0  0  0
  118.0317  103.3906  104.6270 H   0  0  0  0  0  0  0  0  0  0  0  0
  125.4797  104.1116  106.0612 H   0  0  0  0  0  0  0  0  0  0  0  0
  125.8405  102.6832  107.0328 H   0  0  0  0  0  0  0  0  0  0  0  0
  126.3655  104.2888  107.5772 H   0  0  0  0  0  0  0  0  0  0  0  0
  122.8806  105.4565  105.8538 H   0  0  0  0  0  0  0  0  0  0  0  0
  123.3574  107.0436  106.4866 H   0  0  0  0  0  0  0  0  0  0  0  0
  124.5856  105.8959  105.9383 H   0  0  0  0  0  0  0  0  0  0  0  0
  114.2291  105.7544  104.9408 H   0  0  0  0  0  0  0  0  0  0  0  0
  114.7987  107.0187  103.7990 H   0  0  0  0  0  0  0  0  0  0  0  0
  115.1976  105.3090  103.4941 H   0  0  0  0  0  0  0  0  0  0  0  0
  124.3347  103.5445  108.8301 H   0  0  0  0  0  0  0  0  0  0  0  0
  123.4780  103.2850  107.3290 H   0  0  0  0  0  0  0  0  0  0  0  0
  122.3695  104.8902  109.5094 H   0  0  0  0  0  0  0  0  0  0  0  0
  124.4728  105.9615  108.4080 H   0  0  0  0  0  0  0  0  0  0  0  0
  121.5709  103.1523  107.3658 H   0  0  0  0  0  0  0  0  0  0  0  0
  122.9774  107.3797  109.4491 H   0  0  0  0  0  0  0  0  0  0  0  0
  121.2442  107.1868  109.3364 H   0  0  0  0  0  0  0  0  0  0  0  0
  1  3  2  0  0  0  0
  1 17  1  0  0  0  0
  2  3  1  0  0  0  0
  2  4  1  0  0  0  0
  2  5  2  0  0  0  0
  3 15  1  0  0  0  0
  4  7  1  0  0  0  0
  4 16  2  0  0  0  0
  5  8  1  0  0  0  0
  5 18  1  0  0  0  0
  6 13  1  0  0  0  0
  6 15  2  0  0  0  0
  6 17  1  0  0  0  0
  9 12  1  0  0  0  0
 10 14  1  0  0  0  0
 11 18  1  0  0  0  0
 12 14  1  0  0  0  0
 13 14  1  0  0  0  0
 13 19  1  0  0  0  0
 16 18  1  0  0  0  0
  1 20  1  0  0  0  0
  7 21  1  0  0  0  0
  7 22  1  0  0  0  0
  7 23  1  0  0  0  0
  8 24  1  0  0  0  0
  8 25  1  0  0  0  0
  8 26  1  0  0  0  0
  9 27  1  0  0  0  0
  9 28  1  0  0  0  0
  9 29  1  0  0  0  0
 10 30  1  0  0  0  0
 10 31  1  0  0  0  0
 10 32  1  0  0  0  0
 11 33  1  0  0  0  0
 11 34  1  0  0  0  0
 11 35  1  0  0  0  0
 12 36  1  0  0  0  0
 12 37  1  0  0  0  0
 13 38  1  0  0  0  0
 14 39  1  0  0  0  0
 17 40  1  0  0  0  0
 19 41  1  0  0  0  0
 19 42  1  0  0  0  0
M  END
> <FRED Chemgauss4 score>
-10.283867

$$$$
L-DOPS	P10000036
  -OEChem-05122015313D

 26 26  0     1  0  0  0  0  0999 V2000
  123.5650  107.3740  107.9554 C   0  0  0  0  0  0  0  0  0  0  0  0
  124.6579  108.2402  107.9862 C   0  0  0  0  0  0  0  0  0  0  0  0
  124.9865  105.6102  107.1157 C   0  0  0  0  0  0  0  0  0  0  0  0
  123.7293  106.0590  107.5202 C   0  0  0  0  0  0  0  0  0  0  0  0
  125.9151  107.7914  107.5817 C   0  0  0  0  0  0  0  0  0  0  0  0
  126.0794  106.4763  107.1464 C   0  0  0  0  0  0  0  0  0  0  0  0
  121.9420  105.6137  105.0037 C   0  0  0  0  0  0  0  0  0  0  0  0
  122.5412  105.1160  107.4891 C   0  0  1  0  0  0  0  0  0  0  0  0
  122.2462  104.5555  106.0835 C   0  0  1  0  0  0  0  0  0  0  0  0
  121.1523  103.5349  106.1814 N   0  3  0  0  0  0  0  0  0  0  0  0
  122.5180  106.7294  105.1270 O   0  5  0  0  0  0  0  0  0  0  0  0
  121.1420  105.2242  104.1035 O   0  0  0  0  0  0  0  0  0  0  0  0
  126.9745  108.6473  107.6164 O   0  0  0  0  0  0  0  0  0  0  0  0
  127.3022  106.0268  106.7482 O   0  0  0  0  0  0  0  0  0  0  0  0
  122.7207  104.0536  108.4272 O   0  0  0  0  0  0  0  0  0  0  0  0
  122.5896  107.7318  108.2740 H   0  0  0  0  0  0  0  0  0  0  0  0
  124.5227  109.2633  108.3260 H   0  0  0  0  0  0  0  0  0  0  0  0
  125.1174  104.5854  106.7765 H   0  0  0  0  0  0  0  0  0  0  0  0
  121.6735  105.6843  107.8486 H   0  0  0  0  0  0  0  0  0  0  0  0
  123.1205  103.9992  105.7211 H   0  0  0  0  0  0  0  0  0  0  0  0
  120.2838  103.9137  105.8037 H   0  0  0  0  0  0  0  0  0  0  0  0
  121.0013  103.2752  107.1564 H   0  0  0  0  0  0  0  0  0  0  0  0
  121.4037  102.6989  105.6535 H   0  0  0  0  0  0  0  0  0  0  0  0
  126.6922  109.5167  107.9412 H   0  0  0  0  0  0  0  0  0  0  0  0
  127.2454  105.0972  106.4768 H   0  0  0  0  0  0  0  0  0  0  0  0
  121.9341  103.4924  108.3578 H   0  0  0  0  0  0  0  0  0  0  0  0
  1  2  1  0  0  0  0
  1  4  2  0  0  0  0
  2  5  2  0  0  0  0
  3  4  1  0  0  0  0
  3  6  2  0  0  0  0
  4  8  1  0  0  0  0
  5  6  1  0  0  0  0
  5 13  1  0  0  0  0
  6 14  1  0  0  0  0
  7  9  1  0  0  0  0
  7 11  1  0  0  0  0
  7 12  2  0  0  0  0
  8  9  1  0  0  0  0
  8 15  1  0  0  0  0
  9 10  1  0  0  0  0
  1 16  1  0  0  0  0
  2 17  1  0  0  0  0
  3 18  1  0  0  0  0
  8 19  1  0  0  0  0
  9 20  1  0  0  0  0
 10 21  1  0  0  0  0
 10 22  1  0  0  0  0
 10 23  1  0  0  0  0
 13 24  1  0  0  0  0
 14 25  1  0  0  0  0
 15 26  1  0  0  0  0
M  CHG  2  10   1  11  -1
M  END
> <FRED Chemgauss4 score>
-10.275462

$$$$
C97321337	P154123694
  -OEChem-05122015313D

 35 36  0     1  0  0  0  0  0999 V2000
  121.5565  104.8393  107.3690 C   0  0  0  0  0  0  0  0  0  0  0  0
  121.8493  106.0724  106.8251 C   0  0  0  0  0  0  0  0  0  0  0  0
  121.2382  105.0392  104.9896 C   0  0  0  0  0  0  0  0  0  0  0  0
  124.2776  109.3037  108.8359 C   0  0  0  0  0  0  0  0  0  0  0  0
  125.1393  108.2233  106.7789 C   0  0  0  0  0  0  0  0  0  0  0  0
  120.9507  104.8225  103.6120 C   0  0  0  0  0  0  0  0  0  0  0  0
  123.8640  107.9483  109.3533 C   0  0  0  0  0  0  0  0  0  0  0  0
  124.7353  106.8727  107.3382 C   0  0  1  0  0  0  0  0  0  0  0  0
  125.6228  104.8289  108.4631 C   0  0  0  0  0  0  0  0  0  0  0  0
  122.3406  107.2715  107.5834 C   0  0  0  0  0  0  0  0  0  0  0  0
  125.9476  106.2048  107.9892 C   0  0  0  0  0  0  0  0  0  0  0  0
  121.6678  106.1888  105.4608 N   0  0  0  0  0  0  0  0  0  0  0  0
  124.9123  109.3136  107.6044 N   0  0  0  0  0  0  0  0  0  0  0  0
  123.6064  107.0062  108.2666 N   0  0  2  0  0  0  0  0  0  0  0  0
  120.1725  103.2577  101.9268 N   0  0  0  0  0  0  0  0  0  0  0  0
  120.4961  103.5391  103.2416 N   0  0  0  0  0  0  0  0  0  0  0  0
  124.0998  110.3230  109.5032 O   0  0  0  0  0  0  0  0  0  0  0  0
  125.6831  108.3239  105.6786 O   0  0  0  0  0  0  0  0  0  0  0  0
  121.0571  105.7085  102.7247 O   0  0  0  0  0  0  0  0  0  0  0  0
  121.0298  103.7751  106.1315 S   0  0  0  0  0  0  0  0  0  0  0  0
  121.6213  104.5201  108.3995 H   0  0  0  0  0  0  0  0  0  0  0  0
  124.6969  107.5837  109.9821 H   0  0  0  0  0  0  0  0  0  0  0  0
  122.9861  108.0791  110.0135 H   0  0  0  0  0  0  0  0  0  0  0  0
  124.4428  106.2333  106.4748 H   0  0  0  0  0  0  0  0  0  0  0  0
  124.8070  104.8793  109.1938 H   0  0  0  0  0  0  0  0  0  0  0  0
  126.4876  104.3670  108.9511 H   0  0  0  0  0  0  0  0  0  0  0  0
  125.2961  104.1943  107.6325 H   0  0  0  0  0  0  0  0  0  0  0  0
  122.4936  108.1198  106.9073 H   0  0  0  0  0  0  0  0  0  0  0  0
  121.6118  107.5847  108.3384 H   0  0  0  0  0  0  0  0  0  0  0  0
  126.7590  106.1651  107.2610 H   0  0  0  0  0  0  0  0  0  0  0  0
  126.2772  106.8186  108.8286 H   0  0  0  0  0  0  0  0  0  0  0  0
  125.2463  110.2157  107.2721 H   0  0  0  0  0  0  0  0  0  0  0  0
  119.4041  102.5886  101.9495 H   0  0  0  0  0  0  0  0  0  0  0  0
  119.7879  104.1134  101.5287 H   0  0  0  0  0  0  0  0  0  0  0  0
  120.4057  102.8156  103.9467 H   0  0  0  0  0  0  0  0  0  0  0  0
  1  2  2  0  0  0  0
  1 20  1  0  0  0  0
  2 10  1  0  0  0  0
  2 12  1  0  0  0  0
  3  6  1  0  0  0  0
  3 12  2  0  0  0  0
  3 20  1  0  0  0  0
  4  7  1  0  0  0  0
  4 13  1  0  0  0  0
  4 17  2  0  0  0  0
  5  8  1  0  0  0  0
  5 13  1  0  0  0  0
  5 18  2  0  0  0  0
  6 16  1  0  0  0  0
  6 19  2  0  0  0  0
  7 14  1  0  0  0  0
  8 11  1  0  0  0  0
  8 14  1  0  0  0  0
  9 11  1  0  0  0  0
 10 14  1  0  0  0  0
 15 16  1  0  0  0  0
  1 21  1  0  0  0  0
  7 22  1  0  0  0  0
  7 23  1  0  0  0  0
  8 24  1  0  0  0  0
  9 25  1  0  0  0  0
  9 26  1  0  0  0  0
  9 27  1  0  0  0  0
 10 28  1  0  0  0  0
 10 29  1  0  0  0  0
 11 30  1  0  0  0  0
 11 31  1  0  0  0  0
 13 32  1  0  0  0  0
 15 33  1  0  0  0  0
 15 34  1  0  0  0  0
 16 35  1  0  0  0  0
M  END
> <FRED Chemgauss4 score>
-10.268450

$$$$
C79002672	P123316451
  -OEChem-05122015313D

 37 38  0     1  0  0  0  0  0999 V2000
  124.7441  104.4007  108.1343 C   0  0  0  0  0  0  0  0  0  0  0  0
  124.3096  106.5221  107.0878 C   0  0  0  0  0  0  0  0  0  0  0  0
  125.6785  105.0450  108.9290 C   0  0  0  0  0  0  0  0  0  0  0  0
  124.0509  105.1604  107.1986 C   0  0  0  0  0  0  0  0  0  0  0  0
  125.2633  107.0715  107.9295 C   0  0  0  0  0  0  0  0  0  0  0  0
  125.5739  108.4889  107.8575 C   0  0  0  0  0  0  0  0  0  0  0  0
  117.9518  106.0948  104.3309 C   0  0  0  0  0  0  0  0  0  0  0  0
  119.0497  106.7006  105.1873 C   0  0  0  0  0  0  0  0  0  0  0  0
  118.1847  104.0403  105.4402 C   0  0  0  0  0  0  0  0  0  0  0  0
  119.2781  104.6173  106.3365 C   0  0  1  0  0  0  0  0  0  0  0  0
  123.0272  104.5127  106.3117 C   0  0  0  0  0  0  0  0  0  0  0  0
  120.6838  104.2533  105.8628 C   0  0  0  0  0  0  0  0  0  0  0  0
  125.9570  106.3656  108.8504 N   0  0  0  0  0  0  0  0  0  0  0  0
  124.8615  109.2891  108.6318 N   0  0  0  0  0  0  0  0  0  0  0  0
  126.5692  109.0022  107.0187 N   0  0  0  0  0  0  0  0  0  0  0  0
  121.6572  104.8275  106.7333 N   0  0  0  0  0  0  0  0  0  0  0  0
  118.1829  104.6947  104.1700 O   0  0  0  0  0  0  0  0  0  0  0  0
  119.1198  106.0370  106.4505 O   0  0  0  0  0  0  0  0  0  0  0  0
  123.9203  108.5853  109.3900 O   0  0  0  0  0  0  0  0  0  0  0  0
  124.5653  103.3366  108.2450 H   0  0  0  0  0  0  0  0  0  0  0  0
  123.7794  107.1331  106.3639 H   0  0  0  0  0  0  0  0  0  0  0  0
  126.2461  104.4972  109.6740 H   0  0  0  0  0  0  0  0  0  0  0  0
  116.9756  106.2283  104.8072 H   0  0  0  0  0  0  0  0  0  0  0  0
  117.9173  106.5630  103.3398 H   0  0  0  0  0  0  0  0  0  0  0  0
  120.0234  106.5971  104.6928 H   0  0  0  0  0  0  0  0  0  0  0  0
  118.8719  107.7713  105.3618 H   0  0  0  0  0  0  0  0  0  0  0  0
  118.3242  102.9614  105.2762 H   0  0  0  0  0  0  0  0  0  0  0  0
  117.1951  104.1826  105.8942 H   0  0  0  0  0  0  0  0  0  0  0  0
  119.1440  104.1948  107.3753 H   0  0  0  0  0  0  0  0  0  0  0  0
  123.1467  104.8478  105.2756 H   0  0  0  0  0  0  0  0  0  0  0  0
  123.1368  103.4231  106.3158 H   0  0  0  0  0  0  0  0  0  0  0  0
  120.8315  104.6414  104.8613 H   0  0  0  0  0  0  0  0  0  0  0  0
  120.7962  103.1753  105.8685 H   0  0  0  0  0  0  0  0  0  0  0  0
  127.1383  108.4016  106.4332 H   0  0  0  0  0  0  0  0  0  0  0  0
  126.7846  109.9934  106.9986 H   0  0  0  0  0  0  0  0  0  0  0  0
  121.5366  104.4811  107.6958 H   0  0  0  0  0  0  0  0  0  0  0  0
  123.4953  109.3037  109.8883 H   0  0  0  0  0  0  0  0  0  0  0  0
  1  3  1  0  0  0  0
  1  4  2  0  0  0  0
  2  4  1  0  0  0  0
  2  5  2  0  0  0  0
  3 13  2  0  0  0  0
  4 11  1  0  0  0  0
  5  6  1  0  0  0  0
  5 13  1  0  0  0  0
  6 14  2  0  0  0  0
  6 15  1  0  0  0  0
  7  8  1  0  0  0  0
  7 17  1  0  0  0  0
  8 18  1  0  0  0  0
  9 10  1  0  0  0  0
  9 17  1  0  0  0  0
 10 12  1  0  0  0  0
 10 18  1  0  0  0  0
 11 16  1  0  0  0  0
 12 16  1  0  0  0  0
 14 19  1  0  0  0  0
  1 20  1  0  0  0  0
  2 21  1  0  0  0  0
  3 22  1  0  0  0  0
  7 23  1  0  0  0  0
  7 24  1  0  0  0  0
  8 25  1  0  0  0  0
  8 26  1  0  0  0  0
  9 27  1  0  0  0  0
  9 28  1  0  0  0  0
 10 29  1  0  0  0  0
 11 30  1  0  0  0  0
 11 31  1  0  0  0  0
 12 32  1  0  0  0  0
 12 33  1  0  0  0  0
 15 34  1  0  0  0  0
 15 35  1  0  0  0  0
 16 36  1  0  0  0  0
 19 37  1  0  0  0  0
M  END
> <FRED Chemgauss4 score>
-10.266991

$$$$
C79403161	P124075411
  -OEChem-05122015313D

 46 47  0     1  0  0  0  0  0999 V2000
  123.6605  105.2397  108.1717 C   0  0  0  0  0  0  0  0  0  0  0  0
  124.3485  106.4227  107.9258 C   0  0  0  0  0  0  0  0  0  0  0  0
  122.5917  104.8815  107.3577 C   0  0  0  0  0  0  0  0  0  0  0  0
  123.9316  107.2062  106.8618 C   0  0  0  0  0  0  0  0  0  0  0  0
  122.2533  105.7341  106.3192 C   0  0  0  0  0  0  0  0  0  0  0  0
  119.0619  104.0199  105.1823 C   0  0  0  0  0  0  0  0  0  0  0  0
  118.1502  105.1921  105.5505 C   0  0  0  0  0  0  0  0  0  0  0  0
  119.6497  107.0809  104.6348 C   0  0  0  0  0  0  0  0  0  0  0  0
  120.4645  104.1084  105.7851 C   0  0  0  0  0  0  0  0  0  0  0  0
  120.8203  106.1479  104.3283 C   0  0  0  0  0  0  0  0  0  0  0  0
  118.2757  106.3918  104.5967 C   0  0  2  0  0  0  0  0  0  0  0  0
  115.9072  107.0697  104.1302 C   0  0  0  0  0  0  0  0  0  0  0  0
  117.6614  108.8209  104.5073 C   0  0  0  0  0  0  0  0  0  0  0  0
  116.8782  107.3993  106.4183 C   0  0  0  0  0  0  0  0  0  0  0  0
  124.6473  108.4828  106.5694 C   0  0  0  0  0  0  0  0  0  0  0  0
  117.1825  107.4187  104.9125 C   0  0  0  0  0  0  0  0  0  0  0  0
  122.8981  106.8913  106.0493 N   0  0  0  0  0  0  0  0  0  0  0  0
  121.1753  105.3595  105.5084 N   0  0  0  0  0  0  0  0  0  0  0  0
  125.5116  108.3746  105.4221 N   0  0  0  0  0  0  0  0  0  0  0  0
  123.9574  104.5976  108.9957 H   0  0  0  0  0  0  0  0  0  0  0  0
  125.1841  106.7133  108.5534 H   0  0  0  0  0  0  0  0  0  0  0  0
  122.0500  103.9595  107.5422 H   0  0  0  0  0  0  0  0  0  0  0  0
  118.6046  103.0972  105.5626 H   0  0  0  0  0  0  0  0  0  0  0  0
  119.1121  103.8997  104.0937 H   0  0  0  0  0  0  0  0  0  0  0  0
  117.1149  104.8293  105.5046 H   0  0  0  0  0  0  0  0  0  0  0  0
  118.3231  105.5026  106.5883 H   0  0  0  0  0  0  0  0  0  0  0  0
  119.8010  107.5629  105.6094 H   0  0  0  0  0  0  0  0  0  0  0  0
  119.6498  107.8831  103.8855 H   0  0  0  0  0  0  0  0  0  0  0  0
  120.3889  103.9802  106.8727 H   0  0  0  0  0  0  0  0  0  0  0  0
  121.0526  103.2631  105.4047 H   0  0  0  0  0  0  0  0  0  0  0  0
  120.6187  105.5077  103.4616 H   0  0  0  0  0  0  0  0  0  0  0  0
  121.6730  106.7775  104.0387 H   0  0  0  0  0  0  0  0  0  0  0  0
  118.1018  106.0357  103.5724 H   0  0  0  0  0  0  0  0  0  0  0  0
  115.1056  107.7878  104.3359 H   0  0  0  0  0  0  0  0  0  0  0  0
  115.5390  106.0731  104.3988 H   0  0  0  0  0  0  0  0  0  0  0  0
  116.0920  107.0767  103.0502 H   0  0  0  0  0  0  0  0  0  0  0  0
  116.8978  109.5769  104.7224 H   0  0  0  0  0  0  0  0  0  0  0  0
  118.5701  109.1009  105.0519 H   0  0  0  0  0  0  0  0  0  0  0  0
  117.8865  108.8700  103.4360 H   0  0  0  0  0  0  0  0  0  0  0  0
  116.0982  108.1257  106.6732 H   0  0  0  0  0  0  0  0  0  0  0  0
  117.7688  107.6462  107.0070 H   0  0  0  0  0  0  0  0  0  0  0  0
  116.5303  106.4107  106.7384 H   0  0  0  0  0  0  0  0  0  0  0  0
  123.9372  109.2978  106.3728 H   0  0  0  0  0  0  0  0  0  0  0  0
  125.2675  108.7996  107.4187 H   0  0  0  0  0  0  0  0  0  0  0  0
  126.3083  108.9854  105.3508 H   0  0  0  0  0  0  0  0  0  0  0  0
  125.2011  107.8453  104.6243 H   0  0  0  0  0  0  0  0  0  0  0  0
  1  2  1  0  0  0  0
  1  3  2  0  0  0  0
  2  4  2  0  0  0  0
  3  5  1  0  0  0  0
  4 15  1  0  0  0  0
  4 17  1  0  0  0  0
  5 17  2  0  0  0  0
  5 18  1  0  0  0  0
  6  7  1  0  0  0  0
  6  9  1  0  0  0  0
  7 11  1  0  0  0  0
  8 10  1  0  0  0  0
  8 11  1  0  0  0  0
  9 18  1  0  0  0  0
 10 18  1  0  0  0  0
 11 16  1  0  0  0  0
 12 16  1  0  0  0  0
 13 16  1  0  0  0  0
 14 16  1  0  0  0  0
 15 19  1  0  0  0  0
  1 20  1  0  0  0  0
  2 21  1  0  0  0  0
  3 22  1  0  0  0  0
  6 23  1  0  0  0  0
  6 24  1  0  0  0  0
  7 25  1  0  0  0  0
  7 26  1  0  0  0  0
  8 27  1  0  0  0  0
  8 28  1  0  0  0  0
  9 29  1  0  0  0  0
  9 30  1  0  0  0  0
 10 31  1  0  0  0  0
 10 32  1  0  0  0  0
 11 33  1  0  0  0  0
 12 34  1  0  0  0  0
 12 35  1  0  0  0  0
 12 36  1  0  0  0  0
 13 37  1  0  0  0  0
 13 38  1  0  0  0  0
 13 39  1  0  0  0  0
 14 40  1  0  0  0  0
 14 41  1  0  0  0  0
 14 42  1  0  0  0  0
 15 43  1  0  0  0  0
 15 44  1  0  0  0  0
 19 45  1  0  0  0  0
 19 46  1  0  0  0  0
M  END
> <FRED Chemgauss4 score>
-10.264781

$$$$
C83778409	P131081128
  -OEChem-05122015313D

 38 39  0     1  0  0  0  0  0999 V2000
  123.1827  106.7799  106.0888 C   0  0  0  0  0  0  0  0  0  0  0  0
  125.0386  107.2114  106.9412 C   0  0  0  0  0  0  0  0  0  0  0  0
  120.7609  106.7528  106.6604 C   0  0  0  0  0  0  0  0  0  0  0  0
  121.9870  104.5978  106.1395 C   0  0  0  0  0  0  0  0  0  0  0  0
  119.4255  106.0428  106.4397 C   0  0  0  0  0  0  0  0  0  0  0  0
  120.6486  103.8929  105.9201 C   0  0  0  0  0  0  0  0  0  0  0  0
  121.8863  106.1025  105.8383 C   0  0  0  0  0  0  0  0  0  0  0  0
  119.5250  104.5413  106.7393 C   0  0  0  0  0  0  0  0  0  0  0  0
  117.7917  103.9682  105.0317 C   0  0  0  0  0  0  0  0  0  0  0  0
  126.3943  106.1725  108.8100 C   0  0  0  0  0  0  0  0  0  0  0  0
  118.1911  103.8486  106.4657 C   0  0  0  0  0  0  0  0  0  0  0  0
  126.2819  107.2667  107.7267 C   0  0  1  0  0  0  0  0  0  0  0  0
  124.0476  106.3583  107.0577 N   0  0  0  0  0  0  0  0  0  0  0  0
  123.5762  107.8402  105.3800 N   0  0  0  0  0  0  0  0  0  0  0  0
  124.7659  108.0964  105.9451 N   0  0  0  0  0  0  0  0  0  0  0  0
  127.4862  107.1987  106.9029 N   0  0  0  0  0  0  0  0  0  0  0  0
  120.6585  107.8108  106.3882 H   0  0  0  0  0  0  0  0  0  0  0  0
  121.0127  106.7291  107.7291 H   0  0  0  0  0  0  0  0  0  0  0  0
  122.3134  104.4419  107.1765 H   0  0  0  0  0  0  0  0  0  0  0  0
  122.7495  104.1351  105.5005 H   0  0  0  0  0  0  0  0  0  0  0  0
  118.6632  106.5016  107.0806 H   0  0  0  0  0  0  0  0  0  0  0  0
  119.1021  106.1967  105.4022 H   0  0  0  0  0  0  0  0  0  0  0  0
  120.3975  103.9212  104.8521 H   0  0  0  0  0  0  0  0  0  0  0  0
  120.7490  102.8360  106.1947 H   0  0  0  0  0  0  0  0  0  0  0  0
  121.6536  106.2277  104.7726 H   0  0  0  0  0  0  0  0  0  0  0  0
  119.7578  104.4160  107.8052 H   0  0  0  0  0  0  0  0  0  0  0  0
  117.7078  105.0271  104.7607 H   0  0  0  0  0  0  0  0  0  0  0  0
  116.8200  103.4946  104.8556 H   0  0  0  0  0  0  0  0  0  0  0  0
  118.5405  103.5085  104.3779 H   0  0  0  0  0  0  0  0  0  0  0  0
  126.3088  105.1788  108.3568 H   0  0  0  0  0  0  0  0  0  0  0  0
  127.3503  106.2211  109.3434 H   0  0  0  0  0  0  0  0  0  0  0  0
  125.6019  106.2709  109.5605 H   0  0  0  0  0  0  0  0  0  0  0  0
  118.2750  102.7931  106.7368 H   0  0  0  0  0  0  0  0  0  0  0  0
  117.4208  104.2948  107.0997 H   0  0  0  0  0  0  0  0  0  0  0  0
  126.3772  108.2373  108.2595 H   0  0  0  0  0  0  0  0  0  0  0  0
  125.3190  108.8737  105.6036 H   0  0  0  0  0  0  0  0  0  0  0  0
  128.3260  106.8690  107.3266 H   0  0  0  0  0  0  0  0  0  0  0  0
  127.4792  107.6675  106.0231 H   0  0  0  0  0  0  0  0  0  0  0  0
  1  7  1  0  0  0  0
  1 13  1  0  0  0  0
  1 14  2  0  0  0  0
  2 12  1  0  0  0  0
  2 13  2  0  0  0  0
  2 15  1  0  0  0  0
  3  5  1  0  0  0  0
  3  7  1  0  0  0  0
  4  6  1  0  0  0  0
  4  7  1  0  0  0  0
  5  8  1  0  0  0  0
  6  8  1  0  0  0  0
  8 11  1  0  0  0  0
  9 11  1  0  0  0  0
 10 12  1  0  0  0  0
 12 16  1  0  0  0  0
 14 15  1  0  0  0  0
  3 17  1  0  0  0  0
  3 18  1  0  0  0  0
  4 19  1  0  0  0  0
  4 20  1  0  0  0  0
  5 21  1  0  0  0  0
  5 22  1  0  0  0  0
  6 23  1  0  0  0  0
  6 24  1  0  0  0  0
  7 25  1  0  0  0  0
  8 26  1  0  0  0  0
  9 27  1  0  0  0  0
  9 28  1  0  0  0  0
  9 29  1  0  0  0  0
 10 30  1  0  0  0  0
 10 31  1  0  0  0  0
 10 32  1  0  0  0  0
 11 33  1  0  0  0  0
 11 34  1  0  0  0  0
 12 35  1  0  0  0  0
 15 36  1  0  0  0  0
 16 37  1  0  0  0  0
 16 38  1  0  0  0  0
M  END
> <FRED Chemgauss4 score>
-10.261309

$$$$
C51995896	P77859556
  -OEChem-05122015313D

 40 41  0     1  0  0  0  0  0999 V2000
  124.1728  104.8457  108.1862 C   0  0  0  0  0  0  0  0  0  0  0  0
  125.3724  105.2949  108.6929 C   0  0  0  0  0  0  0  0  0  0  0  0
  124.8100  106.3745  106.5556 C   0  0  0  0  0  0  0  0  0  0  0  0
  123.8469  105.4709  106.9480 C   0  0  0  0  0  0  0  0  0  0  0  0
  122.6240  105.2095  106.1460 C   0  0  0  0  0  0  0  0  0  0  0  0
  118.3570  103.4692  105.6561 C   0  0  0  0  0  0  0  0  0  0  0  0
  116.7446  106.6394  102.9734 C   0  0  0  0  0  0  0  0  0  0  0  0
  115.5177  107.0551  103.7819 C   0  0  0  0  0  0  0  0  0  0  0  0
  116.7880  105.1283  102.7336 C   0  0  0  0  0  0  0  0  0  0  0  0
  115.3959  106.2652  105.0814 C   0  0  0  0  0  0  0  0  0  0  0  0
  116.6743  104.3302  104.0372 C   0  0  2  0  0  0  0  0  0  0  0  0
  115.4260  104.7584  104.8214 C   0  0  1  0  0  0  0  0  0  0  0  0
  119.6329  103.8922  106.3617 C   0  0  0  0  0  0  0  0  0  0  0  0
  120.8828  103.5395  105.5670 C   0  0  0  0  0  0  0  0  0  0  0  0
  122.0573  103.9522  106.2958 N   0  0  0  0  0  0  0  0  0  0  0  0
  117.8780  104.4727  104.8295 N   0  0  0  0  0  0  0  0  0  0  0  0
  122.1994  106.0852  105.3967 O   0  0  0  0  0  0  0  0  0  0  0  0
  117.8350  102.3689  105.8134 O   0  0  0  0  0  0  0  0  0  0  0  0
  115.3625  104.0455  106.0522 O   0  0  0  0  0  0  0  0  0  0  0  0
  126.1004  106.4660  107.6775 S   0  0  0  0  0  0  0  0  0  0  0  0
  123.5615  104.1037  108.6846 H   0  0  0  0  0  0  0  0  0  0  0  0
  125.8548  104.9917  109.6113 H   0  0  0  0  0  0  0  0  0  0  0  0
  124.8239  106.9883  105.6655 H   0  0  0  0  0  0  0  0  0  0  0  0
  116.7432  107.1626  102.0104 H   0  0  0  0  0  0  0  0  0  0  0  0
  117.6525  106.9548  103.5020 H   0  0  0  0  0  0  0  0  0  0  0  0
  115.5683  108.1268  104.0047 H   0  0  0  0  0  0  0  0  0  0  0  0
  114.6161  106.8982  103.1772 H   0  0  0  0  0  0  0  0  0  0  0  0
  115.9585  104.8506  102.0707 H   0  0  0  0  0  0  0  0  0  0  0  0
  117.7152  104.8717  102.2072 H   0  0  0  0  0  0  0  0  0  0  0  0
  116.2034  106.5453  105.7699 H   0  0  0  0  0  0  0  0  0  0  0  0
  114.4651  106.5330  105.5963 H   0  0  0  0  0  0  0  0  0  0  0  0
  116.6102  103.2605  103.8083 H   0  0  0  0  0  0  0  0  0  0  0  0
  114.5346  104.4818  104.2438 H   0  0  0  0  0  0  0  0  0  0  0  0
  119.5898  104.9749  106.5336 H   0  0  0  0  0  0  0  0  0  0  0  0
  119.6623  103.4049  107.3443 H   0  0  0  0  0  0  0  0  0  0  0  0
  120.8703  104.0351  104.5902 H   0  0  0  0  0  0  0  0  0  0  0  0
  120.9309  102.4607  105.3841 H   0  0  0  0  0  0  0  0  0  0  0  0
  122.5034  103.2582  106.8888 H   0  0  0  0  0  0  0  0  0  0  0  0
  118.3929  105.3452  104.7770 H   0  0  0  0  0  0  0  0  0  0  0  0
  114.5291  104.3007  106.4782 H   0  0  0  0  0  0  0  0  0  0  0  0
  1  2  2  0  0  0  0
  1  4  1  0  0  0  0
  2 20  1  0  0  0  0
  3  4  2  0  0  0  0
  3 20  1  0  0  0  0
  4  5  1  0  0  0  0
  5 15  1  0  0  0  0
  5 17  2  0  0  0  0
  6 13  1  0  0  0  0
  6 16  1  0  0  0  0
  6 18  2  0  0  0  0
  7  8  1  0  0  0  0
  7  9  1  0  0  0  0
  8 10  1  0  0  0  0
  9 11  1  0  0  0  0
 10 12  1  0  0  0  0
 11 12  1  0  0  0  0
 11 16  1  0  0  0  0
 12 19  1  0  0  0  0
 13 14  1  0  0  0  0
 14 15  1  0  0  0  0
  1 21  1  0  0  0  0
  2 22  1  0  0  0  0
  3 23  1  0  0  0  0
  7 24  1  0  0  0  0
  7 25  1  0  0  0  0
  8 26  1  0  0  0  0
  8 27  1  0  0  0  0
  9 28  1  0  0  0  0
  9 29  1  0  0  0  0
 10 30  1  0  0  0  0
 10 31  1  0  0  0  0
 11 32  1  0  0  0  0
 12 33  1  0  0  0  0
 13 34  1  0  0  0  0
 13 35  1  0  0  0  0
 14 36  1  0  0  0  0
 14 37  1  0  0  0  0
 15 38  1  0  0  0  0
 16 39  1  0  0  0  0
 19 40  1  0  0  0  0
M  END
> <FRED Chemgauss4 score>
-10.254063

$$$$
C84057466	P131528030
  -OEChem-05122015313D

 28 29  0     1  0  0  0  0  0999 V2000
  124.5137  106.2509  107.1287 C   0  0  0  0  0  0  0  0  0  0  0  0
  124.5618  107.3615  106.3190 C   0  0  0  0  0  0  0  0  0  0  0  0
  122.8904  106.2336  105.6480 C   0  0  0  0  0  0  0  0  0  0  0  0
  125.4390  105.9865  108.1830 C   0  0  0  0  0  0  0  0  0  0  0  0
  126.4113  108.1386  107.4236 C   0  0  0  0  0  0  0  0  0  0  0  0
  119.8666  103.8704  104.8807 C   0  0  0  0  0  0  0  0  0  0  0  0
  121.6989  105.7356  104.9352 C   0  0  2  0  0  0  0  0  0  0  0  0
  121.1472  104.3946  105.5271 C   0  0  1  0  0  0  0  0  0  0  0  0
  123.5482  107.3467  105.3974 N   0  0  0  0  0  0  0  0  0  0  0  0
  125.5460  108.3564  106.4596 N   0  0  0  0  0  0  0  0  0  0  0  0
  123.4391  105.5335  106.6909 N   0  0  0  0  0  0  0  0  0  0  0  0
  126.3814  107.0108  108.2631 N   0  0  0  0  0  0  0  0  0  0  0  0
  127.4288  109.0217  107.6810 N   0  0  0  0  0  0  0  0  0  0  0  0
  121.9457  105.5835  103.4796 N   0  0  0  0  0  0  0  0  0  0  0  0
  125.4173  105.0056  108.9182 O   0  0  0  0  0  0  0  0  0  0  0  0
  120.8671  104.5991  106.9162 O   0  0  0  0  0  0  0  0  0  0  0  0
  119.0622  104.6107  104.9086 H   0  0  0  0  0  0  0  0  0  0  0  0
  119.5223  102.9568  105.3779 H   0  0  0  0  0  0  0  0  0  0  0  0
  120.0499  103.6069  103.8330 H   0  0  0  0  0  0  0  0  0  0  0  0
  120.8652  106.4697  105.0166 H   0  0  0  0  0  0  0  0  0  0  0  0
  121.9120  103.6117  105.4686 H   0  0  0  0  0  0  0  0  0  0  0  0
  123.1099  104.6524  107.0638 H   0  0  0  0  0  0  0  0  0  0  0  0
  127.0980  106.9372  108.9795 H   0  0  0  0  0  0  0  0  0  0  0  0
  127.4974  109.8366  107.1174 H   0  0  0  0  0  0  0  0  0  0  0  0
  128.0573  108.8118  108.4209 H   0  0  0  0  0  0  0  0  0  0  0  0
  122.5233  106.2592  103.0530 H   0  0  0  0  0  0  0  0  0  0  0  0
  121.3660  104.9512  102.9935 H   0  0  0  0  0  0  0  0  0  0  0  0
  120.6079  103.7358  107.2689 H   0  0  0  0  0  0  0  0  0  0  0  0
  1  2  2  0  0  0  0
  1  4  1  0  0  0  0
  1 11  1  0  0  0  0
  2  9  1  0  0  0  0
  2 10  1  0  0  0  0
  3  7  1  0  0  0  0
  3  9  2  0  0  0  0
  3 11  1  0  0  0  0
  4 12  1  0  0  0  0
  4 15  2  0  0  0  0
  5 10  2  0  0  0  0
  5 12  1  0  0  0  0
  5 13  1  0  0  0  0
  6  8  1  0  0  0  0
  7  8  1  0  0  0  0
  7 14  1  0  0  0  0
  8 16  1  0  0  0  0
  6 17  1  0  0  0  0
  6 18  1  0  0  0  0
  6 19  1  0  0  0  0
  7 20  1  0  0  0  0
  8 21  1  0  0  0  0
 11 22  1  0  0  0  0
 12 23  1  0  0  0  0
 13 24  1  0  0  0  0
 13 25  1  0  0  0  0
 14 26  1  0  0  0  0
 14 27  1  0  0  0  0
 16 28  1  0  0  0  0
M  END
> <FRED Chemgauss4 score>
-10.253353

$$$$
C09058745	P13901058
  -OEChem-05122015313D

 38 41  0     1  0  0  0  0  0999 V2000
  124.8916  107.8007  108.7868 C   0  0  0  0  0  0  0  0  0  0  0  0
  124.2157  108.8020  108.1024 C   0  0  0  0  0  0  0  0  0  0  0  0
  118.6544  106.6439  106.4636 C   0  0  0  0  0  0  0  0  0  0  0  0
  117.9514  107.4423  104.2944 C   0  0  0  0  0  0  0  0  0  0  0  0
  124.7772  106.4762  108.3671 C   0  0  0  0  0  0  0  0  0  0  0  0
  123.4281  108.4762  106.9993 C   0  0  0  0  0  0  0  0  0  0  0  0
  117.9501  107.6817  107.0739 C   0  0  0  0  0  0  0  0  0  0  0  0
  117.2470  108.4801  104.9047 C   0  0  0  0  0  0  0  0  0  0  0  0
  118.6551  106.5242  105.0739 C   0  0  0  0  0  0  0  0  0  0  0  0
  123.9791  106.1260  107.2645 C   0  0  0  0  0  0  0  0  0  0  0  0
  123.2920  107.1460  106.5665 C   0  0  0  0  0  0  0  0  0  0  0  0
  117.2464  108.5998  106.2945 C   0  0  0  0  0  0  0  0  0  0  0  0
  122.8451  104.1919  106.5677 C   0  0  0  0  0  0  0  0  0  0  0  0
  121.6639  105.9482  105.3510 C   0  0  0  0  0  0  0  0  0  0  0  0
  120.3544  103.9510  106.3187 C   0  0  0  0  0  0  0  0  0  0  0  0
  120.8666  105.7820  104.0822 C   0  0  0  0  0  0  0  0  0  0  0  0
  119.4280  104.0339  105.1228 C   0  0  0  0  0  0  0  0  0  0  0  0
  119.4234  105.3892  104.4066 C   0  0  1  0  0  0  0  0  0  0  0  0
  121.5238  104.9083  106.4397 C   0  0  1  0  0  0  0  0  0  0  0  0
  123.9562  104.7590  106.9177 N   0  0  0  0  0  0  0  0  0  0  0  0
  122.4965  106.9410  105.4208 N   0  0  0  0  0  0  0  0  0  0  0  0
  120.1820  103.0686  107.1651 O   0  0  0  0  0  0  0  0  0  0  0  0
  116.3774  109.8799  107.0475 Cl  0  0  0  0  0  0  0  0  0  0  0  0
  125.5117  108.0482  109.6435 H   0  0  0  0  0  0  0  0  0  0  0  0
  124.3034  109.8363  108.4220 H   0  0  0  0  0  0  0  0  0  0  0  0
  119.2004  105.9327  107.0778 H   0  0  0  0  0  0  0  0  0  0  0  0
  117.9467  107.3559  103.2111 H   0  0  0  0  0  0  0  0  0  0  0  0
  125.3200  105.7059  108.9111 H   0  0  0  0  0  0  0  0  0  0  0  0
  122.9123  109.2747  106.4705 H   0  0  0  0  0  0  0  0  0  0  0  0
  117.9583  107.7622  108.1579 H   0  0  0  0  0  0  0  0  0  0  0  0
  116.7033  109.1881  104.2846 H   0  0  0  0  0  0  0  0  0  0  0  0
  122.8744  103.1247  106.3029 H   0  0  0  0  0  0  0  0  0  0  0  0
  120.9042  106.7277  103.5341 H   0  0  0  0  0  0  0  0  0  0  0  0
  121.3405  105.0177  103.4608 H   0  0  0  0  0  0  0  0  0  0  0  0
  119.7259  103.2327  104.4084 H   0  0  0  0  0  0  0  0  0  0  0  0
  118.4053  103.7579  105.4687 H   0  0  0  0  0  0  0  0  0  0  0  0
  118.9034  105.2332  103.3860 H   0  0  0  0  0  0  0  0  0  0  0  0
  121.3342  105.4651  107.3765 H   0  0  0  0  0  0  0  0  0  0  0  0
  1  2  1  0  0  0  0
  1  5  2  0  0  0  0
  2  6  2  0  0  0  0
  3  7  2  0  0  0  0
  3  9  1  0  0  0  0
  4  8  1  0  0  0  0
  4  9  2  0  0  0  0
  5 10  1  0  0  0  0
  6 11  1  0  0  0  0
  7 12  1  0  0  0  0
  8 12  2  0  0  0  0
  9 18  1  0  0  0  0
 10 11  2  0  0  0  0
 10 20  1  0  0  0  0
 11 21  1  0  0  0  0
 12 23  1  0  0  0  0
 13 19  1  0  0  0  0
 13 20  2  0  0  0  0
 14 16  1  0  0  0  0
 14 19  1  0  0  0  0
 14 21  2  0  0  0  0
 15 17  1  0  0  0  0
 15 19  1  0  0  0  0
 15 22  2  0  0  0  0
 16 18  1  0  0  0  0
 17 18  1  0  0  0  0
  1 24  1  0  0  0  0
  2 25  1  0  0  0  0
  3 26  1  0  0  0  0
  4 27  1  0  0  0  0
  5 28  1  0  0  0  0
  6 29  1  0  0  0  0
  7 30  1  0  0  0  0
  8 31  1  0  0  0  0
 13 32  1  0  0  0  0
 16 33  1  0  0  0  0
 16 34  1  0  0  0  0
 17 35  1  0  0  0  0
 17 36  1  0  0  0  0
 18 37  1  0  0  0  0
 19 38  1  0  0  0  0
M  END
> <FRED Chemgauss4 score>
-10.247415

$$$$
C42443275	P64209734
  -OEChem-05122015313D

 37 38  0     1  0  0  0  0  0999 V2000
  124.5943  107.1507  108.6792 C   0  0  0  0  0  0  0  0  0  0  0  0
  125.6234  105.7039  107.3820 C   0  0  0  0  0  0  0  0  0  0  0  0
  125.8643  106.7851  108.1940 C   0  0  0  0  0  0  0  0  0  0  0  0
  118.0726  105.1904  106.8407 C   0  0  0  0  0  0  0  0  0  0  0  0
  118.9905  104.0374  106.4128 C   0  0  0  0  0  0  0  0  0  0  0  0
  119.5361  104.1606  104.0153 C   0  0  0  0  0  0  0  0  0  0  0  0
  116.9630  105.5844  105.8702 C   0  0  0  0  0  0  0  0  0  0  0  0
  118.0990  104.4995  103.6135 C   0  0  0  0  0  0  0  0  0  0  0  0
  123.5333  104.4516  106.7209 C   0  0  0  0  0  0  0  0  0  0  0  0
  121.2820  103.9273  105.6445 C   0  0  0  0  0  0  0  0  0  0  0  0
  122.0191  104.6946  106.7476 C   0  0  1  0  0  0  0  0  0  0  0  0
  123.6190  106.3655  108.2141 N   0  0  0  0  0  0  0  0  0  0  0  0
  124.2763  105.4959  107.4281 N   0  0  0  0  0  0  0  0  0  0  0  0
  119.9469  104.4729  105.3909 N   0  0  2  0  0  0  0  0  0  0  0  0
  127.0516  107.3608  108.4608 N   0  0  0  0  0  0  0  0  0  0  0  0
  121.5165  104.2439  108.0078 O   0  0  0  0  0  0  0  0  0  0  0  0
  117.5308  106.1109  104.2258 S   0  0  0  0  0  0  0  0  0  0  0  0
  124.3351  107.9553  109.3529 H   0  0  0  0  0  0  0  0  0  0  0  0
  126.2784  105.0799  106.7890 H   0  0  0  0  0  0  0  0  0  0  0  0
  117.5928  104.8988  107.7845 H   0  0  0  0  0  0  0  0  0  0  0  0
  118.6802  106.0732  107.0820 H   0  0  0  0  0  0  0  0  0  0  0  0
  119.5287  103.7309  107.3202 H   0  0  0  0  0  0  0  0  0  0  0  0
  118.4149  103.1566  106.1024 H   0  0  0  0  0  0  0  0  0  0  0  0
  119.6898  103.0931  103.8050 H   0  0  0  0  0  0  0  0  0  0  0  0
  120.2067  104.7035  103.3352 H   0  0  0  0  0  0  0  0  0  0  0  0
  116.2497  104.7612  105.7525 H   0  0  0  0  0  0  0  0  0  0  0  0
  116.4020  106.4212  106.3006 H   0  0  0  0  0  0  0  0  0  0  0  0
  118.0353  104.5200  102.5199 H   0  0  0  0  0  0  0  0  0  0  0  0
  117.4060  103.7197  103.9472 H   0  0  0  0  0  0  0  0  0  0  0  0
  123.9098  104.4249  105.6910 H   0  0  0  0  0  0  0  0  0  0  0  0
  123.8036  103.5024  107.1976 H   0  0  0  0  0  0  0  0  0  0  0  0
  121.8681  103.9596  104.7184 H   0  0  0  0  0  0  0  0  0  0  0  0
  121.2009  102.8681  105.9157 H   0  0  0  0  0  0  0  0  0  0  0  0
  121.7995  105.7666  106.6724 H   0  0  0  0  0  0  0  0  0  0  0  0
  127.1359  108.2051  109.0496 H   0  0  0  0  0  0  0  0  0  0  0  0
  127.9294  107.0468  108.0162 H   0  0  0  0  0  0  0  0  0  0  0  0
  121.9732  104.7649  108.6846 H   0  0  0  0  0  0  0  0  0  0  0  0
  1  3  1  0  0  0  0
  1 12  2  0  0  0  0
  2  3  2  0  0  0  0
  2 13  1  0  0  0  0
  3 15  1  0  0  0  0
  4  5  1  0  0  0  0
  4  7  1  0  0  0  0
  5 14  1  0  0  0  0
  6  8  1  0  0  0  0
  6 14  1  0  0  0  0
  7 17  1  0  0  0  0
  8 17  1  0  0  0  0
  9 11  1  0  0  0  0
  9 13  1  0  0  0  0
 10 11  1  0  0  0  0
 10 14  1  0  0  0  0
 11 16  1  0  0  0  0
 12 13  1  0  0  0  0
  1 18  1  0  0  0  0
  2 19  1  0  0  0  0
  4 20  1  0  0  0  0
  4 21  1  0  0  0  0
  5 22  1  0  0  0  0
  5 23  1  0  0  0  0
  6 24  1  0  0  0  0
  6 25  1  0  0  0  0
  7 26  1  0  0  0  0
  7 27  1  0  0  0  0
  8 28  1  0  0  0  0
  8 29  1  0  0  0  0
  9 30  1  0  0  0  0
  9 31  1  0  0  0  0
 10 32  1  0  0  0  0
 10 33  1  0  0  0  0
 11 34  1  0  0  0  0
 15 35  1  0  0  0  0
 15 36  1  0  0  0  0
 16 37  1  0  0  0  0
M  END
> <FRED Chemgauss4 score>
-10.243963

$$$$
C83628635	P130811035
  -OEChem-05122015313D

 40 42  0     1  0  0  0  0  0999 V2000
  124.1238  103.5146  107.9256 C   0  0  0  0  0  0  0  0  0  0  0  0
  122.8766  103.5943  107.3078 C   0  0  0  0  0  0  0  0  0  0  0  0
  123.2545  105.9340  106.8497 C   0  0  0  0  0  0  0  0  0  0  0  0
  124.9438  104.6479  108.0201 C   0  0  0  0  0  0  0  0  0  0  0  0
  124.5106  105.8710  107.4746 C   0  0  0  0  0  0  0  0  0  0  0  0
  122.4425  104.8026  106.7696 C   0  0  0  0  0  0  0  0  0  0  0  0
  124.1040  107.6340  109.6963 C   0  0  0  0  0  0  0  0  0  0  0  0
  123.5798  108.4695  110.6031 C   0  0  0  0  0  0  0  0  0  0  0  0
  124.9613  109.4526  108.3838 C   0  0  0  0  0  0  0  0  0  0  0  0
  124.8233  108.1273  108.5386 C   0  0  0  0  0  0  0  0  0  0  0  0
  123.7365  109.9419  110.4259 C   0  0  0  0  0  0  0  0  0  0  0  0
  126.3131  104.5262  108.6369 C   0  0  0  0  0  0  0  0  0  0  0  0
  126.9236  105.8824  108.9843 C   0  0  0  0  0  0  0  0  0  0  0  0
  125.3766  107.1165  107.5719 C   0  0  1  0  0  0  0  0  0  0  0  0
  118.7340  104.0070  106.0493 C   0  0  0  0  0  0  0  0  0  0  0  0
  121.1102  104.8868  106.1048 C   0  0  0  0  0  0  0  0  0  0  0  0
  120.1013  103.8958  106.7051 C   0  0  0  0  0  0  0  0  0  0  0  0
  124.4359  110.3338  109.2964 N   0  0  0  0  0  0  0  0  0  0  0  0
  126.7932  106.8177  107.8645 N   0  0  0  0  0  0  0  0  0  0  0  0
  123.2625  110.7205  111.2491 O   0  0  0  0  0  0  0  0  0  0  0  0
  124.4571  102.5618  108.3292 H   0  0  0  0  0  0  0  0  0  0  0  0
  122.2530  102.7064  107.2460 H   0  0  0  0  0  0  0  0  0  0  0  0
  122.9090  106.8738  106.4239 H   0  0  0  0  0  0  0  0  0  0  0  0
  123.9939  106.5613  109.8189 H   0  0  0  0  0  0  0  0  0  0  0  0
  123.0400  108.1092  111.4705 H   0  0  0  0  0  0  0  0  0  0  0  0
  125.4837  109.9011  107.5477 H   0  0  0  0  0  0  0  0  0  0  0  0
  126.2602  103.9170  109.5470 H   0  0  0  0  0  0  0  0  0  0  0  0
  126.9626  104.0049  107.9221 H   0  0  0  0  0  0  0  0  0  0  0  0
  126.4578  106.2948  109.8879 H   0  0  0  0  0  0  0  0  0  0  0  0
  127.9859  105.7455  109.2157 H   0  0  0  0  0  0  0  0  0  0  0  0
  125.3789  107.5901  106.5820 H   0  0  0  0  0  0  0  0  0  0  0  0
  118.3333  105.0210  106.1473 H   0  0  0  0  0  0  0  0  0  0  0  0
  118.7885  103.7595  104.9844 H   0  0  0  0  0  0  0  0  0  0  0  0
  118.0292  103.3164  106.5229 H   0  0  0  0  0  0  0  0  0  0  0  0
  120.7019  105.9089  106.1841 H   0  0  0  0  0  0  0  0  0  0  0  0
  121.2042  104.6936  105.0225 H   0  0  0  0  0  0  0  0  0  0  0  0
  120.4726  102.8703  106.5890 H   0  0  0  0  0  0  0  0  0  0  0  0
  119.9984  104.0755  107.7821 H   0  0  0  0  0  0  0  0  0  0  0  0
  124.5744  111.3254  109.1251 H   0  0  0  0  0  0  0  0  0  0  0  0
  127.2993  107.6795  108.0651 H   0  0  0  0  0  0  0  0  0  0  0  0
  1  2  2  0  0  0  0
  1  4  1  0  0  0  0
  2  6  1  0  0  0  0
  3  5  1  0  0  0  0
  3  6  2  0  0  0  0
  4  5  2  0  0  0  0
  4 12  1  0  0  0  0
  5 14  1  0  0  0  0
  6 16  1  0  0  0  0
  7  8  2  0  0  0  0
  7 10  1  0  0  0  0
  8 11  1  0  0  0  0
  9 10  2  0  0  0  0
  9 18  1  0  0  0  0
 10 14  1  0  0  0  0
 11 18  1  0  0  0  0
 11 20  2  0  0  0  0
 12 13  1  0  0  0  0
 13 19  1  0  0  0  0
 14 19  1  0  0  0  0
 15 17  1  0  0  0  0
 16 17  1  0  0  0  0
  1 21  1  0  0  0  0
  2 22  1  0  0  0  0
  3 23  1  0  0  0  0
  7 24  1  0  0  0  0
  8 25  1  0  0  0  0
  9 26  1  0  0  0  0
 12 27  1  0  0  0  0
 12 28  1  0  0  0  0
 13 29  1  0  0  0  0
 13 30  1  0  0  0  0
 14 31  1  0  0  0  0
 15 32  1  0  0  0  0
 15 33  1  0  0  0  0
 15 34  1  0  0  0  0
 16 35  1  0  0  0  0
 16 36  1  0  0  0  0
 17 37  1  0  0  0  0
 17 38  1  0  0  0  0
 18 39  1  0  0  0  0
 19 40  1  0  0  0  0
M  END
> <FRED Chemgauss4 score>
-10.242501

$$$$
C50673182	P75791398
  -OEChem-05122015313D

 33 34  0     0  0  0  0  0  0999 V2000
  126.2111  105.1836  107.7176 C   0  0  0  0  0  0  0  0  0  0  0  0
  124.4159  103.6478  107.4434 C   0  0  0  0  0  0  0  0  0  0  0  0
  123.8405  110.0698  112.4820 C   0  0  0  0  0  0  0  0  0  0  0  0
  125.3924  106.1848  107.2072 C   0  0  0  0  0  0  0  0  0  0  0  0
  125.7212  103.8882  107.8411 C   0  0  0  0  0  0  0  0  0  0  0  0
  124.0952  111.2155  111.7577 C   0  0  0  0  0  0  0  0  0  0  0  0
  124.1019  105.8416  106.8377 C   0  0  0  0  0  0  0  0  0  0  0  0
  124.1792  109.7626  110.1170 C   0  0  0  0  0  0  0  0  0  0  0  0
  124.1745  112.5833  112.3075 C   0  0  0  0  0  0  0  0  0  0  0  0
  121.9148  106.5997  105.9062 C   0  0  0  0  0  0  0  0  0  0  0  0
  124.3278  109.1827  108.7401 C   0  0  0  0  0  0  0  0  0  0  0  0
  123.5907  104.5945  106.9431 N   0  0  0  0  0  0  0  0  0  0  0  0
  124.2901  111.0412  110.4015 N   0  0  0  0  0  0  0  0  0  0  0  0
  123.2577  106.8529  106.3162 N   0  0  0  0  0  0  0  0  0  0  0  0
  125.6175  108.4989  108.5674 N   0  0  0  0  0  0  0  0  0  0  0  0
  127.4710  107.7410  106.9468 O   0  0  0  0  0  0  0  0  0  0  0  0
  125.2557  108.4847  106.0176 O   0  0  0  0  0  0  0  0  0  0  0  0
  123.8408  108.7136  111.4323 S   0  0  0  0  0  0  0  0  0  0  0  0
  126.0198  107.8084  107.0569 S   0  0  0  0  0  0  0  0  0  0  0  0
  126.7975  102.5038  108.5281 Br  0  0  0  0  0  0  0  0  0  0  0  0
  127.2301  105.4163  108.0179 H   0  0  0  0  0  0  0  0  0  0  0  0
  123.9729  102.6589  107.5142 H   0  0  0  0  0  0  0  0  0  0  0  0
  123.6591  109.9644  113.5424 H   0  0  0  0  0  0  0  0  0  0  0  0
  125.2041  112.8283  112.6156 H   0  0  0  0  0  0  0  0  0  0  0  0
  123.8541  113.3429  111.5744 H   0  0  0  0  0  0  0  0  0  0  0  0
  123.5211  112.7139  113.1871 H   0  0  0  0  0  0  0  0  0  0  0  0
  121.6676  105.5460  106.0594 H   0  0  0  0  0  0  0  0  0  0  0  0
  121.7914  106.8397  104.8466 H   0  0  0  0  0  0  0  0  0  0  0  0
  121.2203  107.2122  106.4874 H   0  0  0  0  0  0  0  0  0  0  0  0
  123.5319  108.4574  108.5387 H   0  0  0  0  0  0  0  0  0  0  0  0
  124.2577  109.9633  107.9753 H   0  0  0  0  0  0  0  0  0  0  0  0
  123.6489  107.7699  106.2442 H   0  0  0  0  0  0  0  0  0  0  0  0
  126.3761  108.8042  109.1892 H   0  0  0  0  0  0  0  0  0  0  0  0
  1  4  1  0  0  0  0
  1  5  2  0  0  0  0
  2  5  1  0  0  0  0
  2 12  2  0  0  0  0
  3  6  2  0  0  0  0
  3 18  1  0  0  0  0
  4  7  2  0  0  0  0
  4 19  1  0  0  0  0
  5 20  1  0  0  0  0
  6  9  1  0  0  0  0
  6 13  1  0  0  0  0
  7 12  1  0  0  0  0
  7 14  1  0  0  0  0
  8 11  1  0  0  0  0
  8 13  2  0  0  0  0
  8 18  1  0  0  0  0
 10 14  1  0  0  0  0
 11 15  1  0  0  0  0
 15 19  1  0  0  0  0
 16 19  2  0  0  0  0
 17 19  2  0  0  0  0
  1 21  1  0  0  0  0
  2 22  1  0  0  0  0
  3 23  1  0  0  0  0
  9 24  1  0  0  0  0
  9 25  1  0  0  0  0
  9 26  1  0  0  0  0
 10 27  1  0  0  0  0
 10 28  1  0  0  0  0
 10 29  1  0  0  0  0
 11 30  1  0  0  0  0
 11 31  1  0  0  0  0
 14 32  1  0  0  0  0
 15 33  1  0  0  0  0
M  END
> <FRED Chemgauss4 score>
-10.240708

$$$$
C89197721	P139498389
  -OEChem-05122015313D

 46 48  0     1  0  0  0  0  0999 V2000
  124.9430  105.3626  107.7871 C   0  0  0  0  0  0  0  0  0  0  0  0
  123.9674  104.7586  106.9940 C   0  0  0  0  0  0  0  0  0  0  0  0
  124.5711  106.2632  108.7853 C   0  0  0  0  0  0  0  0  0  0  0  0
  122.2481  105.9559  108.1971 C   0  0  0  0  0  0  0  0  0  0  0  0
  122.6200  105.0552  107.1990 C   0  0  0  0  0  0  0  0  0  0  0  0
  123.2237  106.5599  108.9902 C   0  0  0  0  0  0  0  0  0  0  0  0
  118.4458  104.6291  105.4210 C   0  0  0  0  0  0  0  0  0  0  0  0
  117.1936  104.4230  104.8810 C   0  0  0  0  0  0  0  0  0  0  0  0
  118.1910  106.5686  104.4294 C   0  0  0  0  0  0  0  0  0  0  0  0
  121.6040  104.4247  106.3714 C   0  0  0  0  0  0  0  0  0  0  0  0
  123.6814  108.1597  110.8758 C   0  0  0  0  0  0  0  0  0  0  0  0
  123.1591  111.2731  111.1052 C   0  0  0  0  0  0  0  0  0  0  0  0
  122.1601  110.1414  111.0702 C   0  0  0  0  0  0  0  0  0  0  0  0
  123.8217  111.0655  112.4482 C   0  0  0  0  0  0  0  0  0  0  0  0
  122.8932  109.0328  111.8012 C   0  0  2  0  0  0  0  0  0  0  0  0
  116.3074  103.2440  104.9559 C   0  0  0  0  0  0  0  0  0  0  0  0
  118.4622  107.9422  103.9522 C   0  0  0  0  0  0  0  0  0  0  0  0
  119.2242  103.6461  106.2469 C   0  0  0  0  0  0  0  0  0  0  0  0
  119.0195  105.8587  105.1627 N   0  0  0  0  0  0  0  0  0  0  0  0
  122.8466  107.4733  110.0031 N   0  0  0  0  0  0  0  0  0  0  0  0
  120.3309  104.2730  106.9332 N   0  0  0  0  0  0  0  0  0  0  0  0
  121.8805  104.0263  105.2259 O   0  0  0  0  0  0  0  0  0  0  0  0
  124.9055  108.1164  110.9434 O   0  0  0  0  0  0  0  0  0  0  0  0
  123.8395  109.6502  112.6782 O   0  0  0  0  0  0  0  0  0  0  0  0
  116.7039  105.8195  104.0143 S   0  0  0  0  0  0  0  0  0  0  0  0
  125.9922  105.1315  107.6279 H   0  0  0  0  0  0  0  0  0  0  0  0
  124.2693  104.0593  106.2187 H   0  0  0  0  0  0  0  0  0  0  0  0
  125.3400  106.7286  109.3972 H   0  0  0  0  0  0  0  0  0  0  0  0
  121.1970  106.1881  108.3563 H   0  0  0  0  0  0  0  0  0  0  0  0
  123.8931  111.1476  110.3003 H   0  0  0  0  0  0  0  0  0  0  0  0
  122.7050  112.2619  111.0015 H   0  0  0  0  0  0  0  0  0  0  0  0
  121.2662  110.4289  111.6365 H   0  0  0  0  0  0  0  0  0  0  0  0
  121.8499  109.8770  110.0550 H   0  0  0  0  0  0  0  0  0  0  0  0
  124.8421  111.4574  112.4801 H   0  0  0  0  0  0  0  0  0  0  0  0
  123.2418  111.5296  113.2535 H   0  0  0  0  0  0  0  0  0  0  0  0
  122.2139  108.3977  112.3807 H   0  0  0  0  0  0  0  0  0  0  0  0
  115.6391  103.3052  105.8300 H   0  0  0  0  0  0  0  0  0  0  0  0
  115.6761  103.1439  104.0569 H   0  0  0  0  0  0  0  0  0  0  0  0
  116.8779  102.3029  105.0346 H   0  0  0  0  0  0  0  0  0  0  0  0
  118.9633  107.9272  102.9718 H   0  0  0  0  0  0  0  0  0  0  0  0
  117.5365  108.5315  103.8494 H   0  0  0  0  0  0  0  0  0  0  0  0
  119.1057  108.5004  104.6520 H   0  0  0  0  0  0  0  0  0  0  0  0
  118.5804  103.1799  107.0006 H   0  0  0  0  0  0  0  0  0  0  0  0
  119.6291  102.8424  105.6230 H   0  0  0  0  0  0  0  0  0  0  0  0
  121.8460  107.6379  110.0911 H   0  0  0  0  0  0  0  0  0  0  0  0
  120.1757  104.5584  107.8945 H   0  0  0  0  0  0  0  0  0  0  0  0
  1  2  2  0  0  0  0
  1  3  1  0  0  0  0
  2  5  1  0  0  0  0
  3  6  2  0  0  0  0
  4  5  2  0  0  0  0
  4  6  1  0  0  0  0
  5 10  1  0  0  0  0
  6 20  1  0  0  0  0
  7  8  2  0  0  0  0
  7 18  1  0  0  0  0
  7 19  1  0  0  0  0
  8 16  1  0  0  0  0
  8 25  1  0  0  0  0
  9 17  1  0  0  0  0
  9 19  2  0  0  0  0
  9 25  1  0  0  0  0
 10 21  1  0  0  0  0
 10 22  2  0  0  0  0
 11 15  1  0  0  0  0
 11 20  1  0  0  0  0
 11 23  2  0  0  0  0
 12 13  1  0  0  0  0
 12 14  1  0  0  0  0
 13 15  1  0  0  0  0
 14 24  1  0  0  0  0
 15 24  1  0  0  0  0
 18 21  1  0  0  0  0
  1 26  1  0  0  0  0
  2 27  1  0  0  0  0
  3 28  1  0  0  0  0
  4 29  1  0  0  0  0
 12 30  1  0  0  0  0
 12 31  1  0  0  0  0
 13 32  1  0  0  0  0
 13 33  1  0  0  0  0
 14 34  1  0  0  0  0
 14 35  1  0  0  0  0
 15 36  1  0  0  0  0
 16 37  1  0  0  0  0
 16 38  1  0  0  0  0
 16 39  1  0  0  0  0
 17 40  1  0  0  0  0
 17 41  1  0  0  0  0
 17 42  1  0  0  0  0
 18 43  1  0  0  0  0
 18 44  1  0  0  0  0
 20 45  1  0  0  0  0
 21 46  1  0  0  0  0
M  END
> <FRED Chemgauss4 score>
-10.239505

$$$$
C54763106	P82433221
  -OEChem-05122015313D

 27 28  0     0  0  0  0  0  0999 V2000
  123.1000  105.7405  105.6899 C   0  0  0  0  0  0  0  0  0  0  0  0
  122.1776  106.4982  104.9685 C   0  0  0  0  0  0  0  0  0  0  0  0
  121.3377  105.0033  107.1691 C   0  0  0  0  0  0  0  0  0  0  0  0
  125.8945  105.7407  109.0419 C   0  0  0  0  0  0  0  0  0  0  0  0
  126.9707  107.0986  107.6800 C   0  0  0  0  0  0  0  0  0  0  0  0
  120.4153  105.7612  106.4477 C   0  0  0  0  0  0  0  0  0  0  0  0
  122.6801  104.9930  106.7902 C   0  0  0  0  0  0  0  0  0  0  0  0
  120.8352  106.5086  105.3474 C   0  0  0  0  0  0  0  0  0  0  0  0
  125.7586  105.3496  107.7308 C   0  0  0  0  0  0  0  0  0  0  0  0
  118.9879  105.7429  106.8910 C   0  0  0  0  0  0  0  0  0  0  0  0
  125.0030  104.1723  107.1857 C   0  0  0  0  0  0  0  0  0  0  0  0
  126.4311  106.1988  106.8880 N   0  0  0  0  0  0  0  0  0  0  0  0
  126.6738  106.8621  108.9935 N   0  0  0  0  0  0  0  0  0  0  0  0
  123.6134  104.2271  107.5195 N   0  0  0  0  0  0  0  0  0  0  0  0
  119.6184  107.5545  104.3363 Br  0  0  0  0  0  0  0  0  0  0  0  0
  124.1435  105.7378  105.3850 H   0  0  0  0  0  0  0  0  0  0  0  0
  122.5240  107.0725  104.1128 H   0  0  0  0  0  0  0  0  0  0  0  0
  121.0114  104.4209  108.0282 H   0  0  0  0  0  0  0  0  0  0  0  0
  125.5230  105.3400  109.9741 H   0  0  0  0  0  0  0  0  0  0  0  0
  127.5795  107.9363  107.3705 H   0  0  0  0  0  0  0  0  0  0  0  0
  118.8068  106.5427  107.6176 H   0  0  0  0  0  0  0  0  0  0  0  0
  118.3085  105.8805  106.0414 H   0  0  0  0  0  0  0  0  0  0  0  0
  118.7305  104.7829  107.3546 H   0  0  0  0  0  0  0  0  0  0  0  0
  125.0863  104.1317  106.0942 H   0  0  0  0  0  0  0  0  0  0  0  0
  125.4045  103.2319  107.5777 H   0  0  0  0  0  0  0  0  0  0  0  0
  126.9750  107.4163  109.7839 H   0  0  0  0  0  0  0  0  0  0  0  0
  123.2621  103.7065  108.3009 H   0  0  0  0  0  0  0  0  0  0  0  0
  1  2  2  0  0  0  0
  1  7  1  0  0  0  0
  2  8  1  0  0  0  0
  3  6  1  0  0  0  0
  3  7  2  0  0  0  0
  4  9  2  0  0  0  0
  4 13  1  0  0  0  0
  5 12  2  0  0  0  0
  5 13  1  0  0  0  0
  6  8  2  0  0  0  0
  6 10  1  0  0  0  0
  7 14  1  0  0  0  0
  8 15  1  0  0  0  0
  9 11  1  0  0  0  0
  9 12  1  0  0  0  0
 11 14  1  0  0  0  0
  1 16  1  0  0  0  0
  2 17  1  0  0  0  0
  3 18  1  0  0  0  0
  4 19  1  0  0  0  0
  5 20  1  0  0  0  0
 10 21  1  0  0  0  0
 10 22  1  0  0  0  0
 10 23  1  0  0  0  0
 11 24  1  0  0  0  0
 11 25  1  0  0  0  0
 13 26  1  0  0  0  0
 14 27  1  0  0  0  0
M  END
> <FRED Chemgauss4 score>
-10.236307

$$$$
C59378145	P90292321
  -OEChem-05122015313D

 39 43  0     0  0  0  0  0  0999 V2000
  125.1522  104.3103  107.0274 C   0  0  0  0  0  0  0  0  0  0  0  0
  118.2179  103.7839  106.7284 C   0  0  0  0  0  0  0  0  0  0  0  0
  119.7151  107.4368  103.9328 C   0  0  0  0  0  0  0  0  0  0  0  0
  116.9488  103.9197  106.1312 C   0  0  0  0  0  0  0  0  0  0  0  0
  118.4087  107.4979  103.4080 C   0  0  0  0  0  0  0  0  0  0  0  0
  123.8707  104.4268  106.4892 C   0  0  0  0  0  0  0  0  0  0  0  0
  125.5134  105.0705  108.1397 C   0  0  0  0  0  0  0  0  0  0  0  0
  119.0902  105.6010  105.3847 C   0  0  0  0  0  0  0  0  0  0  0  0
  117.8161  105.6985  104.8297 C   0  0  0  0  0  0  0  0  0  0  0  0
  119.2882  104.6251  106.3548 C   0  0  0  0  0  0  0  0  0  0  0  0
  120.0553  106.4877  104.9208 C   0  0  0  0  0  0  0  0  0  0  0  0
  116.7605  104.8988  105.1700 C   0  0  0  0  0  0  0  0  0  0  0  0
  117.4564  106.6060  103.8722 C   0  0  0  0  0  0  0  0  0  0  0  0
  123.3114  106.0640  108.1756 C   0  0  0  0  0  0  0  0  0  0  0  0
  122.9503  105.3037  107.0633 C   0  0  0  0  0  0  0  0  0  0  0  0
  124.5930  105.9474  108.7138 C   0  0  0  0  0  0  0  0  0  0  0  0
  120.6183  104.5301  106.9884 C   0  0  0  0  0  0  0  0  0  0  0  0
  121.4245  106.3748  105.4612 C   0  0  0  0  0  0  0  0  0  0  0  0
  115.5355  105.2625  104.3855 C   0  0  0  0  0  0  0  0  0  0  0  0
  116.0145  106.4448  103.4933 C   0  0  0  0  0  0  0  0  0  0  0  0
  122.3138  107.0021  108.7831 C   0  0  0  0  0  0  0  0  0  0  0  0
  121.6247  105.4061  106.4874 N   0  0  0  0  0  0  0  0  0  0  0  0
  120.7382  103.7531  107.9336 O   0  0  0  0  0  0  0  0  0  0  0  0
  122.2938  107.0744  104.9449 O   0  0  0  0  0  0  0  0  0  0  0  0
  125.0811  106.8699  110.0895 Cl  0  0  0  0  0  0  0  0  0  0  0  0
  125.8685  103.6273  106.5804 H   0  0  0  0  0  0  0  0  0  0  0  0
  118.3544  103.0180  107.4880 H   0  0  0  0  0  0  0  0  0  0  0  0
  120.4586  108.1353  103.5563 H   0  0  0  0  0  0  0  0  0  0  0  0
  116.1350  103.2660  106.4280 H   0  0  0  0  0  0  0  0  0  0  0  0
  118.1610  108.2324  102.6485 H   0  0  0  0  0  0  0  0  0  0  0  0
  123.6017  103.8281  105.6225 H   0  0  0  0  0  0  0  0  0  0  0  0
  126.5162  104.9675  108.5464 H   0  0  0  0  0  0  0  0  0  0  0  0
  115.1993  104.4230  103.7684 H   0  0  0  0  0  0  0  0  0  0  0  0
  114.7221  105.5789  105.0460 H   0  0  0  0  0  0  0  0  0  0  0  0
  115.4452  107.3530  103.7153 H   0  0  0  0  0  0  0  0  0  0  0  0
  115.9096  106.1982  102.4319 H   0  0  0  0  0  0  0  0  0  0  0  0
  121.7352  106.4857  109.5556 H   0  0  0  0  0  0  0  0  0  0  0  0
  122.8129  107.8665  109.2341 H   0  0  0  0  0  0  0  0  0  0  0  0
  121.6248  107.3869  108.0234 H   0  0  0  0  0  0  0  0  0  0  0  0
  1  6  1  0  0  0  0
  1  7  2  0  0  0  0
  2  4  2  0  0  0  0
  2 10  1  0  0  0  0
  3  5  1  0  0  0  0
  3 11  2  0  0  0  0
  4 12  1  0  0  0  0
  5 13  2  0  0  0  0
  6 15  2  0  0  0  0
  7 16  1  0  0  0  0
  8  9  1  0  0  0  0
  8 10  2  0  0  0  0
  8 11  1  0  0  0  0
  9 12  2  0  0  0  0
  9 13  1  0  0  0  0
 10 17  1  0  0  0  0
 11 18  1  0  0  0  0
 12 19  1  0  0  0  0
 13 20  1  0  0  0  0
 14 15  1  0  0  0  0
 14 16  2  0  0  0  0
 14 21  1  0  0  0  0
 15 22  1  0  0  0  0
 16 25  1  0  0  0  0
 17 22  1  0  0  0  0
 17 23  2  0  0  0  0
 18 22  1  0  0  0  0
 18 24  2  0  0  0  0
 19 20  1  0  0  0  0
  1 26  1  0  0  0  0
  2 27  1  0  0  0  0
  3 28  1  0  0  0  0
  4 29  1  0  0  0  0
  5 30  1  0  0  0  0
  6 31  1  0  0  0  0
  7 32  1  0  0  0  0
 19 33  1  0  0  0  0
 19 34  1  0  0  0  0
 20 35  1  0  0  0  0
 20 36  1  0  0  0  0
 21 37  1  0  0  0  0
 21 38  1  0  0  0  0
 21 39  1  0  0  0  0
M  END
> <FRED Chemgauss4 score>
-10.234967

$$$$
C38536703	P150889820
  -OEChem-05122015313D

 35 36  0     1  0  0  0  0  0999 V2000
  116.6579  103.9170  103.9505 C   0  0  0  0  0  0  0  0  0  0  0  0
  117.2989  103.2932  104.9507 C   0  0  0  0  0  0  0  0  0  0  0  0
  116.8608  105.3235  103.6499 C   0  0  0  0  0  0  0  0  0  0  0  0
  117.4481  106.1474  104.5351 C   0  0  0  0  0  0  0  0  0  0  0  0
  119.9082  104.9477  106.6797 C   0  0  0  0  0  0  0  0  0  0  0  0
  119.1814  106.0440  106.4320 C   0  0  0  0  0  0  0  0  0  0  0  0
  118.2056  104.1563  105.7334 C   0  0  0  0  0  0  0  0  0  0  0  0
  124.9401  107.3912  108.7739 C   0  0  0  0  0  0  0  0  0  0  0  0
  121.9149  107.2433  107.5232 C   0  0  0  0  0  0  0  0  0  0  0  0
  117.8581  105.6338  105.8770 C   0  0  2  0  0  0  0  0  0  0  0  0
  119.5334  107.4537  106.7334 C   0  0  0  0  0  0  0  0  0  0  0  0
  124.0240  106.2487  108.4002 C   0  0  0  0  0  0  0  0  0  0  0  0
  120.4755  107.5270  107.9359 C   0  0  2  0  0  0  0  0  0  0  0  0
  119.3225  103.7771  106.2752 N   0  0  0  0  0  0  0  0  0  0  0  0
  125.7619  107.0779  109.8352 N   0  0  0  0  0  0  0  0  0  0  0  0
  120.4368  108.8256  108.5598 N   0  0  0  0  0  0  0  0  0  0  0  0
  122.6466  106.6600  108.5479 N   0  0  0  0  0  0  0  0  0  0  0  0
  124.9818  108.4610  108.1725 O   0  0  0  0  0  0  0  0  0  0  0  0
  122.3432  107.4735  106.3942 O   0  0  0  0  0  0  0  0  0  0  0  0
  116.0005  103.3594  103.2916 H   0  0  0  0  0  0  0  0  0  0  0  0
  117.2328  102.2319  105.1426 H   0  0  0  0  0  0  0  0  0  0  0  0
  116.5188  105.6914  102.6889 H   0  0  0  0  0  0  0  0  0  0  0  0
  117.5639  107.2007  104.3013 H   0  0  0  0  0  0  0  0  0  0  0  0
  120.8944  104.9328  107.1215 H   0  0  0  0  0  0  0  0  0  0  0  0
  117.0645  105.7739  106.6189 H   0  0  0  0  0  0  0  0  0  0  0  0
  118.6111  108.0201  106.9206 H   0  0  0  0  0  0  0  0  0  0  0  0
  120.0101  107.8759  105.8387 H   0  0  0  0  0  0  0  0  0  0  0  0
  124.1912  105.3855  109.0501 H   0  0  0  0  0  0  0  0  0  0  0  0
  124.1948  105.9692  107.3571 H   0  0  0  0  0  0  0  0  0  0  0  0
  120.1800  106.8064  108.7082 H   0  0  0  0  0  0  0  0  0  0  0  0
  125.7160  106.1666  110.2789 H   0  0  0  0  0  0  0  0  0  0  0  0
  126.4383  107.7346  110.2114 H   0  0  0  0  0  0  0  0  0  0  0  0
  121.2302  109.1332  109.0965 H   0  0  0  0  0  0  0  0  0  0  0  0
  119.5577  109.3110  108.6223 H   0  0  0  0  0  0  0  0  0  0  0  0
  122.1923  106.5153  109.4448 H   0  0  0  0  0  0  0  0  0  0  0  0
  1  2  2  0  0  0  0
  1  3  1  0  0  0  0
  2  7  1  0  0  0  0
  3  4  2  0  0  0  0
  4 10  1  0  0  0  0
  5  6  2  0  0  0  0
  5 14  1  0  0  0  0
  6 10  1  0  0  0  0
  6 11  1  0  0  0  0
  7 10  1  0  0  0  0
  7 14  2  0  0  0  0
  8 12  1  0  0  0  0
  8 15  1  0  0  0  0
  8 18  2  0  0  0  0
  9 13  1  0  0  0  0
  9 17  1  0  0  0  0
  9 19  2  0  0  0  0
 11 13  1  0  0  0  0
 12 17  1  0  0  0  0
 13 16  1  0  0  0  0
  1 20  1  0  0  0  0
  2 21  1  0  0  0  0
  3 22  1  0  0  0  0
  4 23  1  0  0  0  0
  5 24  1  0  0  0  0
 10 25  1  0  0  0  0
 11 26  1  0  0  0  0
 11 27  1  0  0  0  0
 12 28  1  0  0  0  0
 12 29  1  0  0  0  0
 13 30  1  0  0  0  0
 15 31  1  0  0  0  0
 15 32  1  0  0  0  0
 16 33  1  0  0  0  0
 16 34  1  0  0  0  0
 17 35  1  0  0  0  0
M  END
> <FRED Chemgauss4 score>
-10.232265

$$$$
C45174993	P68086517
  -OEChem-05122015313D

 40 41  0     1  0  0  0  0  0999 V2000
  120.6157  106.3940  104.8239 C   0  0  0  0  0  0  0  0  0  0  0  0
  125.8287  108.4004  107.6589 C   0  0  0  0  0  0  0  0  0  0  0  0
  117.8697  105.6580  104.2666 C   0  0  0  0  0  0  0  0  0  0  0  0
  116.8158  105.4649  105.3180 C   0  0  0  0  0  0  0  0  0  0  0  0
  124.6804  106.4472  108.7139 C   0  0  0  0  0  0  0  0  0  0  0  0
  124.8595  106.6359  106.2012 C   0  0  0  0  0  0  0  0  0  0  0  0
  123.2049  106.8373  108.5851 C   0  0  0  0  0  0  0  0  0  0  0  0
  123.3810  107.0329  106.1804 C   0  0  0  0  0  0  0  0  0  0  0  0
  125.5308  106.9338  107.5412 C   0  0  0  0  0  0  0  0  0  0  0  0
  118.2475  105.1137  105.6171 C   0  0  0  0  0  0  0  0  0  0  0  0
  120.8935  104.4025  106.2482 C   0  0  0  0  0  0  0  0  0  0  0  0
  121.2271  106.7398  107.2156 C   0  0  0  0  0  0  0  0  0  0  0  0
  120.4497  105.8721  106.1974 C   0  0  1  0  0  0  0  0  0  0  0  0
  120.7490  106.8030  103.7459 N   0  0  0  0  0  0  0  0  0  0  0  0
  122.6509  106.4127  107.2933 N   0  0  0  0  0  0  0  0  0  0  0  0
  127.0353  108.7669  107.1109 N   0  0  0  0  0  0  0  0  0  0  0  0
  119.0221  105.9172  106.5457 N   0  0  0  0  0  0  0  0  0  0  0  0
  125.0441  109.1858  108.1852 O   0  0  0  0  0  0  0  0  0  0  0  0
  117.8617  104.9854  103.4175 H   0  0  0  0  0  0  0  0  0  0  0  0
  118.1664  106.6728  104.0308 H   0  0  0  0  0  0  0  0  0  0  0  0
  116.4047  106.3498  105.7885 H   0  0  0  0  0  0  0  0  0  0  0  0
  116.1020  104.6631  105.1728 H   0  0  0  0  0  0  0  0  0  0  0  0
  125.0739  106.8343  109.6618 H   0  0  0  0  0  0  0  0  0  0  0  0
  124.7502  105.3525  108.7673 H   0  0  0  0  0  0  0  0  0  0  0  0
  124.9398  105.5601  105.9971 H   0  0  0  0  0  0  0  0  0  0  0  0
  125.3828  107.1526  105.3875 H   0  0  0  0  0  0  0  0  0  0  0  0
  122.6547  106.3538  109.4017 H   0  0  0  0  0  0  0  0  0  0  0  0
  123.0946  107.9213  108.7207 H   0  0  0  0  0  0  0  0  0  0  0  0
  123.2823  108.1255  106.2052 H   0  0  0  0  0  0  0  0  0  0  0  0
  122.9560  106.6958  105.2267 H   0  0  0  0  0  0  0  0  0  0  0  0
  126.5045  106.4295  107.5684 H   0  0  0  0  0  0  0  0  0  0  0  0
  118.4859  104.0556  105.6600 H   0  0  0  0  0  0  0  0  0  0  0  0
  120.7826  103.9847  107.2557 H   0  0  0  0  0  0  0  0  0  0  0  0
  120.3020  103.7815  105.5633 H   0  0  0  0  0  0  0  0  0  0  0  0
  121.9425  104.2853  105.9515 H   0  0  0  0  0  0  0  0  0  0  0  0
  121.1322  107.8039  106.9630 H   0  0  0  0  0  0  0  0  0  0  0  0
  120.8006  106.6106  108.2183 H   0  0  0  0  0  0  0  0  0  0  0  0
  127.6139  108.0508  106.6843 H   0  0  0  0  0  0  0  0  0  0  0  0
  127.3704  109.7248  107.1161 H   0  0  0  0  0  0  0  0  0  0  0  0
  118.9090  105.5588  107.4888 H   0  0  0  0  0  0  0  0  0  0  0  0
  1 13  1  0  0  0  0
  1 14  3  0  0  0  0
  2  9  1  0  0  0  0
  2 16  1  0  0  0  0
  2 18  2  0  0  0  0
  3  4  1  0  0  0  0
  3 10  1  0  0  0  0
  4 10  1  0  0  0  0
  5  7  1  0  0  0  0
  5  9  1  0  0  0  0
  6  8  1  0  0  0  0
  6  9  1  0  0  0  0
  7 15  1  0  0  0  0
  8 15  1  0  0  0  0
 10 17  1  0  0  0  0
 11 13  1  0  0  0  0
 12 13  1  0  0  0  0
 12 15  1  0  0  0  0
 13 17  1  0  0  0  0
  3 19  1  0  0  0  0
  3 20  1  0  0  0  0
  4 21  1  0  0  0  0
  4 22  1  0  0  0  0
  5 23  1  0  0  0  0
  5 24  1  0  0  0  0
  6 25  1  0  0  0  0
  6 26  1  0  0  0  0
  7 27  1  0  0  0  0
  7 28  1  0  0  0  0
  8 29  1  0  0  0  0
  8 30  1  0  0  0  0
  9 31  1  0  0  0  0
 10 32  1  0  0  0  0
 11 33  1  0  0  0  0
 11 34  1  0  0  0  0
 11 35  1  0  0  0  0
 12 36  1  0  0  0  0
 12 37  1  0  0  0  0
 16 38  1  0  0  0  0
 16 39  1  0  0  0  0
 17 40  1  0  0  0  0
M  END
> <FRED Chemgauss4 score>
-10.231611

$$$$
C93630036	P146642512
  -OEChem-05122015313D

 39 40  0     1  0  0  0  0  0999 V2000
  124.7585  108.2182  108.5430 C   0  0  0  0  0  0  0  0  0  0  0  0
  124.3842  106.3170  107.7667 C   0  0  0  0  0  0  0  0  0  0  0  0
  119.4509  106.5418  104.6162 C   0  0  0  0  0  0  0  0  0  0  0  0
  117.3187  104.4702  105.7183 C   0  0  0  0  0  0  0  0  0  0  0  0
  118.6946  103.8047  105.7508 C   0  0  0  0  0  0  0  0  0  0  0  0
  117.5363  105.9513  106.0562 C   0  0  0  0  0  0  0  0  0  0  0  0
  119.5942  104.7997  106.4854 C   0  0  2  0  0  0  0  0  0  0  0  0
  119.0513  106.1601  106.0380 C   0  0  1  0  0  0  0  0  0  0  0  0
  124.5986  109.6390  108.9226 C   0  0  0  0  0  0  0  0  0  0  0  0
  118.7967  108.5313  106.7804 C   0  0  0  0  0  0  0  0  0  0  0  0
  121.0757  104.5651  106.2230 C   0  0  0  0  0  0  0  0  0  0  0  0
  121.9311  105.1763  107.3266 C   0  0  0  0  0  0  0  0  0  0  0  0
  123.8088  107.4911  107.8840 N   0  0  0  0  0  0  0  0  0  0  0  0
  125.6200  106.3543  108.3334 N   0  0  0  0  0  0  0  0  0  0  0  0
  125.8853  107.5678  108.8408 N   0  0  0  0  0  0  0  0  0  0  0  0
  119.4246  107.2063  107.0268 N   0  3  0  0  0  0  0  0  0  0  0  0
  120.6835  106.7490  104.4399 O   0  5  0  0  0  0  0  0  0  0  0  0
  118.4933  106.6017  103.7949 O   0  0  0  0  0  0  0  0  0  0  0  0
  123.6926  104.8836  107.0004 S   0  0  0  0  0  0  0  0  0  0  0  0
  116.8571  104.3510  104.7322 H   0  0  0  0  0  0  0  0  0  0  0  0
  116.6456  104.0114  106.4511 H   0  0  0  0  0  0  0  0  0  0  0  0
  118.6620  102.8331  106.2545 H   0  0  0  0  0  0  0  0  0  0  0  0
  119.0477  103.6308  104.7272 H   0  0  0  0  0  0  0  0  0  0  0  0
  117.0038  106.5949  105.3466 H   0  0  0  0  0  0  0  0  0  0  0  0
  117.1157  106.1518  107.0500 H   0  0  0  0  0  0  0  0  0  0  0  0
  119.4220  104.6751  107.5646 H   0  0  0  0  0  0  0  0  0  0  0  0
  124.1503  109.7313  109.9241 H   0  0  0  0  0  0  0  0  0  0  0  0
  125.5633  110.1720  108.9338 H   0  0  0  0  0  0  0  0  0  0  0  0
  123.9549  110.1836  108.2127 H   0  0  0  0  0  0  0  0  0  0  0  0
  119.0785  108.8528  105.7761 H   0  0  0  0  0  0  0  0  0  0  0  0
  117.7151  108.4094  106.8645 H   0  0  0  0  0  0  0  0  0  0  0  0
  119.1733  109.2250  107.5345 H   0  0  0  0  0  0  0  0  0  0  0  0
  121.3335  105.0035  105.2516 H   0  0  0  0  0  0  0  0  0  0  0  0
  121.2531  103.4853  106.1547 H   0  0  0  0  0  0  0  0  0  0  0  0
  121.7653  106.2565  107.3911 H   0  0  0  0  0  0  0  0  0  0  0  0
  121.6809  104.7371  108.2977 H   0  0  0  0  0  0  0  0  0  0  0  0
  126.7602  107.7939  109.3060 H   0  0  0  0  0  0  0  0  0  0  0  0
  119.1712  106.8835  107.9707 H   0  0  0  0  0  0  0  0  0  0  0  0
  120.4481  107.3140  107.0331 H   0  0  0  0  0  0  0  0  0  0  0  0
  1  9  1  0  0  0  0
  1 13  2  0  0  0  0
  1 15  1  0  0  0  0
  2 13  1  0  0  0  0
  2 14  2  0  0  0  0
  2 19  1  0  0  0  0
  3  8  1  0  0  0  0
  3 17  1  0  0  0  0
  3 18  2  0  0  0  0
  4  5  1  0  0  0  0
  4  6  1  0  0  0  0
  5  7  1  0  0  0  0
  6  8  1  0  0  0  0
  7  8  1  0  0  0  0
  7 11  1  0  0  0  0
  8 16  1  0  0  0  0
 10 16  1  0  0  0  0
 11 12  1  0  0  0  0
 12 19  1  0  0  0  0
 14 15  1  0  0  0  0
  4 20  1  0  0  0  0
  4 21  1  0  0  0  0
  5 22  1  0  0  0  0
  5 23  1  0  0  0  0
  6 24  1  0  0  0  0
  6 25  1  0  0  0  0
  7 26  1  0  0  0  0
  9 27  1  0  0  0  0
  9 28  1  0  0  0  0
  9 29  1  0  0  0  0
 10 30  1  0  0  0  0
 10 31  1  0  0  0  0
 10 32  1  0  0  0  0
 11 33  1  0  0  0  0
 11 34  1  0  0  0  0
 12 35  1  0  0  0  0
 12 36  1  0  0  0  0
 15 37  1  0  0  0  0
 16 38  1  0  0  0  0
 16 39  1  0  0  0  0
M  CHG  2  16   1  17  -1
M  END
> <FRED Chemgauss4 score>
-10.231058

$$$$
C16735860	P25239542
  -OEChem-05122015313D

 45 47  0     1  0  0  0  0  0999 V2000
  116.8980  112.5044  108.2974 C   0  0  0  0  0  0  0  0  0  0  0  0
  119.4383  107.3490  106.8727 C   0  0  0  0  0  0  0  0  0  0  0  0
  119.0132  106.0389  106.4993 C   0  0  0  0  0  0  0  0  0  0  0  0
  117.6923  106.0353  106.0925 C   0  0  0  0  0  0  0  0  0  0  0  0
  118.4300  108.2798  106.7412 C   0  0  0  0  0  0  0  0  0  0  0  0
  120.7559  107.6990  107.3416 C   0  0  0  0  0  0  0  0  0  0  0  0
  117.3312  110.5452  106.8336 C   0  0  0  0  0  0  0  0  0  0  0  0
  119.8496  104.7969  106.5007 C   0  0  0  0  0  0  0  0  0  0  0  0
  116.9286  104.8222  105.6622 C   0  0  0  0  0  0  0  0  0  0  0  0
  118.9869  103.5283  106.4121 C   0  0  0  0  0  0  0  0  0  0  0  0
  117.8883  103.6637  105.3475 C   0  0  0  0  0  0  0  0  0  0  0  0
  124.8564  104.6144  107.9749 C   0  0  0  0  0  0  0  0  0  0  0  0
  123.5841  105.3914  107.7471 C   0  0  0  0  0  0  0  0  0  0  0  0
  125.8970  105.7141  107.9857 C   0  0  0  0  0  0  0  0  0  0  0  0
  124.0516  106.4583  106.7721 C   0  0  1  0  0  0  0  0  0  0  0  0
  117.7332  111.9579  107.2221 C   0  0  0  0  0  0  0  0  0  0  0  0
  123.2171  107.7236  106.8137 C   0  0  0  0  0  0  0  0  0  0  0  0
  116.2396  112.9405  109.1476 N   0  0  0  0  0  0  0  0  0  0  0  0
  118.4049  109.6261  106.9872 N   0  0  0  0  0  0  0  0  0  0  0  0
  121.8378  107.4499  106.4798 N   0  0  0  0  0  0  0  0  0  0  0  0
  120.9257  108.1859  108.4806 O   0  0  0  0  0  0  0  0  0  0  0  0
  116.2029  110.2702  106.4376 O   0  0  0  0  0  0  0  0  0  0  0  0
  125.4116  106.7584  107.1287 O   0  0  0  0  0  0  0  0  0  0  0  0
  116.9769  107.5782  106.1679 S   0  0  0  0  0  0  0  0  0  0  0  0
  120.5590  104.8095  105.6654 H   0  0  0  0  0  0  0  0  0  0  0  0
  120.4353  104.7721  107.4282 H   0  0  0  0  0  0  0  0  0  0  0  0
  116.2194  104.5069  106.4358 H   0  0  0  0  0  0  0  0  0  0  0  0
  116.3510  105.0677  104.7625 H   0  0  0  0  0  0  0  0  0  0  0  0
  119.6222  102.6683  106.1636 H   0  0  0  0  0  0  0  0  0  0  0  0
  118.5377  103.3228  107.3904 H   0  0  0  0  0  0  0  0  0  0  0  0
  117.3236  102.7238  105.2951 H   0  0  0  0  0  0  0  0  0  0  0  0
  118.3391  103.8209  104.3612 H   0  0  0  0  0  0  0  0  0  0  0  0
  124.8522  104.0214  108.8931 H   0  0  0  0  0  0  0  0  0  0  0  0
  125.0354  103.9379  107.1307 H   0  0  0  0  0  0  0  0  0  0  0  0
  122.7675  104.7816  107.3509 H   0  0  0  0  0  0  0  0  0  0  0  0
  123.2526  105.8389  108.6920 H   0  0  0  0  0  0  0  0  0  0  0  0
  126.0165  106.1363  108.9892 H   0  0  0  0  0  0  0  0  0  0  0  0
  126.8737  105.3714  107.6327 H   0  0  0  0  0  0  0  0  0  0  0  0
  124.0598  106.0668  105.7501 H   0  0  0  0  0  0  0  0  0  0  0  0
  118.7824  111.9456  107.5391 H   0  0  0  0  0  0  0  0  0  0  0  0
  117.6577  112.5959  106.3340 H   0  0  0  0  0  0  0  0  0  0  0  0
  123.5956  108.4563  106.0946 H   0  0  0  0  0  0  0  0  0  0  0  0
  123.2361  108.1683  107.8130 H   0  0  0  0  0  0  0  0  0  0  0  0
  119.2778  110.0678  107.3361 H   0  0  0  0  0  0  0  0  0  0  0  0
  121.6598  106.9953  105.5902 H   0  0  0  0  0  0  0  0  0  0  0  0
  1 16  1  0  0  0  0
  1 18  3  0  0  0  0
  2  3  1  0  0  0  0
  2  5  2  0  0  0  0
  2  6  1  0  0  0  0
  3  4  2  0  0  0  0
  3  8  1  0  0  0  0
  4  9  1  0  0  0  0
  4 24  1  0  0  0  0
  5 19  1  0  0  0  0
  5 24  1  0  0  0  0
  6 20  1  0  0  0  0
  6 21  2  0  0  0  0
  7 16  1  0  0  0  0
  7 19  1  0  0  0  0
  7 22  2  0  0  0  0
  8 10  1  0  0  0  0
  9 11  1  0  0  0  0
 10 11  1  0  0  0  0
 12 13  1  0  0  0  0
 12 14  1  0  0  0  0
 13 15  1  0  0  0  0
 14 23  1  0  0  0  0
 15 17  1  0  0  0  0
 15 23  1  0  0  0  0
 17 20  1  0  0  0  0
  8 25  1  0  0  0  0
  8 26  1  0  0  0  0
  9 27  1  0  0  0  0
  9 28  1  0  0  0  0
 10 29  1  0  0  0  0
 10 30  1  0  0  0  0
 11 31  1  0  0  0  0
 11 32  1  0  0  0  0
 12 33  1  0  0  0  0
 12 34  1  0  0  0  0
 13 35  1  0  0  0  0
 13 36  1  0  0  0  0
 14 37  1  0  0  0  0
 14 38  1  0  0  0  0
 15 39  1  0  0  0  0
 16 40  1  0  0  0  0
 16 41  1  0  0  0  0
 17 42  1  0  0  0  0
 17 43  1  0  0  0  0
 19 44  1  0  0  0  0
 20 45  1  0  0  0  0
M  END
> <FRED Chemgauss4 score>
-10.227597

$$$$
6C_CG2012	P10000021
  -OEChem-05122015313D

 22 21  0     1  0  0  0  0  0999 V2000
  124.2583  108.6158  106.8935 C   0  0  0  0  0  0  0  0  0  0  0  0
  125.7215  105.7124  108.6337 C   0  0  0  0  0  0  0  0  0  0  0  0
  124.0647  104.4752  107.2054 C   0  0  0  0  0  0  0  0  0  0  0  0
  125.3030  104.3712  108.0786 C   0  0  0  0  0  0  0  0  0  0  0  0
  124.8500  107.8120  109.2902 C   0  0  0  0  0  0  0  0  0  0  0  0
  125.1239  108.7916  108.1532 C   0  0  1  0  0  0  0  0  0  0  0  0
  126.5943  108.7317  107.8747 N   0  3  0  0  0  0  0  0  0  0  0  0
  123.0981  108.1518  107.0716 O   0  5  0  0  0  0  0  0  0  0  0  0
  124.8280  108.9443  105.8127 O   0  0  0  0  0  0  0  0  0  0  0  0
  126.8685  106.0333  108.9132 O   0  0  0  0  0  0  0  0  0  0  0  0
  124.6148  106.5077  108.7737 O   0  0  0  0  0  0  0  0  0  0  0  0
  123.2173  104.8770  107.7707 H   0  0  0  0  0  0  0  0  0  0  0  0
  124.2529  105.1366  106.3542 H   0  0  0  0  0  0  0  0  0  0  0  0
  123.7731  103.4933  106.8182 H   0  0  0  0  0  0  0  0  0  0  0  0
  126.1310  103.9673  107.4865 H   0  0  0  0  0  0  0  0  0  0  0  0
  125.0989  103.6972  108.9173 H   0  0  0  0  0  0  0  0  0  0  0  0
  123.9690  108.1181  109.8650 H   0  0  0  0  0  0  0  0  0  0  0  0
  125.7022  107.7616  109.9762 H   0  0  0  0  0  0  0  0  0  0  0  0
  124.9402  109.8099  108.5176 H   0  0  0  0  0  0  0  0  0  0  0  0
  126.7585  108.5209  106.8898 H   0  0  0  0  0  0  0  0  0  0  0  0
  127.0309  108.0043  108.4425 H   0  0  0  0  0  0  0  0  0  0  0  0
  127.0320  109.6269  108.0958 H   0  0  0  0  0  0  0  0  0  0  0  0
  1  6  1  0  0  0  0
  1  8  1  0  0  0  0
  1  9  2  0  0  0  0
  2  4  1  0  0  0  0
  2 10  2  0  0  0  0
  2 11  1  0  0  0  0
  3  4  1  0  0  0  0
  5  6  1  0  0  0  0
  5 11  1  0  0  0  0
  6  7  1  0  0  0  0
  3 12  1  0  0  0  0
  3 13  1  0  0  0  0
  3 14  1  0  0  0  0
  4 15  1  0  0  0  0
  4 16  1  0  0  0  0
  5 17  1  0  0  0  0
  5 18  1  0  0  0  0
  6 19  1  0  0  0  0
  7 20  1  0  0  0  0
  7 21  1  0  0  0  0
  7 22  1  0  0  0  0
M  CHG  2   7   1   8  -1
M  END
> <FRED Chemgauss4 score>
-10.225204

$$$$
C78986123	P123291637
  -OEChem-05122015313D

 32 32  0     0  0  0  0  0  0999 V2000
  122.7063  107.0081  107.8872 C   0  0  0  0  0  0  0  0  0  0  0  0
  123.4996  108.0455  108.3773 C   0  0  0  0  0  0  0  0  0  0  0  0
  125.4236  106.5844  108.3554 C   0  0  0  0  0  0  0  0  0  0  0  0
  123.2716  105.7589  107.6314 C   0  0  0  0  0  0  0  0  0  0  0  0
  124.8583  107.8337  108.6113 C   0  0  0  0  0  0  0  0  0  0  0  0
  124.6303  105.5470  107.8654 C   0  0  0  0  0  0  0  0  0  0  0  0
  118.5382  103.9043  103.6849 C   0  0  0  0  0  0  0  0  0  0  0  0
  118.1891  103.2614  105.0205 C   0  0  0  0  0  0  0  0  0  0  0  0
  118.8391  103.9900  106.1972 C   0  0  0  0  0  0  0  0  0  0  0  0
  120.3695  104.0166  106.1022 C   0  0  0  0  0  0  0  0  0  0  0  0
  121.0168  104.7523  107.2732 C   0  0  0  0  0  0  0  0  0  0  0  0
  117.7755  104.8829  103.2961 N   0  0  0  0  0  0  0  0  0  0  0  0
  119.6227  103.3765  103.0238 N   0  0  0  0  0  0  0  0  0  0  0  0
  122.4543  104.7494  107.1472 N   0  0  0  0  0  0  0  0  0  0  0  0
  116.7743  105.1175  104.2429 O   0  0  0  0  0  0  0  0  0  0  0  0
  125.6195  108.8301  109.0822 F   0  0  0  0  0  0  0  0  0  0  0  0
  125.4513  103.8678  107.5340 Br  0  0  0  0  0  0  0  0  0  0  0  0
  121.6487  107.1861  107.7092 H   0  0  0  0  0  0  0  0  0  0  0  0
  123.0598  109.0183  108.5766 H   0  0  0  0  0  0  0  0  0  0  0  0
  126.4841  106.4393  108.5437 H   0  0  0  0  0  0  0  0  0  0  0  0
  118.4845  102.2058  105.0100 H   0  0  0  0  0  0  0  0  0  0  0  0
  117.0987  103.2912  105.1343 H   0  0  0  0  0  0  0  0  0  0  0  0
  118.5480  103.4779  107.1224 H   0  0  0  0  0  0  0  0  0  0  0  0
  118.4515  105.0133  106.2623 H   0  0  0  0  0  0  0  0  0  0  0  0
  120.7453  102.9864  106.0898 H   0  0  0  0  0  0  0  0  0  0  0  0
  120.6787  104.4847  105.1601 H   0  0  0  0  0  0  0  0  0  0  0  0
  120.7459  104.2548  108.2103 H   0  0  0  0  0  0  0  0  0  0  0  0
  120.6539  105.7838  107.3322 H   0  0  0  0  0  0  0  0  0  0  0  0
  120.1486  102.6043  103.4185 H   0  0  0  0  0  0  0  0  0  0  0  0
  119.9330  103.7384  102.1283 H   0  0  0  0  0  0  0  0  0  0  0  0
  122.8916  103.9633  106.6787 H   0  0  0  0  0  0  0  0  0  0  0  0
  116.2896  105.8551  103.8354 H   0  0  0  0  0  0  0  0  0  0  0  0
  1  2  1  0  0  0  0
  1  4  2  0  0  0  0
  2  5  2  0  0  0  0
  3  5  1  0  0  0  0
  3  6  2  0  0  0  0
  4  6  1  0  0  0  0
  4 14  1  0  0  0  0
  5 16  1  0  0  0  0
  6 17  1  0  0  0  0
  7  8  1  0  0  0  0
  7 12  2  0  0  0  0
  7 13  1  0  0  0  0
  8  9  1  0  0  0  0
  9 10  1  0  0  0  0
 10 11  1  0  0  0  0
 11 14  1  0  0  0  0
 12 15  1  0  0  0  0
  1 18  1  0  0  0  0
  2 19  1  0  0  0  0
  3 20  1  0  0  0  0
  8 21  1  0  0  0  0
  8 22  1  0  0  0  0
  9 23  1  0  0  0  0
  9 24  1  0  0  0  0
 10 25  1  0  0  0  0
 10 26  1  0  0  0  0
 11 27  1  0  0  0  0
 11 28  1  0  0  0  0
 13 29  1  0  0  0  0
 13 30  1  0  0  0  0
 14 31  1  0  0  0  0
 15 32  1  0  0  0  0
M  END
> <FRED Chemgauss4 score>
-10.208006

$$$$
C93751937	P146891062
  -OEChem-05122015313D

 46 47  0     1  0  0  0  0  0999 V2000
  126.1529  108.0568  107.1429 C   0  0  0  0  0  0  0  0  0  0  0  0
  123.6075  108.6639  108.7153 C   0  0  0  0  0  0  0  0  0  0  0  0
  117.7851  107.4030  103.7354 C   0  0  0  0  0  0  0  0  0  0  0  0
  122.9044  108.4681  107.3698 C   0  0  0  0  0  0  0  0  0  0  0  0
  118.5046  107.7687  105.0093 C   0  0  0  0  0  0  0  0  0  0  0  0
  124.6296  107.5699  109.0484 C   0  0  0  0  0  0  0  0  0  0  0  0
  124.2834  106.4153  106.7991 C   0  0  0  0  0  0  0  0  0  0  0  0
  118.3810  106.0480  103.4174 C   0  0  0  0  0  0  0  0  0  0  0  0
  122.8662  106.9966  106.9657 C   0  0  2  0  0  0  0  0  0  0  0  0
  119.8976  107.2286  104.7357 C   0  0  1  0  0  0  0  0  0  0  0  0
  125.3074  106.9920  107.8010 C   0  0  1  0  0  0  0  0  0  0  0  0
  126.9542  105.4278  107.0236 C   0  0  0  0  0  0  0  0  0  0  0  0
  122.4539  105.5509  105.0924 C   0  0  0  0  0  0  0  0  0  0  0  0
  120.6725  106.8876  105.9938 C   0  0  0  0  0  0  0  0  0  0  0  0
  127.1473  108.5539  107.9519 N   0  0  0  0  0  0  0  0  0  0  0  0
  126.2551  105.9455  108.1888 N   0  0  0  0  0  0  0  0  0  0  0  0
  122.1089  106.8222  105.7273 N   0  0  1  0  0  0  0  0  0  0  0  0
  125.9623  108.4181  105.9842 O   0  0  0  0  0  0  0  0  0  0  0  0
  119.7191  106.0467  103.9369 O   0  0  0  0  0  0  0  0  0  0  0  0
  124.1154  109.6456  108.7194 H   0  0  0  0  0  0  0  0  0  0  0  0
  122.8502  108.7242  109.5186 H   0  0  0  0  0  0  0  0  0  0  0  0
  116.6969  107.3781  103.8355 H   0  0  0  0  0  0  0  0  0  0  0  0
  118.0403  108.1190  102.9452 H   0  0  0  0  0  0  0  0  0  0  0  0
  121.8868  108.8728  107.4369 H   0  0  0  0  0  0  0  0  0  0  0  0
  123.4298  109.0589  106.6075 H   0  0  0  0  0  0  0  0  0  0  0  0
  118.4982  108.8418  105.2193 H   0  0  0  0  0  0  0  0  0  0  0  0
  118.0397  107.2494  105.8562 H   0  0  0  0  0  0  0  0  0  0  0  0
  125.3896  107.9961  109.7151 H   0  0  0  0  0  0  0  0  0  0  0  0
  124.1345  106.7804  109.6258 H   0  0  0  0  0  0  0  0  0  0  0  0
  124.2467  105.3178  106.8851 H   0  0  0  0  0  0  0  0  0  0  0  0
  124.6393  106.6122  105.7747 H   0  0  0  0  0  0  0  0  0  0  0  0
  117.8292  105.2454  103.9182 H   0  0  0  0  0  0  0  0  0  0  0  0
  118.4018  105.8400  102.3440 H   0  0  0  0  0  0  0  0  0  0  0  0
  122.3410  106.4247  107.7555 H   0  0  0  0  0  0  0  0  0  0  0  0
  120.4756  107.9421  104.1402 H   0  0  0  0  0  0  0  0  0  0  0  0
  127.5066  106.2312  106.5293 H   0  0  0  0  0  0  0  0  0  0  0  0
  126.2406  105.0023  106.3129 H   0  0  0  0  0  0  0  0  0  0  0  0
  127.6596  104.6475  107.3218 H   0  0  0  0  0  0  0  0  0  0  0  0
  121.8848  105.4263  104.1675 H   0  0  0  0  0  0  0  0  0  0  0  0
  122.2229  104.7186  105.7627 H   0  0  0  0  0  0  0  0  0  0  0  0
  123.5209  105.5242  104.8553 H   0  0  0  0  0  0  0  0  0  0  0  0
  120.3607  105.9142  106.3842 H   0  0  0  0  0  0  0  0  0  0  0  0
  120.5110  107.6453  106.7662 H   0  0  0  0  0  0  0  0  0  0  0  0
  127.2388  108.1859  108.8931 H   0  0  0  0  0  0  0  0  0  0  0  0
  127.7934  109.2739  107.6454 H   0  0  0  0  0  0  0  0  0  0  0  0
  125.7443  105.1914  108.6421 H   0  0  0  0  0  0  0  0  0  0  0  0
  1 11  1  0  0  0  0
  1 15  1  0  0  0  0
  1 18  2  0  0  0  0
  2  4  1  0  0  0  0
  2  6  1  0  0  0  0
  3  5  1  0  0  0  0
  3  8  1  0  0  0  0
  4  9  1  0  0  0  0
  5 10  1  0  0  0  0
  6 11  1  0  0  0  0
  7  9  1  0  0  0  0
  7 11  1  0  0  0  0
  8 19  1  0  0  0  0
  9 17  1  0  0  0  0
 10 14  1  0  0  0  0
 10 19  1  0  0  0  0
 11 16  1  0  0  0  0
 12 16  1  0  0  0  0
 13 17  1  0  0  0  0
 14 17  1  0  0  0  0
  2 20  1  0  0  0  0
  2 21  1  0  0  0  0
  3 22  1  0  0  0  0
  3 23  1  0  0  0  0
  4 24  1  0  0  0  0
  4 25  1  0  0  0  0
  5 26  1  0  0  0  0
  5 27  1  0  0  0  0
  6 28  1  0  0  0  0
  6 29  1  0  0  0  0
  7 30  1  0  0  0  0
  7 31  1  0  0  0  0
  8 32  1  0  0  0  0
  8 33  1  0  0  0  0
  9 34  1  0  0  0  0
 10 35  1  0  0  0  0
 12 36  1  0  0  0  0
 12 37  1  0  0  0  0
 12 38  1  0  0  0  0
 13 39  1  0  0  0  0
 13 40  1  0  0  0  0
 13 41  1  0  0  0  0
 14 42  1  0  0  0  0
 14 43  1  0  0  0  0
 15 44  1  0  0  0  0
 15 45  1  0  0  0  0
 16 46  1  0  0  0  0
M  END
> <FRED Chemgauss4 score>
-10.203455

$$$$
C22981536	P86762374
  -OEChem-05122015313D

 36 38  0     0  0  0  0  0  0999 V2000
  117.8828  106.3409  104.8616 C   0  0  0  0  0  0  0  0  0  0  0  0
  124.9357  106.2054  108.9717 C   0  0  0  0  0  0  0  0  0  0  0  0
  123.3351  106.9938  107.3428 C   0  0  0  0  0  0  0  0  0  0  0  0
  124.4199  104.8572  107.0344 C   0  0  0  0  0  0  0  0  0  0  0  0
  116.4111  104.7455  105.9207 C   0  0  0  0  0  0  0  0  0  0  0  0
  118.9871  105.6235  105.3334 C   0  0  0  0  0  0  0  0  0  0  0  0
  124.0406  107.1804  108.5315 C   0  0  0  0  0  0  0  0  0  0  0  0
  125.1254  105.0438  108.2232 C   0  0  0  0  0  0  0  0  0  0  0  0
  123.5248  105.8321  106.5942 C   0  0  0  0  0  0  0  0  0  0  0  0
  118.8156  104.4635  106.1008 C   0  0  0  0  0  0  0  0  0  0  0  0
  116.5948  105.8975  105.1582 C   0  0  0  0  0  0  0  0  0  0  0  0
  117.5159  104.0325  106.3895 C   0  0  0  0  0  0  0  0  0  0  0  0
  121.0886  104.1468  106.3035 C   0  0  0  0  0  0  0  0  0  0  0  0
  120.3628  106.0799  105.0287 C   0  0  0  0  0  0  0  0  0  0  0  0
  123.8379  108.4221  109.3326 C   0  0  0  0  0  0  0  0  0  0  0  0
  126.0821  104.0007  108.6936 C   0  0  0  0  0  0  0  0  0  0  0  0
  122.7652  105.6316  105.3147 C   0  0  0  0  0  0  0  0  0  0  0  0
  119.9030  103.7202  106.5897 N   0  0  0  0  0  0  0  0  0  0  0  0
  121.3758  105.2748  105.5566 N   0  0  0  0  0  0  0  0  0  0  0  0
  120.5351  107.0932  104.3582 O   0  0  0  0  0  0  0  0  0  0  0  0
  115.2303  106.7743  104.5814 Cl  0  0  0  0  0  0  0  0  0  0  0  0
  117.2296  102.6098  107.3307 Cl  0  0  0  0  0  0  0  0  0  0  0  0
  118.0201  107.2406  104.2669 H   0  0  0  0  0  0  0  0  0  0  0  0
  125.4863  106.3506  109.8983 H   0  0  0  0  0  0  0  0  0  0  0  0
  122.6372  107.7541  106.9997 H   0  0  0  0  0  0  0  0  0  0  0  0
  124.5676  103.9517  106.4507 H   0  0  0  0  0  0  0  0  0  0  0  0
  115.4042  104.4030  106.1507 H   0  0  0  0  0  0  0  0  0  0  0  0
  121.9774  103.6029  106.6606 H   0  0  0  0  0  0  0  0  0  0  0  0
  124.5435  109.2000  109.0163 H   0  0  0  0  0  0  0  0  0  0  0  0
  122.8175  108.8095  109.2157 H   0  0  0  0  0  0  0  0  0  0  0  0
  123.9852  108.2334  110.4040 H   0  0  0  0  0  0  0  0  0  0  0  0
  125.5694  103.2740  109.3354 H   0  0  0  0  0  0  0  0  0  0  0  0
  126.5319  103.4628  107.8491 H   0  0  0  0  0  0  0  0  0  0  0  0
  126.9085  104.4459  109.2629 H   0  0  0  0  0  0  0  0  0  0  0  0
  122.7785  106.5454  104.7106 H   0  0  0  0  0  0  0  0  0  0  0  0
  123.2150  104.8362  104.7113 H   0  0  0  0  0  0  0  0  0  0  0  0
  1  6  2  0  0  0  0
  1 11  1  0  0  0  0
  2  7  2  0  0  0  0
  2  8  1  0  0  0  0
  3  7  1  0  0  0  0
  3  9  2  0  0  0  0
  4  8  2  0  0  0  0
  4  9  1  0  0  0  0
  5 11  2  0  0  0  0
  5 12  1  0  0  0  0
  6 10  1  0  0  0  0
  6 14  1  0  0  0  0
  7 15  1  0  0  0  0
  8 16  1  0  0  0  0
  9 17  1  0  0  0  0
 10 12  2  0  0  0  0
 10 18  1  0  0  0  0
 11 21  1  0  0  0  0
 12 22  1  0  0  0  0
 13 18  2  0  0  0  0
 13 19  1  0  0  0  0
 14 19  1  0  0  0  0
 14 20  2  0  0  0  0
 17 19  1  0  0  0  0
  1 23  1  0  0  0  0
  2 24  1  0  0  0  0
  3 25  1  0  0  0  0
  4 26  1  0  0  0  0
  5 27  1  0  0  0  0
 13 28  1  0  0  0  0
 15 29  1  0  0  0  0
 15 30  1  0  0  0  0
 15 31  1  0  0  0  0
 16 32  1  0  0  0  0
 16 33  1  0  0  0  0
 16 34  1  0  0  0  0
 17 35  1  0  0  0  0
 17 36  1  0  0  0  0
M  END
> <FRED Chemgauss4 score>
-10.202148

$$$$
C36873883	P54807718
  -OEChem-05122015313D

 42 44  0     1  0  0  0  0  0999 V2000
  119.5771  107.5765  104.4700 C   0  0  0  0  0  0  0  0  0  0  0  0
  118.3371  107.6479  103.8353 C   0  0  0  0  0  0  0  0  0  0  0  0
  119.5021  105.1635  104.3555 C   0  0  0  0  0  0  0  0  0  0  0  0
  121.8358  105.2335  106.2065 C   0  0  0  0  0  0  0  0  0  0  0  0
  120.1588  106.3357  104.7300 C   0  0  0  0  0  0  0  0  0  0  0  0
  117.6665  106.4749  103.4838 C   0  0  0  0  0  0  0  0  0  0  0  0
  118.2491  105.2328  103.7437 C   0  0  0  0  0  0  0  0  0  0  0  0
  121.4309  106.2660  105.3938 C   0  0  0  0  0  0  0  0  0  0  0  0
  123.3904  106.7868  106.0416 C   0  0  0  0  0  0  0  0  0  0  0  0
  115.2882  104.5373  103.3078 C   0  0  0  0  0  0  0  0  0  0  0  0
  115.3871  106.0437  103.5127 C   0  0  0  0  0  0  0  0  0  0  0  0
  116.4393  103.8011  103.9817 C   0  0  0  0  0  0  0  0  0  0  0  0
  124.3710  108.6974  109.9903 C   0  0  0  0  0  0  0  0  0  0  0  0
  124.3508  107.7153  108.8291 C   0  0  0  0  0  0  0  0  0  0  0  0
  124.6674  108.4119  107.5018 C   0  0  0  0  0  0  0  0  0  0  0  0
  124.6849  107.4516  106.2810 C   0  0  2  0  0  0  0  0  0  0  0  0
  122.4032  107.2296  105.2950 N   0  0  0  0  0  0  0  0  0  0  0  0
  123.0931  105.5811  106.6135 N   0  0  0  0  0  0  0  0  0  0  0  0
  125.1193  108.1589  105.0822 N   0  0  0  0  0  0  0  0  0  0  0  0
  116.4901  106.6051  102.7974 O   0  0  0  0  0  0  0  0  0  0  0  0
  117.6857  104.0566  103.3302 O   0  0  0  0  0  0  0  0  0  0  0  0
  120.0829  108.4984  104.7490 H   0  0  0  0  0  0  0  0  0  0  0  0
  117.9138  108.6179  103.5996 H   0  0  0  0  0  0  0  0  0  0  0  0
  119.9513  104.1957  104.5566 H   0  0  0  0  0  0  0  0  0  0  0  0
  121.3664  104.3129  106.5247 H   0  0  0  0  0  0  0  0  0  0  0  0
  114.3480  104.1600  103.7177 H   0  0  0  0  0  0  0  0  0  0  0  0
  115.2854  104.3333  102.2342 H   0  0  0  0  0  0  0  0  0  0  0  0
  114.4464  106.5522  103.2493 H   0  0  0  0  0  0  0  0  0  0  0  0
  115.5484  106.2510  104.5787 H   0  0  0  0  0  0  0  0  0  0  0  0
  116.4998  104.0377  105.0553 H   0  0  0  0  0  0  0  0  0  0  0  0
  116.2559  102.7201  103.9250 H   0  0  0  0  0  0  0  0  0  0  0  0
  123.6526  109.5079  109.8308 H   0  0  0  0  0  0  0  0  0  0  0  0
  124.1224  108.1974  110.9318 H   0  0  0  0  0  0  0  0  0  0  0  0
  125.3660  109.1411  110.0940 H   0  0  0  0  0  0  0  0  0  0  0  0
  125.0801  106.9208  109.0236 H   0  0  0  0  0  0  0  0  0  0  0  0
  123.3624  107.2442  108.7755 H   0  0  0  0  0  0  0  0  0  0  0  0
  123.9136  109.1897  107.3213 H   0  0  0  0  0  0  0  0  0  0  0  0
  125.6346  108.9238  107.5885 H   0  0  0  0  0  0  0  0  0  0  0  0
  125.4959  106.7138  106.4643 H   0  0  0  0  0  0  0  0  0  0  0  0
  123.6920  105.0431  107.2258 H   0  0  0  0  0  0  0  0  0  0  0  0
  124.9254  107.7455  104.1948 H   0  0  0  0  0  0  0  0  0  0  0  0
  125.7636  108.9137  105.1880 H   0  0  0  0  0  0  0  0  0  0  0  0
  1  2  2  0  0  0  0
  1  5  1  0  0  0  0
  2  6  1  0  0  0  0
  3  5  2  0  0  0  0
  3  7  1  0  0  0  0
  4  8  2  0  0  0  0
  4 18  1  0  0  0  0
  5  8  1  0  0  0  0
  6  7  2  0  0  0  0
  6 20  1  0  0  0  0
  7 21  1  0  0  0  0
  8 17  1  0  0  0  0
  9 16  1  0  0  0  0
  9 17  2  0  0  0  0
  9 18  1  0  0  0  0
 10 11  1  0  0  0  0
 10 12  1  0  0  0  0
 11 20  1  0  0  0  0
 12 21  1  0  0  0  0
 13 14  1  0  0  0  0
 14 15  1  0  0  0  0
 15 16  1  0  0  0  0
 16 19  1  0  0  0  0
  1 22  1  0  0  0  0
  2 23  1  0  0  0  0
  3 24  1  0  0  0  0
  4 25  1  0  0  0  0
 10 26  1  0  0  0  0
 10 27  1  0  0  0  0
 11 28  1  0  0  0  0
 11 29  1  0  0  0  0
 12 30  1  0  0  0  0
 12 31  1  0  0  0  0
 13 32  1  0  0  0  0
 13 33  1  0  0  0  0
 13 34  1  0  0  0  0
 14 35  1  0  0  0  0
 14 36  1  0  0  0  0
 15 37  1  0  0  0  0
 15 38  1  0  0  0  0
 16 39  1  0  0  0  0
 18 40  1  0  0  0  0
 19 41  1  0  0  0  0
 19 42  1  0  0  0  0
M  END
> <FRED Chemgauss4 score>
-10.199909

$$$$
C88037217	P137697158
  -OEChem-05122015313D

 31 32  0     1  0  0  0  0  0999 V2000
  124.5778  104.8418  107.5071 C   0  0  0  0  0  0  0  0  0  0  0  0
  125.4341  105.9146  107.2736 C   0  0  0  0  0  0  0  0  0  0  0  0
  123.3599  104.8902  106.8377 C   0  0  0  0  0  0  0  0  0  0  0  0
  125.0301  106.9314  106.4146 C   0  0  0  0  0  0  0  0  0  0  0  0
  123.0255  105.9423  105.9926 C   0  0  0  0  0  0  0  0  0  0  0  0
  121.3531  104.6266  105.9539 C   0  0  0  0  0  0  0  0  0  0  0  0
  125.9662  108.0733  106.1787 C   0  0  0  0  0  0  0  0  0  0  0  0
  117.3204  106.7536  105.4086 C   0  0  0  0  0  0  0  0  0  0  0  0
  118.5144  105.9006  105.0088 C   0  0  0  0  0  0  0  0  0  0  0  0
  118.8350  104.8509  106.0778 C   0  0  0  0  0  0  0  0  0  0  0  0
  120.0210  103.9566  105.6809 C   0  0  1  0  0  0  0  0  0  0  0  0
  123.8490  106.9936  105.7554 N   0  0  0  0  0  0  0  0  0  0  0  0
  121.7773  105.7654  105.4508 N   0  0  0  0  0  0  0  0  0  0  0  0
  122.2726  104.0606  106.7956 N   0  0  0  0  0  0  0  0  0  0  0  0
  119.9677  103.5761  104.2885 N   0  0  0  0  0  0  0  0  0  0  0  0
  124.8453  104.0256  108.1668 H   0  0  0  0  0  0  0  0  0  0  0  0
  126.4036  105.9465  107.7618 H   0  0  0  0  0  0  0  0  0  0  0  0
  126.6188  107.8571  105.3258 H   0  0  0  0  0  0  0  0  0  0  0  0
  125.4156  108.9989  105.9738 H   0  0  0  0  0  0  0  0  0  0  0  0
  126.5907  108.2600  107.0603 H   0  0  0  0  0  0  0  0  0  0  0  0
  117.5009  107.2581  106.3631 H   0  0  0  0  0  0  0  0  0  0  0  0
  117.1107  107.5153  104.6509 H   0  0  0  0  0  0  0  0  0  0  0  0
  116.4283  106.1291  105.5179 H   0  0  0  0  0  0  0  0  0  0  0  0
  118.2976  105.4128  104.0517 H   0  0  0  0  0  0  0  0  0  0  0  0
  119.3833  106.5507  104.8535 H   0  0  0  0  0  0  0  0  0  0  0  0
  119.0660  105.3645  107.0204 H   0  0  0  0  0  0  0  0  0  0  0  0
  117.9398  104.2423  106.2610 H   0  0  0  0  0  0  0  0  0  0  0  0
  119.9583  103.0183  106.2461 H   0  0  0  0  0  0  0  0  0  0  0  0
  122.1682  103.1877  107.2961 H   0  0  0  0  0  0  0  0  0  0  0  0
  119.0717  103.4168  103.8633 H   0  0  0  0  0  0  0  0  0  0  0  0
  120.8138  103.2825  103.8335 H   0  0  0  0  0  0  0  0  0  0  0  0
  1  2  2  0  0  0  0
  1  3  1  0  0  0  0
  2  4  1  0  0  0  0
  3  5  2  0  0  0  0
  3 14  1  0  0  0  0
  4  7  1  0  0  0  0
  4 12  2  0  0  0  0
  5 12  1  0  0  0  0
  5 13  1  0  0  0  0
  6 11  1  0  0  0  0
  6 13  2  0  0  0  0
  6 14  1  0  0  0  0
  8  9  1  0  0  0  0
  9 10  1  0  0  0  0
 10 11  1  0  0  0  0
 11 15  1  0  0  0  0
  1 16  1  0  0  0  0
  2 17  1  0  0  0  0
  7 18  1  0  0  0  0
  7 19  1  0  0  0  0
  7 20  1  0  0  0  0
  8 21  1  0  0  0  0
  8 22  1  0  0  0  0
  8 23  1  0  0  0  0
  9 24  1  0  0  0  0
  9 25  1  0  0  0  0
 10 26  1  0  0  0  0
 10 27  1  0  0  0  0
 11 28  1  0  0  0  0
 14 29  1  0  0  0  0
 15 30  1  0  0  0  0
 15 31  1  0  0  0  0
M  END
> <FRED Chemgauss4 score>
-10.183526

$$$$
C45064847	P67934202
  -OEChem-05122015313D

 41 42  0     1  0  0  0  0  0999 V2000
  120.4265  106.8743  107.5768 C   0  0  0  0  0  0  0  0  0  0  0  0
  121.8732  107.1044  107.3920 C   0  0  0  0  0  0  0  0  0  0  0  0
  116.5533  107.4244  103.7574 C   0  0  0  0  0  0  0  0  0  0  0  0
  117.2375  108.6158  104.4299 C   0  0  0  0  0  0  0  0  0  0  0  0
  119.5440  103.7541  105.7486 C   0  0  0  0  0  0  0  0  0  0  0  0
  116.8820  106.2067  104.6157 C   0  0  0  0  0  0  0  0  0  0  0  0
  117.9294  108.0605  105.6705 C   0  0  0  0  0  0  0  0  0  0  0  0
  118.2077  104.2507  106.2854 C   0  0  0  0  0  0  0  0  0  0  0  0
  120.5572  104.5372  106.5703 C   0  0  0  0  0  0  0  0  0  0  0  0
  118.1732  106.5937  105.3300 C   0  0  0  0  0  0  0  0  0  0  0  0
  118.4631  105.7362  106.5494 C   0  0  2  0  0  0  0  0  0  0  0  0
  124.3658  108.7020  108.8580 C   0  0  0  0  0  0  0  0  0  0  0  0
  123.9971  107.2423  108.6529 C   0  0  0  0  0  0  0  0  0  0  0  0
  119.8810  105.7878  106.9161 N   0  0  0  0  0  0  0  0  0  0  0  0
  123.8717  109.5406  107.7991 N   0  0  0  0  0  0  0  0  0  0  0  0
  122.5665  107.0503  108.5806 N   0  0  0  0  0  0  0  0  0  0  0  0
  119.7946  107.6452  108.2988 O   0  0  0  0  0  0  0  0  0  0  0  0
  122.3262  107.3105  106.2765 O   0  0  0  0  0  0  0  0  0  0  0  0
  115.4716  107.5708  103.6728 H   0  0  0  0  0  0  0  0  0  0  0  0
  116.9471  107.2947  102.7426 H   0  0  0  0  0  0  0  0  0  0  0  0
  117.9739  109.0534  103.7461 H   0  0  0  0  0  0  0  0  0  0  0  0
  116.5231  109.4032  104.6899 H   0  0  0  0  0  0  0  0  0  0  0  0
  119.6691  102.6724  105.8493 H   0  0  0  0  0  0  0  0  0  0  0  0
  119.6407  104.0097  104.6870 H   0  0  0  0  0  0  0  0  0  0  0  0
  116.0734  106.0338  105.3365 H   0  0  0  0  0  0  0  0  0  0  0  0
  116.9943  105.2993  104.0140 H   0  0  0  0  0  0  0  0  0  0  0  0
  118.8562  108.5962  105.8972 H   0  0  0  0  0  0  0  0  0  0  0  0
  117.2651  108.1554  106.5384 H   0  0  0  0  0  0  0  0  0  0  0  0
  117.3776  104.0637  105.5980 H   0  0  0  0  0  0  0  0  0  0  0  0
  117.9865  103.7402  107.2311 H   0  0  0  0  0  0  0  0  0  0  0  0
  120.7994  104.0185  107.5043 H   0  0  0  0  0  0  0  0  0  0  0  0
  121.4834  104.7372  106.0237 H   0  0  0  0  0  0  0  0  0  0  0  0
  119.0131  106.5202  104.6254 H   0  0  0  0  0  0  0  0  0  0  0  0
  117.8600  106.0980  107.3891 H   0  0  0  0  0  0  0  0  0  0  0  0
  125.4511  108.8374  108.9030 H   0  0  0  0  0  0  0  0  0  0  0  0
  123.9296  109.0724  109.7910 H   0  0  0  0  0  0  0  0  0  0  0  0
  124.4187  106.8736  107.7127 H   0  0  0  0  0  0  0  0  0  0  0  0
  124.3722  106.6177  109.4700 H   0  0  0  0  0  0  0  0  0  0  0  0
  123.9040  109.2036  106.8502 H   0  0  0  0  0  0  0  0  0  0  0  0
  123.6935  110.5144  107.9865 H   0  0  0  0  0  0  0  0  0  0  0  0
  122.0533  106.8686  109.4384 H   0  0  0  0  0  0  0  0  0  0  0  0
  1  2  1  0  0  0  0
  1 14  1  0  0  0  0
  1 17  2  0  0  0  0
  2 16  1  0  0  0  0
  2 18  2  0  0  0  0
  3  4  1  0  0  0  0
  3  6  1  0  0  0  0
  4  7  1  0  0  0  0
  5  8  1  0  0  0  0
  5  9  1  0  0  0  0
  6 10  1  0  0  0  0
  7 10  1  0  0  0  0
  8 11  1  0  0  0  0
  9 14  1  0  0  0  0
 10 11  1  0  0  0  0
 11 14  1  0  0  0  0
 12 13  1  0  0  0  0
 12 15  1  0  0  0  0
 13 16  1  0  0  0  0
  3 19  1  0  0  0  0
  3 20  1  0  0  0  0
  4 21  1  0  0  0  0
  4 22  1  0  0  0  0
  5 23  1  0  0  0  0
  5 24  1  0  0  0  0
  6 25  1  0  0  0  0
  6 26  1  0  0  0  0
  7 27  1  0  0  0  0
  7 28  1  0  0  0  0
  8 29  1  0  0  0  0
  8 30  1  0  0  0  0
  9 31  1  0  0  0  0
  9 32  1  0  0  0  0
 10 33  1  0  0  0  0
 11 34  1  0  0  0  0
 12 35  1  0  0  0  0
 12 36  1  0  0  0  0
 13 37  1  0  0  0  0
 13 38  1  0  0  0  0
 15 39  1  0  0  0  0
 15 40  1  0  0  0  0
 16 41  1  0  0  0  0
M  END
> <FRED Chemgauss4 score>
-10.179403

$$$$
C70415977	P108563875
  -OEChem-05122015313D

 32 33  0     0  0  0  0  0  0999 V2000
  121.3734  108.1353  106.2551 C   0  0  0  0  0  0  0  0  0  0  0  0
  121.0912  106.6283  108.1223 C   0  0  0  0  0  0  0  0  0  0  0  0
  120.2728  107.5575  105.6224 C   0  0  0  0  0  0  0  0  0  0  0  0
  119.9904  106.0505  107.4896 C   0  0  0  0  0  0  0  0  0  0  0  0
  124.7715  105.4409  107.7099 C   0  0  0  0  0  0  0  0  0  0  0  0
  126.4208  105.3477  109.1835 C   0  0  0  0  0  0  0  0  0  0  0  0
  121.7827  107.6706  107.5051 C   0  0  0  0  0  0  0  0  0  0  0  0
  119.5813  106.5152  106.2396 C   0  0  0  0  0  0  0  0  0  0  0  0
  125.0845  106.7201  108.0738 C   0  0  0  0  0  0  0  0  0  0  0  0
  116.6921  104.4144  105.4628 C   0  0  0  0  0  0  0  0  0  0  0  0
  117.8462  104.8903  106.3098 C   0  0  0  0  0  0  0  0  0  0  0  0
  122.8465  108.2277  108.1155 N   0  5  0  0  0  0  0  0  0  0  0  0
  126.1077  106.6326  108.9868 N   0  0  0  0  0  0  0  0  0  0  0  0
  125.6140  104.6126  108.4115 N   0  3  0  0  0  0  0  0  0  0  0  0
  117.0374  103.9056  104.2397 N   0  0  0  0  0  0  0  0  0  0  0  0
  125.2055  109.2701  107.9938 O   0  0  0  0  0  0  0  0  0  0  0  0
  124.3594  108.0656  106.0291 O   0  0  0  0  0  0  0  0  0  0  0  0
  118.5069  105.9517  105.6224 O   0  0  0  0  0  0  0  0  0  0  0  0
  115.1084  104.4790  105.9905 S   0  0  0  0  0  0  0  0  0  0  0  0
  124.3098  108.2362  107.4797 S   0  0  0  0  0  0  0  0  0  0  0  0
  121.9007  108.9466  105.7579 H   0  0  0  0  0  0  0  0  0  0  0  0
  121.3960  106.2522  109.0965 H   0  0  0  0  0  0  0  0  0  0  0  0
  119.9590  107.9230  104.6480 H   0  0  0  0  0  0  0  0  0  0  0  0
  119.4564  105.2383  107.9749 H   0  0  0  0  0  0  0  0  0  0  0  0
  124.0659  104.9814  107.0467 H   0  0  0  0  0  0  0  0  0  0  0  0
  127.1848  104.9735  109.8442 H   0  0  0  0  0  0  0  0  0  0  0  0
  117.4842  105.2800  107.2663 H   0  0  0  0  0  0  0  0  0  0  0  0
  118.5630  104.0877  106.5100 H   0  0  0  0  0  0  0  0  0  0  0  0
  126.5594  107.4207  109.4424 H   0  0  0  0  0  0  0  0  0  0  0  0
  125.6257  103.5981  108.3539 H   0  0  0  0  0  0  0  0  0  0  0  0
  118.0011  103.8516  103.9262 H   0  0  0  0  0  0  0  0  0  0  0  0
  116.3310  103.5592  103.5990 H   0  0  0  0  0  0  0  0  0  0  0  0
  1  3  1  0  0  0  0
  1  7  2  0  0  0  0
  2  4  2  0  0  0  0
  2  7  1  0  0  0  0
  3  8  2  0  0  0  0
  4  8  1  0  0  0  0
  5  9  2  0  0  0  0
  5 14  1  0  0  0  0
  6 13  1  0  0  0  0
  6 14  2  0  0  0  0
  7 12  1  0  0  0  0
  8 18  1  0  0  0  0
  9 13  1  0  0  0  0
  9 20  1  0  0  0  0
 10 11  1  0  0  0  0
 10 15  1  0  0  0  0
 10 19  2  0  0  0  0
 11 18  1  0  0  0  0
 12 20  1  0  0  0  0
 16 20  2  0  0  0  0
 17 20  2  0  0  0  0
  1 21  1  0  0  0  0
  2 22  1  0  0  0  0
  3 23  1  0  0  0  0
  4 24  1  0  0  0  0
  5 25  1  0  0  0  0
  6 26  1  0  0  0  0
 11 27  1  0  0  0  0
 11 28  1  0  0  0  0
 13 29  1  0  0  0  0
 14 30  1  0  0  0  0
 15 31  1  0  0  0  0
 15 32  1  0  0  0  0
M  CHG  2  12  -1  14   1
M  END
> <FRED Chemgauss4 score>
-10.174888

$$$$
C48977008	P73168995
  -OEChem-05122015313D

 35 37  0     1  0  0  0  0  0999 V2000
  123.5020  108.5045  108.8777 C   0  0  0  0  0  0  0  0  0  0  0  0
  124.1459  109.1730  109.9588 C   0  0  0  0  0  0  0  0  0  0  0  0
  119.2288  107.6991  106.6526 C   0  0  0  0  0  0  0  0  0  0  0  0
  122.1465  108.7483  108.8522 C   0  0  0  0  0  0  0  0  0  0  0  0
  120.4068  107.1406  106.2027 C   0  0  0  0  0  0  0  0  0  0  0  0
  123.2578  109.9026  110.7184 C   0  0  0  0  0  0  0  0  0  0  0  0
  121.2018  108.2479  107.9208 C   0  0  0  0  0  0  0  0  0  0  0  0
  120.4993  106.2618  105.0312 C   0  0  0  0  0  0  0  0  0  0  0  0
  118.0008  104.2189  106.5300 C   0  0  0  0  0  0  0  0  0  0  0  0
  117.3537  103.5162  105.3357 C   0  0  0  0  0  0  0  0  0  0  0  0
  119.4997  104.4022  106.3160 C   0  0  0  0  0  0  0  0  0  0  0  0
  119.2083  104.3998  103.8617 C   0  0  0  0  0  0  0  0  0  0  0  0
  117.6913  104.1965  103.9988 C   0  0  2  0  0  0  0  0  0  0  0  0
  116.9396  105.5206  103.8318 C   0  0  0  0  0  0  0  0  0  0  0  0
  121.5393  107.4545  106.9285 N   0  0  0  0  0  0  0  0  0  0  0  0
  119.7685  105.0713  105.0435 N   0  0  0  0  0  0  0  0  0  0  0  0
  121.2245  106.6506  104.1169 O   0  0  0  0  0  0  0  0  0  0  0  0
  119.5394  108.6565  108.0412 S   0  0  0  0  0  0  0  0  0  0  0  0
  121.6551  109.7797  110.1279 S   0  0  0  0  0  0  0  0  0  0  0  0
  123.5943  110.8540  112.1035 Cl  0  0  0  0  0  0  0  0  0  0  0  0
  124.0163  107.8778  108.1594 H   0  0  0  0  0  0  0  0  0  0  0  0
  125.2076  109.1176  110.1635 H   0  0  0  0  0  0  0  0  0  0  0  0
  118.2312  107.5974  106.2488 H   0  0  0  0  0  0  0  0  0  0  0  0
  117.5239  105.1913  106.6915 H   0  0  0  0  0  0  0  0  0  0  0  0
  117.8325  103.6192  107.4327 H   0  0  0  0  0  0  0  0  0  0  0  0
  117.6783  102.4630  105.3146 H   0  0  0  0  0  0  0  0  0  0  0  0
  116.2599  103.4969  105.4794 H   0  0  0  0  0  0  0  0  0  0  0  0
  119.9299  105.0244  107.1122 H   0  0  0  0  0  0  0  0  0  0  0  0
  120.0020  103.4284  106.3582 H   0  0  0  0  0  0  0  0  0  0  0  0
  119.6954  103.4332  103.6822 H   0  0  0  0  0  0  0  0  0  0  0  0
  119.4386  105.0334  102.9914 H   0  0  0  0  0  0  0  0  0  0  0  0
  117.3657  103.5196  103.1841 H   0  0  0  0  0  0  0  0  0  0  0  0
  117.2342  106.2150  104.6174 H   0  0  0  0  0  0  0  0  0  0  0  0
  115.8663  105.3471  103.8942 H   0  0  0  0  0  0  0  0  0  0  0  0
  117.1737  105.9592  102.8628 H   0  0  0  0  0  0  0  0  0  0  0  0
  1  2  1  0  0  0  0
  1  4  2  0  0  0  0
  2  6  2  0  0  0  0
  3  5  2  0  0  0  0
  3 18  1  0  0  0  0
  4  7  1  0  0  0  0
  4 19  1  0  0  0  0
  5  8  1  0  0  0  0
  5 15  1  0  0  0  0
  6 19  1  0  0  0  0
  6 20  1  0  0  0  0
  7 15  2  0  0  0  0
  7 18  1  0  0  0  0
  8 16  1  0  0  0  0
  8 17  2  0  0  0  0
  9 10  1  0  0  0  0
  9 11  1  0  0  0  0
 10 13  1  0  0  0  0
 11 16  1  0  0  0  0
 12 13  1  0  0  0  0
 12 16  1  0  0  0  0
 13 14  1  0  0  0  0
  1 21  1  0  0  0  0
  2 22  1  0  0  0  0
  3 23  1  0  0  0  0
  9 24  1  0  0  0  0
  9 25  1  0  0  0  0
 10 26  1  0  0  0  0
 10 27  1  0  0  0  0
 11 28  1  0  0  0  0
 11 29  1  0  0  0  0
 12 30  1  0  0  0  0
 12 31  1  0  0  0  0
 13 32  1  0  0  0  0
 14 33  1  0  0  0  0
 14 34  1  0  0  0  0
 14 35  1  0  0  0  0
M  END
> <FRED Chemgauss4 score>
-10.172343

$$$$
C88750425	P138824152
  -OEChem-05122015313D

 36 37  0     0  0  0  0  0  0999 V2000
  118.6381  106.4971  106.3839 C   0  0  0  0  0  0  0  0  0  0  0  0
  117.7463  105.4246  106.3917 C   0  0  0  0  0  0  0  0  0  0  0  0
  120.0103  106.2640  106.4753 C   0  0  0  0  0  0  0  0  0  0  0  0
  119.5990  103.8857  106.5828 C   0  0  0  0  0  0  0  0  0  0  0  0
  123.1951  108.6011  111.3249 C   0  0  0  0  0  0  0  0  0  0  0  0
  123.1702  110.7904  111.5753 C   0  0  0  0  0  0  0  0  0  0  0  0
  118.2268  104.1188  106.4912 C   0  0  0  0  0  0  0  0  0  0  0  0
  120.4908  104.9582  106.5748 C   0  0  0  0  0  0  0  0  0  0  0  0
  123.9964  109.2226  110.3964 C   0  0  0  0  0  0  0  0  0  0  0  0
  124.8231  108.5934  109.3125 C   0  0  0  0  0  0  0  0  0  0  0  0
  122.8389  106.3711  106.6316 C   0  0  0  0  0  0  0  0  0  0  0  0
  124.3537  106.3972  106.7169 C   0  0  0  0  0  0  0  0  0  0  0  0
  123.9768  110.5854  110.5579 N   0  0  0  0  0  0  0  0  0  0  0  0
  122.6730  109.6182  112.0733 N   0  0  0  0  0  0  0  0  0  0  0  0
  117.3246  103.0348  106.4992 N   0  0  0  0  0  0  0  0  0  0  0  0
  124.2062  108.7558  107.9837 N   0  0  0  0  0  0  0  0  0  0  0  0
  126.4021  108.0226  106.8284 O   0  0  0  0  0  0  0  0  0  0  0  0
  124.4071  108.6637  105.4264 O   0  0  0  0  0  0  0  0  0  0  0  0
  122.2289  104.6640  106.6907 S   0  0  0  0  0  0  0  0  0  0  0  0
  124.9677  108.0634  106.6217 S   0  0  0  0  0  0  0  0  0  0  0  0
  118.2638  107.5138  106.3063 H   0  0  0  0  0  0  0  0  0  0  0  0
  116.6791  105.6177  106.3199 H   0  0  0  0  0  0  0  0  0  0  0  0
  120.6897  107.1128  106.4674 H   0  0  0  0  0  0  0  0  0  0  0  0
  119.9659  102.8640  106.6601 H   0  0  0  0  0  0  0  0  0  0  0  0
  122.9554  107.5652  111.5179 H   0  0  0  0  0  0  0  0  0  0  0  0
  122.9070  111.7507  111.9960 H   0  0  0  0  0  0  0  0  0  0  0  0
  125.8214  109.0431  109.2781 H   0  0  0  0  0  0  0  0  0  0  0  0
  124.9553  107.5212  109.4914 H   0  0  0  0  0  0  0  0  0  0  0  0
  122.4966  106.8326  105.6996 H   0  0  0  0  0  0  0  0  0  0  0  0
  122.3944  106.9324  107.4598 H   0  0  0  0  0  0  0  0  0  0  0  0
  124.8178  105.8487  105.8909 H   0  0  0  0  0  0  0  0  0  0  0  0
  124.7158  105.9878  107.6653 H   0  0  0  0  0  0  0  0  0  0  0  0
  122.0350  109.5218  112.8520 H   0  0  0  0  0  0  0  0  0  0  0  0
  116.3418  103.2178  106.4805 H   0  0  0  0  0  0  0  0  0  0  0  0
  117.6782  102.1070  106.6183 H   0  0  0  0  0  0  0  0  0  0  0  0
  123.1780  108.7453  107.9970 H   0  0  0  0  0  0  0  0  0  0  0  0
  1  2  1  0  0  0  0
  1  3  2  0  0  0  0
  2  7  2  0  0  0  0
  3  8  1  0  0  0  0
  4  7  1  0  0  0  0
  4  8  2  0  0  0  0
  5  9  2  0  0  0  0
  5 14  1  0  0  0  0
  6 13  2  0  0  0  0
  6 14  1  0  0  0  0
  7 15  1  0  0  0  0
  8 19  1  0  0  0  0
  9 10  1  0  0  0  0
  9 13  1  0  0  0  0
 10 16  1  0  0  0  0
 11 12  1  0  0  0  0
 11 19  1  0  0  0  0
 12 20  1  0  0  0  0
 16 20  1  0  0  0  0
 17 20  2  0  0  0  0
 18 20  2  0  0  0  0
  1 21  1  0  0  0  0
  2 22  1  0  0  0  0
  3 23  1  0  0  0  0
  4 24  1  0  0  0  0
  5 25  1  0  0  0  0
  6 26  1  0  0  0  0
 10 27  1  0  0  0  0
 10 28  1  0  0  0  0
 11 29  1  0  0  0  0
 11 30  1  0  0  0  0
 12 31  1  0  0  0  0
 12 32  1  0  0  0  0
 14 33  1  0  0  0  0
 15 34  1  0  0  0  0
 15 35  1  0  0  0  0
 16 36  1  0  0  0  0
M  END
> <FRED Chemgauss4 score>
-10.162430

$$$$
C77237642	P120494560
  -OEChem-05122015313D

 35 36  0     1  0  0  0  0  0999 V2000
  126.5613  107.9777  107.3263 C   0  0  0  0  0  0  0  0  0  0  0  0
  124.2936  107.4780  106.5595 C   0  0  0  0  0  0  0  0  0  0  0  0
  125.6505  105.7150  107.5016 C   0  0  0  0  0  0  0  0  0  0  0  0
  125.4932  107.0496  107.1278 C   0  0  0  0  0  0  0  0  0  0  0  0
  123.4084  105.2371  106.7389 C   0  0  0  0  0  0  0  0  0  0  0  0
  123.2511  106.5718  106.3651 C   0  0  0  0  0  0  0  0  0  0  0  0
  124.6080  104.8087  107.3071 C   0  0  0  0  0  0  0  0  0  0  0  0
  117.8796  104.9525  106.1849 C   0  0  0  0  0  0  0  0  0  0  0  0
  117.9098  105.4418  104.7406 C   0  0  0  0  0  0  0  0  0  0  0  0
  118.6789  103.6629  106.3630 C   0  0  0  0  0  0  0  0  0  0  0  0
  119.3387  105.5878  104.2188 C   0  0  0  0  0  0  0  0  0  0  0  0
  120.1221  103.7716  105.8400 C   0  0  1  0  0  0  0  0  0  0  0  0
  120.1516  104.3021  104.3959 C   0  0  1  0  0  0  0  0  0  0  0  0
  120.9899  104.6241  106.7697 C   0  0  0  0  0  0  0  0  0  0  0  0
  127.4288  108.7315  107.4875 N   0  0  0  0  0  0  0  0  0  0  0  0
  122.3635  104.3295  106.5448 N   0  0  0  0  0  0  0  0  0  0  0  0
  119.6175  103.2906  103.5386 O   0  0  0  0  0  0  0  0  0  0  0  0
  122.1019  106.9947  105.8194 F   0  0  0  0  0  0  0  0  0  0  0  0
  124.7698  103.5284  107.6704 F   0  0  0  0  0  0  0  0  0  0  0  0
  124.1558  108.5150  106.2631 H   0  0  0  0  0  0  0  0  0  0  0  0
  126.5794  105.3656  107.9456 H   0  0  0  0  0  0  0  0  0  0  0  0
  118.2828  105.7292  106.8454 H   0  0  0  0  0  0  0  0  0  0  0  0
  116.8398  104.7820  106.4917 H   0  0  0  0  0  0  0  0  0  0  0  0
  117.3554  104.7430  104.1018 H   0  0  0  0  0  0  0  0  0  0  0  0
  117.3963  106.4102  104.6703 H   0  0  0  0  0  0  0  0  0  0  0  0
  118.6923  103.3931  107.4319 H   0  0  0  0  0  0  0  0  0  0  0  0
  118.1563  102.8427  105.8460 H   0  0  0  0  0  0  0  0  0  0  0  0
  119.3184  105.8687  103.1572 H   0  0  0  0  0  0  0  0  0  0  0  0
  119.8410  106.4170  104.7327 H   0  0  0  0  0  0  0  0  0  0  0  0
  120.5685  102.7576  105.8362 H   0  0  0  0  0  0  0  0  0  0  0  0
  121.1911  104.4783  104.0849 H   0  0  0  0  0  0  0  0  0  0  0  0
  120.7321  104.3875  107.7922 H   0  0  0  0  0  0  0  0  0  0  0  0
  120.8049  105.6672  106.5584 H   0  0  0  0  0  0  0  0  0  0  0  0
  122.6261  103.3947  106.2197 H   0  0  0  0  0  0  0  0  0  0  0  0
  119.6918  103.6287  102.6328 H   0  0  0  0  0  0  0  0  0  0  0  0
  1  4  1  0  0  0  0
  1 15  3  0  0  0  0
  2  4  1  0  0  0  0
  2  6  2  0  0  0  0
  3  4  2  0  0  0  0
  3  7  1  0  0  0  0
  5  6  1  0  0  0  0
  5  7  2  0  0  0  0
  5 16  1  0  0  0  0
  6 18  1  0  0  0  0
  7 19  1  0  0  0  0
  8  9  1  0  0  0  0
  8 10  1  0  0  0  0
  9 11  1  0  0  0  0
 10 12  1  0  0  0  0
 11 13  1  0  0  0  0
 12 13  1  0  0  0  0
 12 14  1  0  0  0  0
 13 17  1  0  0  0  0
 14 16  1  0  0  0  0
  2 20  1  0  0  0  0
  3 21  1  0  0  0  0
  8 22  1  0  0  0  0
  8 23  1  0  0  0  0
  9 24  1  0  0  0  0
  9 25  1  0  0  0  0
 10 26  1  0  0  0  0
 10 27  1  0  0  0  0
 11 28  1  0  0  0  0
 11 29  1  0  0  0  0
 12 30  1  0  0  0  0
 13 31  1  0  0  0  0
 14 32  1  0  0  0  0
 14 33  1  0  0  0  0
 16 34  1  0  0  0  0
 17 35  1  0  0  0  0
M  END
> <FRED Chemgauss4 score>
-10.139329

$$$$
C70521692	P108791441
  -OEChem-05122015313D

 45 46  0     1  0  0  0  0  0999 V2000
  119.5795  106.3325  106.9824 C   0  0  0  0  0  0  0  0  0  0  0  0
  119.6729  103.9789  106.4450 C   0  0  0  0  0  0  0  0  0  0  0  0
  118.2640  106.3855  106.5218 C   0  0  0  0  0  0  0  0  0  0  0  0
  118.3573  104.0318  105.9845 C   0  0  0  0  0  0  0  0  0  0  0  0
  120.2841  105.1292  106.9439 C   0  0  0  0  0  0  0  0  0  0  0  0
  117.6529  105.2351  106.0229 C   0  0  0  0  0  0  0  0  0  0  0  0
  122.0931  105.9496  108.4658 C   0  0  0  0  0  0  0  0  0  0  0  0
  122.6507  104.4710  106.5869 C   0  0  0  0  0  0  0  0  0  0  0  0
  122.9578  107.0533  107.8510 C   0  0  0  0  0  0  0  0  0  0  0  0
  123.5242  105.5882  105.9984 C   0  0  0  0  0  0  0  0  0  0  0  0
  125.4115  109.1456  108.3750 C   0  0  0  0  0  0  0  0  0  0  0  0
  115.7076  106.5491  105.6417 C   0  0  0  0  0  0  0  0  0  0  0  0
  124.8888  107.5184  106.4813 C   0  0  0  0  0  0  0  0  0  0  0  0
  126.7309  106.9679  108.2051 C   0  0  0  0  0  0  0  0  0  0  0  0
  125.9719  108.0701  107.4347 C   0  0  2  0  0  0  0  0  0  0  0  0
  121.5943  105.0765  107.4025 N   0  0  0  0  0  0  0  0  0  0  0  0
  124.0506  106.4673  107.0559 N   0  0  0  0  0  0  0  0  0  0  0  0
  126.1510  106.6040  109.4909 N   0  0  0  0  0  0  0  0  0  0  0  0
  126.9619  108.7113  106.6099 O   0  0  0  0  0  0  0  0  0  0  0  0
  116.3691  105.2868  105.5736 O   0  0  0  0  0  0  0  0  0  0  0  0
  120.0460  107.2349  107.3691 H   0  0  0  0  0  0  0  0  0  0  0  0
  120.2127  103.0360  106.4104 H   0  0  0  0  0  0  0  0  0  0  0  0
  117.7203  107.3257  106.5543 H   0  0  0  0  0  0  0  0  0  0  0  0
  117.8866  103.1324  105.5970 H   0  0  0  0  0  0  0  0  0  0  0  0
  122.6990  105.3791  109.1732 H   0  0  0  0  0  0  0  0  0  0  0  0
  121.2548  106.3926  109.0101 H   0  0  0  0  0  0  0  0  0  0  0  0
  122.2106  103.8811  105.7818 H   0  0  0  0  0  0  0  0  0  0  0  0
  123.2764  103.8190  107.1961 H   0  0  0  0  0  0  0  0  0  0  0  0
  122.3214  107.6725  107.2127 H   0  0  0  0  0  0  0  0  0  0  0  0
  123.3583  107.6929  108.6446 H   0  0  0  0  0  0  0  0  0  0  0  0
  124.3462  105.1446  105.4205 H   0  0  0  0  0  0  0  0  0  0  0  0
  122.9100  106.1685  105.2992 H   0  0  0  0  0  0  0  0  0  0  0  0
  126.1951  109.5232  109.0422 H   0  0  0  0  0  0  0  0  0  0  0  0
  124.5878  108.7771  108.9935 H   0  0  0  0  0  0  0  0  0  0  0  0
  125.0536  110.0095  107.8032 H   0  0  0  0  0  0  0  0  0  0  0  0
  114.6915  106.4503  105.2522 H   0  0  0  0  0  0  0  0  0  0  0  0
  116.2640  107.2851  105.0559 H   0  0  0  0  0  0  0  0  0  0  0  0
  115.6658  106.8727  106.6845 H   0  0  0  0  0  0  0  0  0  0  0  0
  124.2514  108.3429  106.1377 H   0  0  0  0  0  0  0  0  0  0  0  0
  125.3672  107.1230  105.5766 H   0  0  0  0  0  0  0  0  0  0  0  0
  126.7998  106.0680  107.5804 H   0  0  0  0  0  0  0  0  0  0  0  0
  127.7675  107.2898  108.3650 H   0  0  0  0  0  0  0  0  0  0  0  0
  126.7548  106.2301  110.1929 H   0  0  0  0  0  0  0  0  0  0  0  0
  125.1564  106.5462  109.5613 H   0  0  0  0  0  0  0  0  0  0  0  0
  127.3031  108.0218  106.0259 H   0  0  0  0  0  0  0  0  0  0  0  0
  1  3  2  0  0  0  0
  1  5  1  0  0  0  0
  2  4  1  0  0  0  0
  2  5  2  0  0  0  0
  3  6  1  0  0  0  0
  4  6  2  0  0  0  0
  5 16  1  0  0  0  0
  6 20  1  0  0  0  0
  7  9  1  0  0  0  0
  7 16  1  0  0  0  0
  8 10  1  0  0  0  0
  8 16  1  0  0  0  0
  9 17  1  0  0  0  0
 10 17  1  0  0  0  0
 11 15  1  0  0  0  0
 12 20  1  0  0  0  0
 13 15  1  0  0  0  0
 13 17  1  0  0  0  0
 14 15  1  0  0  0  0
 14 18  1  0  0  0  0
 15 19  1  0  0  0  0
  1 21  1  0  0  0  0
  2 22  1  0  0  0  0
  3 23  1  0  0  0  0
  4 24  1  0  0  0  0
  7 25  1  0  0  0  0
  7 26  1  0  0  0  0
  8 27  1  0  0  0  0
  8 28  1  0  0  0  0
  9 29  1  0  0  0  0
  9 30  1  0  0  0  0
 10 31  1  0  0  0  0
 10 32  1  0  0  0  0
 11 33  1  0  0  0  0
 11 34  1  0  0  0  0
 11 35  1  0  0  0  0
 12 36  1  0  0  0  0
 12 37  1  0  0  0  0
 12 38  1  0  0  0  0
 13 39  1  0  0  0  0
 13 40  1  0  0  0  0
 14 41  1  0  0  0  0
 14 42  1  0  0  0  0
 18 43  1  0  0  0  0
 18 44  1  0  0  0  0
 19 45  1  0  0  0  0
M  END
> <FRED Chemgauss4 score>
-10.135553

$$$$
C63179057	P97024353
  -OEChem-05122015313D

 47 48  0     1  0  0  0  0  0999 V2000
  122.4359  106.8055  105.8931 C   0  0  0  0  0  0  0  0  0  0  0  0
  123.9135  107.6962  109.3461 C   0  0  0  0  0  0  0  0  0  0  0  0
  118.8235  104.5447  106.5967 C   0  0  0  0  0  0  0  0  0  0  0  0
  118.8950  105.9703  107.1358 C   0  0  0  0  0  0  0  0  0  0  0  0
  120.1608  103.8238  106.7379 C   0  0  0  0  0  0  0  0  0  0  0  0
  125.5306  108.3776  106.7461 C   0  0  0  0  0  0  0  0  0  0  0  0
  120.0272  106.7617  106.4865 C   0  0  0  0  0  0  0  0  0  0  0  0
  121.2961  104.6103  106.0880 C   0  0  0  0  0  0  0  0  0  0  0  0
  126.0028  107.6076  107.9808 C   0  0  0  0  0  0  0  0  0  0  0  0
  124.8172  107.4584  105.7613 C   0  0  0  0  0  0  0  0  0  0  0  0
  124.1286  105.9417  107.5870 C   0  0  0  0  0  0  0  0  0  0  0  0
  121.3708  106.0421  106.6229 C   0  0  0  0  0  0  0  0  0  0  0  0
  124.8722  106.7945  108.6199 C   0  0  2  0  0  0  0  0  0  0  0  0
  123.2257  108.7511  112.4139 C   0  0  0  0  0  0  0  0  0  0  0  0
  123.7636  109.4009  111.1501 C   0  0  0  0  0  0  0  0  0  0  0  0
  123.7264  106.7372  106.4181 N   0  0  0  0  0  0  0  0  0  0  0  0
  124.2773  108.2361  113.2491 N   0  0  0  0  0  0  0  0  0  0  0  0
  124.5016  108.4652  110.3321 N   0  0  0  0  0  0  0  0  0  0  0  0
  122.1320  107.4478  104.8846 O   0  0  0  0  0  0  0  0  0  0  0  0
  122.7285  107.6951  109.0338 O   0  0  0  0  0  0  0  0  0  0  0  0
  118.0481  103.9876  107.1372 H   0  0  0  0  0  0  0  0  0  0  0  0
  118.5255  104.5646  105.5422 H   0  0  0  0  0  0  0  0  0  0  0  0
  117.9401  106.4758  106.9535 H   0  0  0  0  0  0  0  0  0  0  0  0
  119.0390  105.9457  108.2210 H   0  0  0  0  0  0  0  0  0  0  0  0
  120.3832  103.6734  107.8006 H   0  0  0  0  0  0  0  0  0  0  0  0
  120.0891  102.8264  106.2884 H   0  0  0  0  0  0  0  0  0  0  0  0
  124.8514  109.1818  107.0544 H   0  0  0  0  0  0  0  0  0  0  0  0
  126.3880  108.8524  106.2567 H   0  0  0  0  0  0  0  0  0  0  0  0
  119.7898  106.9410  105.4395 H   0  0  0  0  0  0  0  0  0  0  0  0
  120.1041  107.7301  106.9810 H   0  0  0  0  0  0  0  0  0  0  0  0
  122.2409  104.1093  106.3055 H   0  0  0  0  0  0  0  0  0  0  0  0
  121.1633  104.6108  105.0059 H   0  0  0  0  0  0  0  0  0  0  0  0
  126.8101  106.9251  107.6861 H   0  0  0  0  0  0  0  0  0  0  0  0
  126.4282  108.3118  108.7057 H   0  0  0  0  0  0  0  0  0  0  0  0
  124.4452  108.0432  104.9144 H   0  0  0  0  0  0  0  0  0  0  0  0
  125.5115  106.7097  105.3617 H   0  0  0  0  0  0  0  0  0  0  0  0
  124.7871  105.1473  107.2151 H   0  0  0  0  0  0  0  0  0  0  0  0
  123.2714  105.4540  108.0563 H   0  0  0  0  0  0  0  0  0  0  0  0
  121.6657  106.0219  107.6610 H   0  0  0  0  0  0  0  0  0  0  0  0
  125.2990  106.1334  109.3823 H   0  0  0  0  0  0  0  0  0  0  0  0
  122.5556  107.9176  112.1803 H   0  0  0  0  0  0  0  0  0  0  0  0
  122.6739  109.4857  113.0086 H   0  0  0  0  0  0  0  0  0  0  0  0
  122.9391  109.7810  110.5391 H   0  0  0  0  0  0  0  0  0  0  0  0
  124.4346  110.2336  111.3843 H   0  0  0  0  0  0  0  0  0  0  0  0
  125.0687  107.7841  112.8197 H   0  0  0  0  0  0  0  0  0  0  0  0
  124.1190  108.1495  114.2404 H   0  0  0  0  0  0  0  0  0  0  0  0
  125.5002  108.3684  110.4896 H   0  0  0  0  0  0  0  0  0  0  0  0
  1 12  1  0  0  0  0
  1 16  1  0  0  0  0
  1 19  2  0  0  0  0
  2 13  1  0  0  0  0
  2 18  1  0  0  0  0
  2 20  2  0  0  0  0
  3  4  1  0  0  0  0
  3  5  1  0  0  0  0
  4  7  1  0  0  0  0
  5  8  1  0  0  0  0
  6  9  1  0  0  0  0
  6 10  1  0  0  0  0
  7 12  1  0  0  0  0
  8 12  1  0  0  0  0
  9 13  1  0  0  0  0
 10 16  1  0  0  0  0
 11 13  1  0  0  0  0
 11 16  1  0  0  0  0
 14 15  1  0  0  0  0
 14 17  1  0  0  0  0
 15 18  1  0  0  0  0
  3 21  1  0  0  0  0
  3 22  1  0  0  0  0
  4 23  1  0  0  0  0
  4 24  1  0  0  0  0
  5 25  1  0  0  0  0
  5 26  1  0  0  0  0
  6 27  1  0  0  0  0
  6 28  1  0  0  0  0
  7 29  1  0  0  0  0
  7 30  1  0  0  0  0
  8 31  1  0  0  0  0
  8 32  1  0  0  0  0
  9 33  1  0  0  0  0
  9 34  1  0  0  0  0
 10 35  1  0  0  0  0
 10 36  1  0  0  0  0
 11 37  1  0  0  0  0
 11 38  1  0  0  0  0
 12 39  1  0  0  0  0
 13 40  1  0  0  0  0
 14 41  1  0  0  0  0
 14 42  1  0  0  0  0
 15 43  1  0  0  0  0
 15 44  1  0  0  0  0
 17 45  1  0  0  0  0
 17 46  1  0  0  0  0
 18 47  1  0  0  0  0
M  END
> <FRED Chemgauss4 score>
-10.125116

$$$$
C36877036	P120919263
  -OEChem-05122015313D

 30 31  0     1  0  0  0  0  0999 V2000
  123.5424  110.9603  113.1527 C   0  0  0  0  0  0  0  0  0  0  0  0
  123.5787  109.6436  112.6348 C   0  0  0  0  0  0  0  0  0  0  0  0
  123.0321  108.1068  109.5447 C   0  0  0  0  0  0  0  0  0  0  0  0
  123.7784  111.7967  112.0865 C   0  0  0  0  0  0  0  0  0  0  0  0
  123.9630  108.7299  110.3420 C   0  0  0  0  0  0  0  0  0  0  0  0
  123.8340  109.7693  111.2891 C   0  0  0  0  0  0  0  0  0  0  0  0
  124.8888  107.1712  109.0890 C   0  0  0  0  0  0  0  0  0  0  0  0
  124.4460  104.3485  107.9596 C   0  0  0  0  0  0  0  0  0  0  0  0
  124.9307  106.0706  106.2207 C   0  0  0  0  0  0  0  0  0  0  0  0
  125.9951  106.3003  108.5207 C   0  0  1  0  0  0  0  0  0  0  0  0
  125.5099  105.3162  107.4259 C   0  0  0  0  0  0  0  0  0  0  0  0
  123.6147  107.1374  108.7674 N   0  0  0  0  0  0  0  0  0  0  0  0
  125.1475  108.1195  110.0393 N   0  0  0  0  0  0  0  0  0  0  0  0
  127.0361  107.1781  108.0304 N   0  0  0  0  0  0  0  0  0  0  0  0
  123.9570  111.0786  110.9468 O   0  0  0  0  0  0  0  0  0  0  0  0
  123.3664  111.2615  114.1751 H   0  0  0  0  0  0  0  0  0  0  0  0
  123.4355  108.7223  113.1827 H   0  0  0  0  0  0  0  0  0  0  0  0
  121.9709  108.3041  109.4861 H   0  0  0  0  0  0  0  0  0  0  0  0
  123.8473  112.8692  111.9779 H   0  0  0  0  0  0  0  0  0  0  0  0
  123.5728  104.8902  108.3391 H   0  0  0  0  0  0  0  0  0  0  0  0
  124.1052  103.6717  107.1685 H   0  0  0  0  0  0  0  0  0  0  0  0
  124.8392  103.7253  108.7688 H   0  0  0  0  0  0  0  0  0  0  0  0
  124.0758  106.6894  106.5140 H   0  0  0  0  0  0  0  0  0  0  0  0
  124.5914  105.3695  105.4504 H   0  0  0  0  0  0  0  0  0  0  0  0
  125.6804  106.7212  105.7595 H   0  0  0  0  0  0  0  0  0  0  0  0
  126.4621  105.7216  109.3283 H   0  0  0  0  0  0  0  0  0  0  0  0
  126.3570  104.7207  107.0609 H   0  0  0  0  0  0  0  0  0  0  0  0
  126.0519  108.3315  110.4405 H   0  0  0  0  0  0  0  0  0  0  0  0
  127.6906  106.8217  107.3589 H   0  0  0  0  0  0  0  0  0  0  0  0
  127.2059  108.0411  108.5130 H   0  0  0  0  0  0  0  0  0  0  0  0
  1  2  1  0  0  0  0
  1  4  2  0  0  0  0
  2  6  2  0  0  0  0
  3  5  2  0  0  0  0
  3 12  1  0  0  0  0
  4 15  1  0  0  0  0
  5  6  1  0  0  0  0
  5 13  1  0  0  0  0
  6 15  1  0  0  0  0
  7 10  1  0  0  0  0
  7 12  2  0  0  0  0
  7 13  1  0  0  0  0
  8 11  1  0  0  0  0
  9 11  1  0  0  0  0
 10 11  1  0  0  0  0
 10 14  1  0  0  0  0
  1 16  1  0  0  0  0
  2 17  1  0  0  0  0
  3 18  1  0  0  0  0
  4 19  1  0  0  0  0
  8 20  1  0  0  0  0
  8 21  1  0  0  0  0
  8 22  1  0  0  0  0
  9 23  1  0  0  0  0
  9 24  1  0  0  0  0
  9 25  1  0  0  0  0
 10 26  1  0  0  0  0
 11 27  1  0  0  0  0
 13 28  1  0  0  0  0
 14 29  1  0  0  0  0
 14 30  1  0  0  0  0
M  END
> <FRED Chemgauss4 score>
-10.121861

$$$$
C91496157	P143180366
  -OEChem-05122015313D

 34 35  0     0  0  0  0  0  0999 V2000
  124.4245  103.8364  106.7412 C   0  0  0  0  0  0  0  0  0  0  0  0
  118.9011  103.5544  106.7636 C   0  0  0  0  0  0  0  0  0  0  0  0
  125.2223  104.3845  107.7455 C   0  0  0  0  0  0  0  0  0  0  0  0
  119.8608  104.5322  107.0007 C   0  0  0  0  0  0  0  0  0  0  0  0
  123.4448  104.6155  106.1256 C   0  0  0  0  0  0  0  0  0  0  0  0
  124.0606  106.4908  107.5188 C   0  0  0  0  0  0  0  0  0  0  0  0
  117.8656  103.8591  105.8949 C   0  0  0  0  0  0  0  0  0  0  0  0
  125.0404  105.7117  108.1343 C   0  0  0  0  0  0  0  0  0  0  0  0
  119.7571  105.7674  106.3709 C   0  0  0  0  0  0  0  0  0  0  0  0
  123.2628  105.9427  106.5144 C   0  0  0  0  0  0  0  0  0  0  0  0
  118.6833  105.9731  105.5197 C   0  0  0  0  0  0  0  0  0  0  0  0
  118.5035  107.2763  104.8073 C   0  0  0  0  0  0  0  0  0  0  0  0
  125.8939  106.2970  109.2083 C   0  0  0  0  0  0  0  0  0  0  0  0
  117.7315  105.0476  105.2646 N   0  0  0  0  0  0  0  0  0  0  0  0
  120.6892  106.7241  106.5999 N   0  5  0  0  0  0  0  0  0  0  0  0
  127.1403  106.9287  108.6940 N   0  3  0  0  0  0  0  0  0  0  0  0
  122.5699  108.2908  105.7863 O   0  0  0  0  0  0  0  0  0  0  0  0
  121.9455  106.3834  104.3726 O   0  0  0  0  0  0  0  0  0  0  0  0
  122.0356  106.9167  105.7446 S   0  0  0  0  0  0  0  0  0  0  0  0
  124.5665  102.8032  106.4378 H   0  0  0  0  0  0  0  0  0  0  0  0
  118.9625  102.5837  107.2417 H   0  0  0  0  0  0  0  0  0  0  0  0
  125.9839  103.7703  108.2188 H   0  0  0  0  0  0  0  0  0  0  0  0
  120.6824  104.3121  107.6788 H   0  0  0  0  0  0  0  0  0  0  0  0
  122.8286  104.1779  105.3447 H   0  0  0  0  0  0  0  0  0  0  0  0
  123.9201  107.5254  107.8227 H   0  0  0  0  0  0  0  0  0  0  0  0
  117.0919  103.1309  105.6755 H   0  0  0  0  0  0  0  0  0  0  0  0
  119.0153  107.2509  103.8393 H   0  0  0  0  0  0  0  0  0  0  0  0
  117.4417  107.4895  104.6383 H   0  0  0  0  0  0  0  0  0  0  0  0
  118.9081  108.1067  105.3974 H   0  0  0  0  0  0  0  0  0  0  0  0
  125.3613  107.0778  109.7681 H   0  0  0  0  0  0  0  0  0  0  0  0
  126.2113  105.5348  109.9330 H   0  0  0  0  0  0  0  0  0  0  0  0
  126.9213  107.7573  108.1343 H   0  0  0  0  0  0  0  0  0  0  0  0
  127.6610  106.2727  108.1052 H   0  0  0  0  0  0  0  0  0  0  0  0
  127.7460  107.2154  109.4679 H   0  0  0  0  0  0  0  0  0  0  0  0
  1  3  1  0  0  0  0
  1  5  2  0  0  0  0
  2  4  1  0  0  0  0
  2  7  2  0  0  0  0
  3  8  2  0  0  0  0
  4  9  2  0  0  0  0
  5 10  1  0  0  0  0
  6  8  1  0  0  0  0
  6 10  2  0  0  0  0
  7 14  1  0  0  0  0
  8 13  1  0  0  0  0
  9 11  1  0  0  0  0
  9 15  1  0  0  0  0
 10 19  1  0  0  0  0
 11 12  1  0  0  0  0
 11 14  2  0  0  0  0
 13 16  1  0  0  0  0
 15 19  1  0  0  0  0
 17 19  2  0  0  0  0
 18 19  2  0  0  0  0
  1 20  1  0  0  0  0
  2 21  1  0  0  0  0
  3 22  1  0  0  0  0
  4 23  1  0  0  0  0
  5 24  1  0  0  0  0
  6 25  1  0  0  0  0
  7 26  1  0  0  0  0
 12 27  1  0  0  0  0
 12 28  1  0  0  0  0
 12 29  1  0  0  0  0
 13 30  1  0  0  0  0
 13 31  1  0  0  0  0
 16 32  1  0  0  0  0
 16 33  1  0  0  0  0
 16 34  1  0  0  0  0
M  CHG  2  15  -1  16   1
M  END
> <FRED Chemgauss4 score>
-10.115526

$$$$
C88000630	P137646920
  -OEChem-05122015313D

 29 30  0     1  0  0  0  0  0999 V2000
  125.3954  106.4009  107.0137 C   0  0  0  0  0  0  0  0  0  0  0  0
  125.8725  107.6015  106.4969 C   0  0  0  0  0  0  0  0  0  0  0  0
  124.5711  106.4294  108.1388 C   0  0  0  0  0  0  0  0  0  0  0  0
  124.2731  107.6850  108.6834 C   0  0  0  0  0  0  0  0  0  0  0  0
  124.8172  108.8032  108.0667 C   0  0  0  0  0  0  0  0  0  0  0  0
  123.5871  109.3662  109.8037 C   0  0  0  0  0  0  0  0  0  0  0  0
  124.0510  105.1515  108.7061 C   0  0  0  0  0  0  0  0  0  0  0  0
  124.2271  112.3733  113.5597 C   0  0  0  0  0  0  0  0  0  0  0  0
  123.9310  111.1253  111.5905 C   0  0  0  0  0  0  0  0  0  0  0  0
  122.9380  110.2581  110.7826 C   0  0  1  0  0  0  0  0  0  0  0  0
  125.6140  108.8388  106.9859 N   0  0  0  0  0  0  0  0  0  0  0  0
  123.5092  108.0528  109.7643 N   0  0  0  0  0  0  0  0  0  0  0  0
  124.3676  109.8671  108.7965 N   0  0  0  0  0  0  0  0  0  0  0  0
  121.9410  111.1274  110.1611 N   0  0  0  0  0  0  0  0  0  0  0  0
  123.3320  111.5714  112.8029 O   0  0  0  0  0  0  0  0  0  0  0  0
  125.6656  105.4614  106.5418 H   0  0  0  0  0  0  0  0  0  0  0  0
  126.5155  107.5935  105.6206 H   0  0  0  0  0  0  0  0  0  0  0  0
  124.7449  104.7577  109.4587 H   0  0  0  0  0  0  0  0  0  0  0  0
  123.0705  105.2952  109.1779 H   0  0  0  0  0  0  0  0  0  0  0  0
  123.9190  104.3932  107.9235 H   0  0  0  0  0  0  0  0  0  0  0  0
  123.7370  112.6978  114.4809 H   0  0  0  0  0  0  0  0  0  0  0  0
  124.5278  113.2422  112.9688 H   0  0  0  0  0  0  0  0  0  0  0  0
  125.1108  111.7812  113.8090 H   0  0  0  0  0  0  0  0  0  0  0  0
  124.8150  110.5349  111.8555 H   0  0  0  0  0  0  0  0  0  0  0  0
  124.2535  112.0047  111.0225 H   0  0  0  0  0  0  0  0  0  0  0  0
  122.3448  109.6808  111.5234 H   0  0  0  0  0  0  0  0  0  0  0  0
  124.5750  110.8416  108.6224 H   0  0  0  0  0  0  0  0  0  0  0  0
  121.7066  111.9772  110.6254 H   0  0  0  0  0  0  0  0  0  0  0  0
  121.3914  110.7529  109.4190 H   0  0  0  0  0  0  0  0  0  0  0  0
  1  2  2  0  0  0  0
  1  3  1  0  0  0  0
  2 11  1  0  0  0  0
  3  4  2  0  0  0  0
  3  7  1  0  0  0  0
  4  5  1  0  0  0  0
  4 12  1  0  0  0  0
  5 11  2  0  0  0  0
  5 13  1  0  0  0  0
  6 10  1  0  0  0  0
  6 12  2  0  0  0  0
  6 13  1  0  0  0  0
  8 15  1  0  0  0  0
  9 10  1  0  0  0  0
  9 15  1  0  0  0  0
 10 14  1  0  0  0  0
  1 16  1  0  0  0  0
  2 17  1  0  0  0  0
  7 18  1  0  0  0  0
  7 19  1  0  0  0  0
  7 20  1  0  0  0  0
  8 21  1  0  0  0  0
  8 22  1  0  0  0  0
  8 23  1  0  0  0  0
  9 24  1  0  0  0  0
  9 25  1  0  0  0  0
 10 26  1  0  0  0  0
 13 27  1  0  0  0  0
 14 28  1  0  0  0  0
 14 29  1  0  0  0  0
M  END
> <FRED Chemgauss4 score>
-10.107846

$$$$
C91671276	P143506488
  -OEChem-05122015313D

 37 38  0     1  0  0  0  0  0999 V2000
  124.9209  106.3661  106.5266 C   0  0  0  0  0  0  0  0  0  0  0  0
  116.9887  107.5248  103.7589 C   0  0  0  0  0  0  0  0  0  0  0  0
  117.4811  106.2859  103.0023 C   0  0  0  0  0  0  0  0  0  0  0  0
  117.2393  107.2312  105.2407 C   0  0  0  0  0  0  0  0  0  0  0  0
  118.2887  105.3342  106.4179 C   0  0  0  0  0  0  0  0  0  0  0  0
  118.7173  104.1777  103.8346 C   0  0  0  0  0  0  0  0  0  0  0  0
  117.6925  105.2632  104.1012 C   0  0  1  0  0  0  0  0  0  0  0  0
  119.2704  104.1703  106.1792 C   0  0  2  0  0  0  0  0  0  0  0  0
  123.7116  105.4722  106.4913 C   0  0  0  0  0  0  0  0  0  0  0  0
  120.7276  104.6220  106.0824 C   0  0  0  0  0  0  0  0  0  0  0  0
  118.1717  106.1135  105.1927 N   0  0  1  0  0  0  0  0  0  0  0  0
  125.8944  105.9923  107.4142 N   0  0  0  0  0  0  0  0  0  0  0  0
  121.2568  104.8411  107.3880 N   0  0  0  0  0  0  0  0  0  0  0  0
  123.0261  105.8572  108.9877 O   0  0  0  0  0  0  0  0  0  0  0  0
  122.0229  107.3287  107.2031 O   0  0  0  0  0  0  0  0  0  0  0  0
  118.8975  103.3960  105.0242 O   0  0  0  0  0  0  0  0  0  0  0  0
  125.0679  107.7225  105.5620 S   0  0  0  0  0  0  0  0  0  0  0  0
  122.4867  106.0304  107.6532 S   0  0  0  0  0  0  0  0  0  0  0  0
  117.5430  108.4098  103.4295 H   0  0  0  0  0  0  0  0  0  0  0  0
  115.9246  107.7012  103.5728 H   0  0  0  0  0  0  0  0  0  0  0  0
  116.7466  105.9539  102.2654 H   0  0  0  0  0  0  0  0  0  0  0  0
  118.4069  106.5243  102.4706 H   0  0  0  0  0  0  0  0  0  0  0  0
  117.6044  108.0953  105.7787 H   0  0  0  0  0  0  0  0  0  0  0  0
  116.3129  106.9041  105.7013 H   0  0  0  0  0  0  0  0  0  0  0  0
  117.3141  104.9314  106.6936 H   0  0  0  0  0  0  0  0  0  0  0  0
  118.6568  105.9385  107.2491 H   0  0  0  0  0  0  0  0  0  0  0  0
  118.3966  103.5196  103.0318 H   0  0  0  0  0  0  0  0  0  0  0  0
  119.6789  104.6069  103.5726 H   0  0  0  0  0  0  0  0  0  0  0  0
  116.7613  104.8202  104.3866 H   0  0  0  0  0  0  0  0  0  0  0  0
  119.2123  103.4660  107.0799 H   0  0  0  0  0  0  0  0  0  0  0  0
  123.2429  105.4555  105.5034 H   0  0  0  0  0  0  0  0  0  0  0  0
  123.9759  104.4505  106.7801 H   0  0  0  0  0  0  0  0  0  0  0  0
  120.7723  105.5471  105.5204 H   0  0  0  0  0  0  0  0  0  0  0  0
  121.3072  103.8517  105.5887 H   0  0  0  0  0  0  0  0  0  0  0  0
  125.8033  105.1724  108.0054 H   0  0  0  0  0  0  0  0  0  0  0  0
  126.7479  106.5318  107.5133 H   0  0  0  0  0  0  0  0  0  0  0  0
  121.3470  103.9954  108.0017 H   0  0  0  0  0  0  0  0  0  0  0  0
  1  9  1  0  0  0  0
  1 12  1  0  0  0  0
  1 17  2  0  0  0  0
  2  3  1  0  0  0  0
  2  4  1  0  0  0  0
  3  7  1  0  0  0  0
  4 11  1  0  0  0  0
  5  8  1  0  0  0  0
  5 11  1  0  0  0  0
  6  7  1  0  0  0  0
  6 16  1  0  0  0  0
  7 11  1  0  0  0  0
  8 10  1  0  0  0  0
  8 16  1  0  0  0  0
  9 18  1  0  0  0  0
 10 13  1  0  0  0  0
 13 18  1  0  0  0  0
 14 18  2  0  0  0  0
 15 18  2  0  0  0  0
  2 19  1  0  0  0  0
  2 20  1  0  0  0  0
  3 21  1  0  0  0  0
  3 22  1  0  0  0  0
  4 23  1  0  0  0  0
  4 24  1  0  0  0  0
  5 25  1  0  0  0  0
  5 26  1  0  0  0  0
  6 27  1  0  0  0  0
  6 28  1  0  0  0  0
  7 29  1  0  0  0  0
  8 30  1  0  0  0  0
  9 31  1  0  0  0  0
  9 32  1  0  0  0  0
 10 33  1  0  0  0  0
 10 34  1  0  0  0  0
 12 35  1  0  0  0  0
 12 36  1  0  0  0  0
 13 37  1  0  0  0  0
M  END
> <FRED Chemgauss4 score>
-10.107415

$$$$
C80262826	P125353148
  -OEChem-05122015313D

 34 35  0     1  0  0  0  0  0999 V2000
  121.6713  106.6110  106.7569 C   0  0  0  0  0  0  0  0  0  0  0  0
  122.8591  107.3010  106.5150 C   0  0  0  0  0  0  0  0  0  0  0  0
  124.0657  105.6939  107.8562 C   0  0  0  0  0  0  0  0  0  0  0  0
  117.4767  107.0619  106.0110 C   0  0  0  0  0  0  0  0  0  0  0  0
  116.8060  106.2813  105.0929 C   0  0  0  0  0  0  0  0  0  0  0  0
  121.6805  105.4626  107.5486 C   0  0  0  0  0  0  0  0  0  0  0  0
  122.8778  105.0040  108.0982 C   0  0  0  0  0  0  0  0  0  0  0  0
  124.0563  106.8424  107.0646 C   0  0  0  0  0  0  0  0  0  0  0  0
  118.6361  105.2143  106.2396 C   0  0  0  0  0  0  0  0  0  0  0  0
  120.5759  103.7205  105.6037 C   0  0  0  0  0  0  0  0  0  0  0  0
  125.6457  108.8886  108.0849 C   0  0  0  0  0  0  0  0  0  0  0  0
  119.6743  104.2271  106.7275 C   0  0  1  0  0  0  0  0  0  0  0  0
  118.5261  106.4516  106.6698 N   0  0  0  0  0  0  0  0  0  0  0  0
  122.9097  103.8431  108.9028 N   0  0  0  0  0  0  0  0  0  0  0  0
  120.4661  104.7794  107.7810 N   0  0  0  0  0  0  0  0  0  0  0  0
  126.6459  106.7670  106.9131 O   0  0  0  0  0  0  0  0  0  0  0  0
  125.4049  108.4635  105.5246 O   0  0  0  0  0  0  0  0  0  0  0  0
  117.5106  104.7185  105.0427 S   0  0  0  0  0  0  0  0  0  0  0  0
  125.5433  107.7056  106.7607 S   0  0  0  0  0  0  0  0  0  0  0  0
  120.7443  106.9780  106.3235 H   0  0  0  0  0  0  0  0  0  0  0  0
  122.8403  108.1949  105.8975 H   0  0  0  0  0  0  0  0  0  0  0  0
  124.9997  105.3371  108.2844 H   0  0  0  0  0  0  0  0  0  0  0  0
  117.2387  108.0921  106.2396 H   0  0  0  0  0  0  0  0  0  0  0  0
  115.9650  106.5467  104.4682 H   0  0  0  0  0  0  0  0  0  0  0  0
  121.1119  104.5472  105.1248 H   0  0  0  0  0  0  0  0  0  0  0  0
  121.3185  103.0161  105.9951 H   0  0  0  0  0  0  0  0  0  0  0  0
  120.0083  103.1922  104.8293 H   0  0  0  0  0  0  0  0  0  0  0  0
  126.5605  109.4695  107.9577 H   0  0  0  0  0  0  0  0  0  0  0  0
  124.7703  109.5379  108.0350 H   0  0  0  0  0  0  0  0  0  0  0  0
  125.6659  108.3455  109.0309 H   0  0  0  0  0  0  0  0  0  0  0  0
  119.1668  103.3593  107.1665 H   0  0  0  0  0  0  0  0  0  0  0  0
  123.7884  103.5126  109.2435 H   0  0  0  0  0  0  0  0  0  0  0  0
  122.0678  103.3227  109.0373 H   0  0  0  0  0  0  0  0  0  0  0  0
  120.1706  104.6942  108.7341 H   0  0  0  0  0  0  0  0  0  0  0  0
  1  2  2  0  0  0  0
  1  6  1  0  0  0  0
  2  8  1  0  0  0  0
  3  7  1  0  0  0  0
  3  8  2  0  0  0  0
  4  5  2  0  0  0  0
  4 13  1  0  0  0  0
  5 18  1  0  0  0  0
  6  7  2  0  0  0  0
  6 15  1  0  0  0  0
  7 14  1  0  0  0  0
  8 19  1  0  0  0  0
  9 12  1  0  0  0  0
  9 13  2  0  0  0  0
  9 18  1  0  0  0  0
 10 12  1  0  0  0  0
 11 19  1  0  0  0  0
 12 15  1  0  0  0  0
 16 19  2  0  0  0  0
 17 19  2  0  0  0  0
  1 20  1  0  0  0  0
  2 21  1  0  0  0  0
  3 22  1  0  0  0  0
  4 23  1  0  0  0  0
  5 24  1  0  0  0  0
 10 25  1  0  0  0  0
 10 26  1  0  0  0  0
 10 27  1  0  0  0  0
 11 28  1  0  0  0  0
 11 29  1  0  0  0  0
 11 30  1  0  0  0  0
 12 31  1  0  0  0  0
 14 32  1  0  0  0  0
 14 33  1  0  0  0  0
 15 34  1  0  0  0  0
M  END
> <FRED Chemgauss4 score>
-10.107273

$$$$
C87615186	P137068035
  -OEChem-05122015313D

 17 17  0     0  0  0  0  0  0999 V2000
  124.6762  105.8867  107.2142 C   0  0  0  0  0  0  0  0  0  0  0  0
  124.0194  106.4499  106.1386 C   0  0  0  0  0  0  0  0  0  0  0  0
  125.6387  106.6465  107.8554 C   0  0  0  0  0  0  0  0  0  0  0  0
  125.8809  107.9191  107.3783 C   0  0  0  0  0  0  0  0  0  0  0  0
  126.3510  106.0837  108.9941 C   0  0  0  0  0  0  0  0  0  0  0  0
  124.2767  107.6979  105.6933 N   0  0  0  0  0  0  0  0  0  0  0  0
  125.2230  108.4445  106.3233 N   0  0  0  0  0  0  0  0  0  0  0  0
  127.2599  106.8322  109.5815 N   0  0  0  0  0  0  0  0  0  0  0  0
  126.8610  108.7135  108.0188 N   0  0  0  0  0  0  0  0  0  0  0  0
  126.1355  104.8090  109.5027 N   0  0  0  0  0  0  0  0  0  0  0  0
  124.4366  104.8792  107.5377 H   0  0  0  0  0  0  0  0  0  0  0  0
  123.2555  105.9066  105.5948 H   0  0  0  0  0  0  0  0  0  0  0  0
  127.3149  107.7404  109.1077 H   0  0  0  0  0  0  0  0  0  0  0  0
  127.3208  108.3546  108.8283 H   0  0  0  0  0  0  0  0  0  0  0  0
  127.0042  109.6499  107.7054 H   0  0  0  0  0  0  0  0  0  0  0  0
  125.4522  104.1827  109.0899 H   0  0  0  0  0  0  0  0  0  0  0  0
  126.6547  104.4481  110.2946 H   0  0  0  0  0  0  0  0  0  0  0  0
  1  2  2  0  0  0  0
  1  3  1  0  0  0  0
  2  6  1  0  0  0  0
  3  4  2  0  0  0  0
  3  5  1  0  0  0  0
  4  7  1  0  0  0  0
  4  9  1  0  0  0  0
  5  8  2  0  0  0  0
  5 10  1  0  0  0  0
  6  7  2  0  0  0  0
  1 11  1  0  0  0  0
  2 12  1  0  0  0  0
  8 13  1  0  0  0  0
  9 14  1  0  0  0  0
  9 15  1  0  0  0  0
 10 16  1  0  0  0  0
 10 17  1  0  0  0  0
M  END
> <FRED Chemgauss4 score>
-10.101027

$$$$
C90205859	P141011823
  -OEChem-05122015313D

 46 47  0     1  0  0  0  0  0999 V2000
  122.4288  103.9926  106.5077 C   0  0  0  0  0  0  0  0  0  0  0  0
  121.2057  105.4912  107.9551 C   0  0  0  0  0  0  0  0  0  0  0  0
  123.6231  104.6128  106.8748 C   0  0  0  0  0  0  0  0  0  0  0  0
  122.3999  106.1113  108.3223 C   0  0  0  0  0  0  0  0  0  0  0  0
  117.1079  104.0365  102.7326 C   0  0  0  0  0  0  0  0  0  0  0  0
  116.4583  106.1489  102.8607 C   0  0  0  0  0  0  0  0  0  0  0  0
  121.2201  104.4319  107.0478 C   0  0  0  0  0  0  0  0  0  0  0  0
  123.6086  105.6721  107.7821 C   0  0  0  0  0  0  0  0  0  0  0  0
  117.4027  104.4931  103.9862 C   0  0  0  0  0  0  0  0  0  0  0  0
  118.5850  108.2968  103.9300 C   0  0  0  0  0  0  0  0  0  0  0  0
  120.2440  104.3253  104.3369 C   0  0  0  0  0  0  0  0  0  0  0  0
  119.9346  103.7644  106.6525 C   0  0  0  0  0  0  0  0  0  0  0  0
  117.3195  108.1419  104.7574 C   0  0  0  0  0  0  0  0  0  0  0  0
  117.1044  106.6898  105.1781 C   0  0  0  0  0  0  0  0  0  0  0  0
  117.1230  103.7610  106.3768 C   0  0  0  0  0  0  0  0  0  0  0  0
  118.0515  103.7898  105.1606 C   0  0  2  0  0  0  0  0  0  0  0  0
  116.9904  105.8028  104.0374 N   0  0  0  0  0  0  0  0  0  0  0  0
  116.5242  105.0817  102.0581 N   0  3  0  0  0  0  0  0  0  0  0  0
  119.3240  104.3999  105.4785 N   0  0  2  0  0  0  0  0  0  0  0  0
  115.7367  103.4555  105.9389 N   0  3  0  0  0  0  0  0  0  0  0  0
  125.2271  106.5121  108.2786 Br  0  0  0  0  0  0  0  0  0  0  0  0
  122.4496  103.1679  105.8001 H   0  0  0  0  0  0  0  0  0  0  0  0
  120.2685  105.8408  108.3804 H   0  0  0  0  0  0  0  0  0  0  0  0
  124.5562  104.2589  106.4438 H   0  0  0  0  0  0  0  0  0  0  0  0
  122.3715  106.9351  109.0306 H   0  0  0  0  0  0  0  0  0  0  0  0
  117.2252  103.1109  102.2046 H   0  0  0  0  0  0  0  0  0  0  0  0
  116.0487  107.1112  102.5998 H   0  0  0  0  0  0  0  0  0  0  0  0
  118.5487  107.6658  103.0363 H   0  0  0  0  0  0  0  0  0  0  0  0
  119.4606  108.0037  104.5177 H   0  0  0  0  0  0  0  0  0  0  0  0
  118.7211  109.3356  103.6124 H   0  0  0  0  0  0  0  0  0  0  0  0
  119.7937  104.7974  103.4599 H   0  0  0  0  0  0  0  0  0  0  0  0
  120.4674  103.2818  104.0991 H   0  0  0  0  0  0  0  0  0  0  0  0
  121.1800  104.8394  104.5716 H   0  0  0  0  0  0  0  0  0  0  0  0
  120.1051  102.7088  106.4142 H   0  0  0  0  0  0  0  0  0  0  0  0
  119.2061  103.7999  107.4693 H   0  0  0  0  0  0  0  0  0  0  0  0
  117.3862  108.7848  105.6432 H   0  0  0  0  0  0  0  0  0  0  0  0
  116.4608  108.4965  104.1745 H   0  0  0  0  0  0  0  0  0  0  0  0
  116.1902  106.5844  105.7745 H   0  0  0  0  0  0  0  0  0  0  0  0
  117.9362  106.3319  105.7963 H   0  0  0  0  0  0  0  0  0  0  0  0
  117.3958  102.9866  107.1011 H   0  0  0  0  0  0  0  0  0  0  0  0
  117.0812  104.7305  106.8838 H   0  0  0  0  0  0  0  0  0  0  0  0
  118.2895  102.7577  104.8732 H   0  0  0  0  0  0  0  0  0  0  0  0
  116.1929  105.0511  101.0981 H   0  0  0  0  0  0  0  0  0  0  0  0
  115.0567  104.0138  106.4644 H   0  0  0  0  0  0  0  0  0  0  0  0
  115.5175  102.4653  106.0877 H   0  0  0  0  0  0  0  0  0  0  0  0
  115.6151  103.6617  104.9423 H   0  0  0  0  0  0  0  0  0  0  0  0
  1  3  2  0  0  0  0
  1  7  1  0  0  0  0
  2  4  1  0  0  0  0
  2  7  2  0  0  0  0
  3  8  1  0  0  0  0
  4  8  2  0  0  0  0
  5  9  2  0  0  0  0
  5 18  1  0  0  0  0
  6 17  1  0  0  0  0
  6 18  2  0  0  0  0
  7 12  1  0  0  0  0
  8 21  1  0  0  0  0
  9 16  1  0  0  0  0
  9 17  1  0  0  0  0
 10 13  1  0  0  0  0
 11 19  1  0  0  0  0
 12 19  1  0  0  0  0
 13 14  1  0  0  0  0
 14 17  1  0  0  0  0
 15 16  1  0  0  0  0
 15 20  1  0  0  0  0
 16 19  1  0  0  0  0
  1 22  1  0  0  0  0
  2 23  1  0  0  0  0
  3 24  1  0  0  0  0
  4 25  1  0  0  0  0
  5 26  1  0  0  0  0
  6 27  1  0  0  0  0
 10 28  1  0  0  0  0
 10 29  1  0  0  0  0
 10 30  1  0  0  0  0
 11 31  1  0  0  0  0
 11 32  1  0  0  0  0
 11 33  1  0  0  0  0
 12 34  1  0  0  0  0
 12 35  1  0  0  0  0
 13 36  1  0  0  0  0
 13 37  1  0  0  0  0
 14 38  1  0  0  0  0
 14 39  1  0  0  0  0
 15 40  1  0  0  0  0
 15 41  1  0  0  0  0
 16 42  1  0  0  0  0
 18 43  1  0  0  0  0
 20 44  1  0  0  0  0
 20 45  1  0  0  0  0
 20 46  1  0  0  0  0
M  CHG  2  18   1  20   1
M  END
> <FRED Chemgauss4 score>
-10.087035

$$$$
C44265826	P66858087
  -OEChem-05122015313D

 32 33  0     1  0  0  0  0  0999 V2000
  117.3219  103.9227  105.8797 C   0  0  0  0  0  0  0  0  0  0  0  0
  117.2343  105.2240  106.3739 C   0  0  0  0  0  0  0  0  0  0  0  0
  118.3793  103.5638  105.0437 C   0  0  0  0  0  0  0  0  0  0  0  0
  119.2614  105.8078  105.1961 C   0  0  0  0  0  0  0  0  0  0  0  0
  118.2040  106.1666  106.0322 C   0  0  0  0  0  0  0  0  0  0  0  0
  119.3490  104.5063  104.7019 C   0  0  0  0  0  0  0  0  0  0  0  0
  121.6082  106.6733  105.5095 C   0  0  0  0  0  0  0  0  0  0  0  0
  123.6072  106.9037  105.9895 C   0  0  0  0  0  0  0  0  0  0  0  0
  125.6068  106.7518  108.6067 C   0  0  0  0  0  0  0  0  0  0  0  0
  120.3222  106.8386  104.8229 C   0  0  0  0  0  0  0  0  0  0  0  0
  125.0821  107.2527  106.1340 C   0  0  2  0  0  0  0  0  0  0  0  0
  125.3926  107.8231  107.5394 C   0  0  2  0  0  0  0  0  0  0  0  0
  122.7308  107.3462  105.1236 N   0  0  0  0  0  0  0  0  0  0  0  0
  121.7529  105.8530  106.5544 N   0  0  0  0  0  0  0  0  0  0  0  0
  125.4933  108.1722  105.0673 N   0  0  0  0  0  0  0  0  0  0  0  0
  123.1062  106.0081  106.8802 O   0  0  0  0  0  0  0  0  0  0  0  0
  126.5933  108.6002  107.4730 O   0  0  0  0  0  0  0  0  0  0  0  0
  118.0569  107.7659  106.6669 Cl  0  0  0  0  0  0  0  0  0  0  0  0
  120.6431  104.0180  103.6679 Cl  0  0  0  0  0  0  0  0  0  0  0  0
  116.5661  103.1893  106.1452 H   0  0  0  0  0  0  0  0  0  0  0  0
  116.4025  105.4873  107.0226 H   0  0  0  0  0  0  0  0  0  0  0  0
  118.4325  102.5452  104.6678 H   0  0  0  0  0  0  0  0  0  0  0  0
  126.3937  106.0464  108.3254 H   0  0  0  0  0  0  0  0  0  0  0  0
  124.6827  106.1934  108.7924 H   0  0  0  0  0  0  0  0  0  0  0  0
  125.8899  107.2148  109.5587 H   0  0  0  0  0  0  0  0  0  0  0  0
  120.4409  106.8161  103.7165 H   0  0  0  0  0  0  0  0  0  0  0  0
  119.8892  107.8487  104.9990 H   0  0  0  0  0  0  0  0  0  0  0  0
  125.6628  106.3288  106.0097 H   0  0  0  0  0  0  0  0  0  0  0  0
  124.5963  108.4961  107.8772 H   0  0  0  0  0  0  0  0  0  0  0  0
  125.0643  108.0688  104.1769 H   0  0  0  0  0  0  0  0  0  0  0  0
  126.3133  108.7142  105.2149 H   0  0  0  0  0  0  0  0  0  0  0  0
  126.7160  108.9826  108.3536 H   0  0  0  0  0  0  0  0  0  0  0  0
  1  2  1  0  0  0  0
  1  3  2  0  0  0  0
  2  5  2  0  0  0  0
  3  6  1  0  0  0  0
  4  5  1  0  0  0  0
  4  6  2  0  0  0  0
  4 10  1  0  0  0  0
  5 18  1  0  0  0  0
  6 19  1  0  0  0  0
  7 10  1  0  0  0  0
  7 13  1  0  0  0  0
  7 14  2  0  0  0  0
  8 11  1  0  0  0  0
  8 13  2  0  0  0  0
  8 16  1  0  0  0  0
  9 12  1  0  0  0  0
 11 12  1  0  0  0  0
 11 15  1  0  0  0  0
 12 17  1  0  0  0  0
 14 16  1  0  0  0  0
  1 20  1  0  0  0  0
  2 21  1  0  0  0  0
  3 22  1  0  0  0  0
  9 23  1  0  0  0  0
  9 24  1  0  0  0  0
  9 25  1  0  0  0  0
 10 26  1  0  0  0  0
 10 27  1  0  0  0  0
 11 28  1  0  0  0  0
 12 29  1  0  0  0  0
 15 30  1  0  0  0  0
 15 31  1  0  0  0  0
 17 32  1  0  0  0  0
M  END
> <FRED Chemgauss4 score>
-10.080201

$$$$
C82644253	P129155959
  -OEChem-05122015313D

 30 30  0     0  0  0  0  0  0999 V2000
  124.7597  106.4519  106.3052 C   0  0  0  0  0  0  0  0  0  0  0  0
  123.9474  104.9874  108.0133 C   0  0  0  0  0  0  0  0  0  0  0  0
  126.1090  105.8857  108.1977 C   0  0  0  0  0  0  0  0  0  0  0  0
  123.7406  105.6516  106.8126 C   0  0  0  0  0  0  0  0  0  0  0  0
  125.9584  106.5731  107.0017 C   0  0  0  0  0  0  0  0  0  0  0  0
  122.4531  105.5078  106.0856 C   0  0  0  0  0  0  0  0  0  0  0  0
  119.3057  104.5084  106.4509 C   0  0  0  0  0  0  0  0  0  0  0  0
  120.5105  104.0267  105.6508 C   0  0  0  0  0  0  0  0  0  0  0  0
  117.9864  104.2141  105.7499 C   0  0  0  0  0  0  0  0  0  0  0  0
  125.1114  105.1218  108.6634 N   0  3  0  0  0  0  0  0  0  0  0  0
  116.2329  104.9842  103.9106 N   0  0  0  0  0  0  0  0  0  0  0  0
  121.7577  104.3233  106.3003 N   0  0  0  0  0  0  0  0  0  0  0  0
  126.9066  107.3045  106.5502 O   0  5  0  0  0  0  0  0  0  0  0  0
  122.0842  106.4071  105.3348 O   0  0  0  0  0  0  0  0  0  0  0  0
  118.3736  106.3554  104.3036 O   0  0  0  0  0  0  0  0  0  0  0  0
  118.5369  104.0886  103.1987 O   0  0  0  0  0  0  0  0  0  0  0  0
  117.9191  104.9830  104.1623 S   0  0  0  0  0  0  0  0  0  0  0  0
  124.6048  106.9765  105.3629 H   0  0  0  0  0  0  0  0  0  0  0  0
  123.2188  104.3441  108.4880 H   0  0  0  0  0  0  0  0  0  0  0  0
  126.9954  105.9076  108.8197 H   0  0  0  0  0  0  0  0  0  0  0  0
  119.3973  105.5900  106.6095 H   0  0  0  0  0  0  0  0  0  0  0  0
  119.3065  104.0449  107.4453 H   0  0  0  0  0  0  0  0  0  0  0  0
  120.4675  102.9451  105.4874 H   0  0  0  0  0  0  0  0  0  0  0  0
  120.5345  104.5197  104.6740 H   0  0  0  0  0  0  0  0  0  0  0  0
  117.8532  103.1402  105.5880 H   0  0  0  0  0  0  0  0  0  0  0  0
  117.1328  104.5941  106.3187 H   0  0  0  0  0  0  0  0  0  0  0  0
  125.2425  104.6250  109.5441 H   0  0  0  0  0  0  0  0  0  0  0  0
  115.7433  105.8864  103.9554 H   0  0  0  0  0  0  0  0  0  0  0  0
  115.8546  104.3425  103.2031 H   0  0  0  0  0  0  0  0  0  0  0  0
  122.1634  103.5995  106.8910 H   0  0  0  0  0  0  0  0  0  0  0  0
  1  4  1  0  0  0  0
  1  5  2  0  0  0  0
  2  4  2  0  0  0  0
  2 10  1  0  0  0  0
  3  5  1  0  0  0  0
  3 10  2  0  0  0  0
  4  6  1  0  0  0  0
  5 13  1  0  0  0  0
  6 12  1  0  0  0  0
  6 14  2  0  0  0  0
  7  8  1  0  0  0  0
  7  9  1  0  0  0  0
  8 12  1  0  0  0  0
  9 17  1  0  0  0  0
 11 17  1  0  0  0  0
 15 17  2  0  0  0  0
 16 17  2  0  0  0  0
  1 18  1  0  0  0  0
  2 19  1  0  0  0  0
  3 20  1  0  0  0  0
  7 21  1  0  0  0  0
  7 22  1  0  0  0  0
  8 23  1  0  0  0  0
  8 24  1  0  0  0  0
  9 25  1  0  0  0  0
  9 26  1  0  0  0  0
 10 27  1  0  0  0  0
 11 28  1  0  0  0  0
 11 29  1  0  0  0  0
 12 30  1  0  0  0  0
M  CHG  2  10   1  13  -1
M  END
> <FRED Chemgauss4 score>
-10.077183

$$$$
C93975550	P147291564
  -OEChem-05122015313D

 36 37  0     0  0  0  0  0  0999 V2000
  117.0454  110.0264  106.0680 C   0  0  0  0  0  0  0  0  0  0  0  0
  116.8924  111.0635  106.6543 C   0  0  0  0  0  0  0  0  0  0  0  0
  117.7503  107.6481  105.9254 C   0  0  0  0  0  0  0  0  0  0  0  0
  117.3249  106.9510  103.7493 C   0  0  0  0  0  0  0  0  0  0  0  0
  117.2261  108.7961  105.3728 C   0  0  0  0  0  0  0  0  0  0  0  0
  117.8076  106.5794  104.9848 C   0  0  0  0  0  0  0  0  0  0  0  0
  118.3194  105.2129  105.2634 C   0  0  0  0  0  0  0  0  0  0  0  0
  122.1737  104.7216  106.0369 C   0  0  0  0  0  0  0  0  0  0  0  0
  125.4508  105.2300  106.8002 C   0  0  0  0  0  0  0  0  0  0  0  0
  125.3239  104.7166  108.2037 C   0  0  0  0  0  0  0  0  0  0  0  0
  124.1165  105.2652  107.4938 C   0  0  0  0  0  0  0  0  0  0  0  0
  116.7085  112.3269  107.3674 C   0  0  0  0  0  0  0  0  0  0  0  0
  121.1358  103.6354  105.8188 C   0  0  0  0  0  0  0  0  0  0  0  0
  119.8754  103.8595  106.6431 C   0  0  0  0  0  0  0  0  0  0  0  0
  119.2663  105.1135  106.2724 N   0  0  0  0  0  0  0  0  0  0  0  0
  123.0338  104.4037  107.0778 N   0  0  0  0  0  0  0  0  0  0  0  0
  117.9072  104.2696  104.5935 O   0  0  0  0  0  0  0  0  0  0  0  0
  122.2269  105.7458  105.3615 O   0  0  0  0  0  0  0  0  0  0  0  0
  115.3540  112.4530  107.7767 O   0  0  0  0  0  0  0  0  0  0  0  0
  116.8056  108.5827  103.7266 S   0  0  0  0  0  0  0  0  0  0  0  0
  118.0784  107.5739  106.9556 H   0  0  0  0  0  0  0  0  0  0  0  0
  117.2497  106.3477  102.8549 H   0  0  0  0  0  0  0  0  0  0  0  0
  125.9802  106.1633  106.6515 H   0  0  0  0  0  0  0  0  0  0  0  0
  125.5882  104.5045  106.0079 H   0  0  0  0  0  0  0  0  0  0  0  0
  125.3757  103.6457  108.3560 H   0  0  0  0  0  0  0  0  0  0  0  0
  125.7681  105.3052  108.9970 H   0  0  0  0  0  0  0  0  0  0  0  0
  123.7625  106.2380  107.8174 H   0  0  0  0  0  0  0  0  0  0  0  0
  117.3447  112.3657  108.2568 H   0  0  0  0  0  0  0  0  0  0  0  0
  116.9563  113.1751  106.7222 H   0  0  0  0  0  0  0  0  0  0  0  0
  120.8861  103.6057  104.7509 H   0  0  0  0  0  0  0  0  0  0  0  0
  121.5871  102.6692  106.0773 H   0  0  0  0  0  0  0  0  0  0  0  0
  120.1125  103.8745  107.7124 H   0  0  0  0  0  0  0  0  0  0  0  0
  119.1592  103.0470  106.4797 H   0  0  0  0  0  0  0  0  0  0  0  0
  119.6040  105.9499  106.7401 H   0  0  0  0  0  0  0  0  0  0  0  0
  122.8962  103.5256  107.5696 H   0  0  0  0  0  0  0  0  0  0  0  0
  115.2794  113.3014  108.2432 H   0  0  0  0  0  0  0  0  0  0  0  0
  1  2  3  0  0  0  0
  1  5  1  0  0  0  0
  2 12  1  0  0  0  0
  3  5  2  0  0  0  0
  3  6  1  0  0  0  0
  4  6  2  0  0  0  0
  4 20  1  0  0  0  0
  5 20  1  0  0  0  0
  6  7  1  0  0  0  0
  7 15  1  0  0  0  0
  7 17  2  0  0  0  0
  8 13  1  0  0  0  0
  8 16  1  0  0  0  0
  8 18  2  0  0  0  0
  9 10  1  0  0  0  0
  9 11  1  0  0  0  0
 10 11  1  0  0  0  0
 11 16  1  0  0  0  0
 12 19  1  0  0  0  0
 13 14  1  0  0  0  0
 14 15  1  0  0  0  0
  3 21  1  0  0  0  0
  4 22  1  0  0  0  0
  9 23  1  0  0  0  0
  9 24  1  0  0  0  0
 10 25  1  0  0  0  0
 10 26  1  0  0  0  0
 11 27  1  0  0  0  0
 12 28  1  0  0  0  0
 12 29  1  0  0  0  0
 13 30  1  0  0  0  0
 13 31  1  0  0  0  0
 14 32  1  0  0  0  0
 14 33  1  0  0  0  0
 15 34  1  0  0  0  0
 16 35  1  0  0  0  0
 19 36  1  0  0  0  0
M  END
> <FRED Chemgauss4 score>
-10.073622

$$$$
C36896014	P54845933
  -OEChem-05122015313D

 42 44  0     1  0  0  0  0  0999 V2000
  117.4512  109.1697  107.6174 C   0  0  0  0  0  0  0  0  0  0  0  0
  116.3063  108.5952  107.0606 C   0  0  0  0  0  0  0  0  0  0  0  0
  118.7169  108.6098  107.4023 C   0  0  0  0  0  0  0  0  0  0  0  0
  116.3830  107.4435  106.2705 C   0  0  0  0  0  0  0  0  0  0  0  0
  123.0340  105.4455  106.4255 C   0  0  0  0  0  0  0  0  0  0  0  0
  122.9427  105.4161  108.5519 C   0  0  0  0  0  0  0  0  0  0  0  0
  118.8124  107.4525  106.6112 C   0  0  0  0  0  0  0  0  0  0  0  0
  117.6536  106.9032  106.0698 C   0  0  0  0  0  0  0  0  0  0  0  0
  122.0021  104.5920  106.7373 C   0  0  0  0  0  0  0  0  0  0  0  0
  119.4489  105.7390  105.5075 C   0  0  0  0  0  0  0  0  0  0  0  0
  115.7811  105.3336  104.7178 C   0  0  0  0  0  0  0  0  0  0  0  0
  117.4158  103.4644  105.1798 C   0  0  0  0  0  0  0  0  0  0  0  0
  117.6055  104.8244  103.1101 C   0  0  0  0  0  0  0  0  0  0  0  0
  121.0539  103.7831  105.8818 C   0  0  0  0  0  0  0  0  0  0  0  0
  120.2494  104.6688  104.8777 C   0  0  2  0  0  0  0  0  0  0  0  0
  117.2591  104.8951  104.6180 C   0  0  0  0  0  0  0  0  0  0  0  0
  123.6157  105.9549  107.5595 N   0  0  0  0  0  0  0  0  0  0  0  0
  119.9175  106.7160  106.2510 N   0  0  0  0  0  0  0  0  0  0  0  0
  121.9560  104.5830  108.1030 N   0  0  0  0  0  0  0  0  0  0  0  0
  118.0905  105.8085  105.3689 N   0  0  0  0  0  0  0  0  0  0  0  0
  121.1968  105.1962  103.8637 N   0  0  0  0  0  0  0  0  0  0  0  0
  117.3598  110.0657  108.2259 H   0  0  0  0  0  0  0  0  0  0  0  0
  115.3364  109.0511  107.2446 H   0  0  0  0  0  0  0  0  0  0  0  0
  119.6002  109.0644  107.8389 H   0  0  0  0  0  0  0  0  0  0  0  0
  115.4938  106.9987  105.8379 H   0  0  0  0  0  0  0  0  0  0  0  0
  123.3898  105.7206  105.4428 H   0  0  0  0  0  0  0  0  0  0  0  0
  123.1166  105.5849  109.6051 H   0  0  0  0  0  0  0  0  0  0  0  0
  115.6422  106.3475  104.3250 H   0  0  0  0  0  0  0  0  0  0  0  0
  115.1140  104.6769  104.1493 H   0  0  0  0  0  0  0  0  0  0  0  0
  115.4394  105.3278  105.7594 H   0  0  0  0  0  0  0  0  0  0  0  0
  118.4507  103.1098  105.1296 H   0  0  0  0  0  0  0  0  0  0  0  0
  117.1132  103.4175  106.2323 H   0  0  0  0  0  0  0  0  0  0  0  0
  116.7966  102.7532  104.6208 H   0  0  0  0  0  0  0  0  0  0  0  0
  118.6475  104.5170  102.9594 H   0  0  0  0  0  0  0  0  0  0  0  0
  116.9781  104.0948  102.5850 H   0  0  0  0  0  0  0  0  0  0  0  0
  117.4853  105.7985  102.6220 H   0  0  0  0  0  0  0  0  0  0  0  0
  120.3810  103.2369  106.5577 H   0  0  0  0  0  0  0  0  0  0  0  0
  121.6142  103.0085  105.3417 H   0  0  0  0  0  0  0  0  0  0  0  0
  119.5913  103.9789  104.3067 H   0  0  0  0  0  0  0  0  0  0  0  0
  121.3107  104.0585  108.6790 H   0  0  0  0  0  0  0  0  0  0  0  0
  120.8877  105.9580  103.3198 H   0  0  0  0  0  0  0  0  0  0  0  0
  121.9816  104.6371  103.6551 H   0  0  0  0  0  0  0  0  0  0  0  0
  1  2  1  0  0  0  0
  1  3  2  0  0  0  0
  2  4  2  0  0  0  0
  3  7  1  0  0  0  0
  4  8  1  0  0  0  0
  5  9  2  0  0  0  0
  5 17  1  0  0  0  0
  6 17  2  0  0  0  0
  6 19  1  0  0  0  0
  7  8  2  0  0  0  0
  7 18  1  0  0  0  0
  8 20  1  0  0  0  0
  9 14  1  0  0  0  0
  9 19  1  0  0  0  0
 10 15  1  0  0  0  0
 10 18  2  0  0  0  0
 10 20  1  0  0  0  0
 11 16  1  0  0  0  0
 12 16  1  0  0  0  0
 13 16  1  0  0  0  0
 14 15  1  0  0  0  0
 15 21  1  0  0  0  0
 16 20  1  0  0  0  0
  1 22  1  0  0  0  0
  2 23  1  0  0  0  0
  3 24  1  0  0  0  0
  4 25  1  0  0  0  0
  5 26  1  0  0  0  0
  6 27  1  0  0  0  0
 11 28  1  0  0  0  0
 11 29  1  0  0  0  0
 11 30  1  0  0  0  0
 12 31  1  0  0  0  0
 12 32  1  0  0  0  0
 12 33  1  0  0  0  0
 13 34  1  0  0  0  0
 13 35  1  0  0  0  0
 13 36  1  0  0  0  0
 14 37  1  0  0  0  0
 14 38  1  0  0  0  0
 15 39  1  0  0  0  0
 19 40  1  0  0  0  0
 21 41  1  0  0  0  0
 21 42  1  0  0  0  0
M  END
> <FRED Chemgauss4 score>
-10.066238

$$$$
C05248176	P07761419
  -OEChem-05122015313D

 42 44  0     0  0  0  0  0  0999 V2000
  120.6665  108.6581  108.0673 C   0  0  0  0  0  0  0  0  0  0  0  0
  121.9116  108.0465  108.1958 C   0  0  0  0  0  0  0  0  0  0  0  0
  119.5886  107.9435  107.5529 C   0  0  0  0  0  0  0  0  0  0  0  0
  122.4547  104.0383  107.0351 C   0  0  0  0  0  0  0  0  0  0  0  0
  123.5247  104.7636  107.5508 C   0  0  0  0  0  0  0  0  0  0  0  0
  122.0946  106.7100  107.8104 C   0  0  0  0  0  0  0  0  0  0  0  0
  121.0004  105.9764  107.2867 C   0  0  0  0  0  0  0  0  0  0  0  0
  119.7548  106.6080  107.1646 C   0  0  0  0  0  0  0  0  0  0  0  0
  121.1977  104.6423  106.9042 C   0  0  0  0  0  0  0  0  0  0  0  0
  123.3471  106.0905  107.9364 C   0  0  0  0  0  0  0  0  0  0  0  0
  118.5981  105.8622  106.6207 C   0  0  0  0  0  0  0  0  0  0  0  0
  120.0700  103.8570  106.3561 C   0  0  0  0  0  0  0  0  0  0  0  0
  117.6873  103.7408  105.8104 C   0  0  0  0  0  0  0  0  0  0  0  0
  126.7830  106.9088  107.7817 C   0  0  0  0  0  0  0  0  0  0  0  0
  124.9020  107.4033  106.1597 C   0  0  0  0  0  0  0  0  0  0  0  0
  125.3715  108.9886  108.0863 C   0  0  0  0  0  0  0  0  0  0  0  0
  125.3720  107.5152  107.6271 C   0  0  0  0  0  0  0  0  0  0  0  0
  118.8296  104.5171  106.2808 N   0  0  0  0  0  0  0  0  0  0  0  0
  124.4708  106.7806  108.4541 N   0  0  0  0  0  0  0  0  0  0  0  0
  117.5227  106.4423  106.4890 O   0  0  0  0  0  0  0  0  0  0  0  0
  120.2645  102.6982  105.9952 O   0  0  0  0  0  0  0  0  0  0  0  0
  127.7235  107.5983  106.9651 O   0  0  0  0  0  0  0  0  0  0  0  0
  125.7654  108.1023  105.2694 O   0  0  0  0  0  0  0  0  0  0  0  0
  124.2608  109.6900  107.5367 O   0  0  0  0  0  0  0  0  0  0  0  0
  120.5373  109.6938  108.3683 H   0  0  0  0  0  0  0  0  0  0  0  0
  122.7273  108.6408  108.6012 H   0  0  0  0  0  0  0  0  0  0  0  0
  118.6283  108.4444  107.4639 H   0  0  0  0  0  0  0  0  0  0  0  0
  122.6199  103.0051  106.7417 H   0  0  0  0  0  0  0  0  0  0  0  0
  124.4949  104.2826  107.6476 H   0  0  0  0  0  0  0  0  0  0  0  0
  117.6007  103.8207  104.7237 H   0  0  0  0  0  0  0  0  0  0  0  0
  116.7650  104.1122  106.2652 H   0  0  0  0  0  0  0  0  0  0  0  0
  117.8103  102.6877  106.0772 H   0  0  0  0  0  0  0  0  0  0  0  0
  127.1218  106.9853  108.8210 H   0  0  0  0  0  0  0  0  0  0  0  0
  126.7999  105.8535  107.4875 H   0  0  0  0  0  0  0  0  0  0  0  0
  123.9011  107.8293  106.0310 H   0  0  0  0  0  0  0  0  0  0  0  0
  124.8603  106.3566  105.8377 H   0  0  0  0  0  0  0  0  0  0  0  0
  126.2807  109.5082  107.7649 H   0  0  0  0  0  0  0  0  0  0  0  0
  125.3006  109.0512  109.1778 H   0  0  0  0  0  0  0  0  0  0  0  0
  124.6111  106.7304  109.4426 H   0  0  0  0  0  0  0  0  0  0  0  0
  128.5823  107.1703  107.1088 H   0  0  0  0  0  0  0  0  0  0  0  0
  125.4016  107.9821  104.3780 H   0  0  0  0  0  0  0  0  0  0  0  0
  124.3200  110.6020  107.8622 H   0  0  0  0  0  0  0  0  0  0  0  0
  1  2  1  0  0  0  0
  1  3  2  0  0  0  0
  2  6  2  0  0  0  0
  3  8  1  0  0  0  0
  4  5  1  0  0  0  0
  4  9  2  0  0  0  0
  5 10  2  0  0  0  0
  6  7  1  0  0  0  0
  6 10  1  0  0  0  0
  7  8  2  0  0  0  0
  7  9  1  0  0  0  0
  8 11  1  0  0  0  0
  9 12  1  0  0  0  0
 10 19  1  0  0  0  0
 11 18  1  0  0  0  0
 11 20  2  0  0  0  0
 12 18  1  0  0  0  0
 12 21  2  0  0  0  0
 13 18  1  0  0  0  0
 14 17  1  0  0  0  0
 14 22  1  0  0  0  0
 15 17  1  0  0  0  0
 15 23  1  0  0  0  0
 16 17  1  0  0  0  0
 16 24  1  0  0  0  0
 17 19  1  0  0  0  0
  1 25  1  0  0  0  0
  2 26  1  0  0  0  0
  3 27  1  0  0  0  0
  4 28  1  0  0  0  0
  5 29  1  0  0  0  0
 13 30  1  0  0  0  0
 13 31  1  0  0  0  0
 13 32  1  0  0  0  0
 14 33  1  0  0  0  0
 14 34  1  0  0  0  0
 15 35  1  0  0  0  0
 15 36  1  0  0  0  0
 16 37  1  0  0  0  0
 16 38  1  0  0  0  0
 19 39  1  0  0  0  0
 22 40  1  0  0  0  0
 23 41  1  0  0  0  0
 24 42  1  0  0  0  0
M  END
> <FRED Chemgauss4 score>
-10.058138

$$$$
C94871779	P148706776
  -OEChem-05122015313D

 31 33  0     0  0  0  0  0  0999 V2000
  120.2536  104.9195  104.7136 C   0  0  0  0  0  0  0  0  0  0  0  0
  119.4080  103.8765  106.7220 C   0  0  0  0  0  0  0  0  0  0  0  0
  118.9592  104.9743  104.1969 C   0  0  0  0  0  0  0  0  0  0  0  0
  118.1134  103.9313  106.2054 C   0  0  0  0  0  0  0  0  0  0  0  0
  121.7567  107.4405  108.0871 C   0  0  0  0  0  0  0  0  0  0  0  0
  123.4697  105.3915  107.7571 C   0  0  0  0  0  0  0  0  0  0  0  0
  120.4781  104.3705  105.9761 C   0  0  0  0  0  0  0  0  0  0  0  0
  117.8891  104.4803  104.9429 C   0  0  0  0  0  0  0  0  0  0  0  0
  123.8247  106.5383  108.4616 C   0  0  0  0  0  0  0  0  0  0  0  0
  122.1896  105.3868  107.2251 C   0  0  0  0  0  0  0  0  0  0  0  0
  124.4186  104.2557  107.5174 C   0  0  0  0  0  0  0  0  0  0  0  0
  125.1756  106.6587  109.1156 C   0  0  0  0  0  0  0  0  0  0  0  0
  125.6270  104.2831  108.4537 C   0  0  0  0  0  0  0  0  0  0  0  0
  126.2083  105.6906  108.5404 C   0  0  0  0  0  0  0  0  0  0  0  0
  122.9736  107.5747  108.6469 N   0  0  0  0  0  0  0  0  0  0  0  0
  121.3056  106.3937  107.3747 N   0  0  0  0  0  0  0  0  0  0  0  0
  121.7590  104.3149  106.4874 O   0  0  0  0  0  0  0  0  0  0  0  0
  115.9611  104.5618  104.1733 I   0  0  0  0  0  0  0  0  0  0  0  0
  121.0832  105.3063  104.1278 H   0  0  0  0  0  0  0  0  0  0  0  0
  119.5774  103.4467  107.7057 H   0  0  0  0  0  0  0  0  0  0  0  0
  118.8065  105.4051  103.2107 H   0  0  0  0  0  0  0  0  0  0  0  0
  117.2937  103.5401  106.8026 H   0  0  0  0  0  0  0  0  0  0  0  0
  121.0676  108.2644  108.2262 H   0  0  0  0  0  0  0  0  0  0  0  0
  123.9050  103.2953  107.6434 H   0  0  0  0  0  0  0  0  0  0  0  0
  124.7674  104.3131  106.4787 H   0  0  0  0  0  0  0  0  0  0  0  0
  125.5449  107.6856  109.0126 H   0  0  0  0  0  0  0  0  0  0  0  0
  125.0492  106.4616  110.1873 H   0  0  0  0  0  0  0  0  0  0  0  0
  125.3285  103.9496  109.4559 H   0  0  0  0  0  0  0  0  0  0  0  0
  126.3872  103.5801  108.0951 H   0  0  0  0  0  0  0  0  0  0  0  0
  126.5165  106.0224  107.5408 H   0  0  0  0  0  0  0  0  0  0  0  0
  127.1046  105.6910  109.1707 H   0  0  0  0  0  0  0  0  0  0  0  0
  1  3  1  0  0  0  0
  1  7  2  0  0  0  0
  2  4  2  0  0  0  0
  2  7  1  0  0  0  0
  3  8  2  0  0  0  0
  4  8  1  0  0  0  0
  5 15  2  0  0  0  0
  5 16  1  0  0  0  0
  6  9  2  0  0  0  0
  6 10  1  0  0  0  0
  6 11  1  0  0  0  0
  7 17  1  0  0  0  0
  8 18  1  0  0  0  0
  9 12  1  0  0  0  0
  9 15  1  0  0  0  0
 10 16  2  0  0  0  0
 10 17  1  0  0  0  0
 11 13  1  0  0  0  0
 12 14  1  0  0  0  0
 13 14  1  0  0  0  0
  1 19  1  0  0  0  0
  2 20  1  0  0  0  0
  3 21  1  0  0  0  0
  4 22  1  0  0  0  0
  5 23  1  0  0  0  0
 11 24  1  0  0  0  0
 11 25  1  0  0  0  0
 12 26  1  0  0  0  0
 12 27  1  0  0  0  0
 13 28  1  0  0  0  0
 13 29  1  0  0  0  0
 14 30  1  0  0  0  0
 14 31  1  0  0  0  0
M  END
> <FRED Chemgauss4 score>
-10.050111

$$$$
C43287250	P65476418
  -OEChem-05122015313D

 42 43  0     1  0  0  0  0  0999 V2000
  119.6958  106.6724  106.0881 C   0  0  0  0  0  0  0  0  0  0  0  0
  117.5232  106.0831  106.6665 C   0  0  0  0  0  0  0  0  0  0  0  0
  118.3578  107.1151  106.2977 C   0  0  0  0  0  0  0  0  0  0  0  0
  119.8329  105.3189  106.3050 C   0  0  0  0  0  0  0  0  0  0  0  0
  125.9095  107.9097  107.5929 C   0  0  0  0  0  0  0  0  0  0  0  0
  124.7210  105.2435  106.8380 C   0  0  0  0  0  0  0  0  0  0  0  0
  123.2875  106.6311  108.3555 C   0  0  0  0  0  0  0  0  0  0  0  0
  123.4778  104.4271  106.4786 C   0  0  0  0  0  0  0  0  0  0  0  0
  122.0919  105.7685  107.9463 C   0  0  0  0  0  0  0  0  0  0  0  0
  124.6021  105.8525  108.2392 C   0  0  0  0  0  0  0  0  0  0  0  0
  121.3237  104.9136  103.6662 C   0  0  0  0  0  0  0  0  0  0  0  0
  125.7989  106.7463  108.5522 C   0  0  0  0  0  0  0  0  0  0  0  0
  121.0868  104.4625  106.1895 C   0  0  1  0  0  0  0  0  0  0  0  0
  121.2515  103.8559  104.7690 C   0  0  1  0  0  0  0  0  0  0  0  0
  122.2599  105.2416  106.5853 N   0  0  0  0  0  0  0  0  0  0  0  0
  126.9784  108.7268  107.8925 N   0  0  0  0  0  0  0  0  0  0  0  0
  120.1538  102.9560  104.4717 N   0  0  0  0  0  0  0  0  0  0  0  0
  125.1406  108.1079  106.6567 O   0  0  0  0  0  0  0  0  0  0  0  0
  118.3525  104.5878  106.7590 S   0  0  0  0  0  0  0  0  0  0  0  0
  117.8394  108.9115  106.0817 Br  0  0  0  0  0  0  0  0  0  0  0  0
  120.5202  107.3103  105.7930 H   0  0  0  0  0  0  0  0  0  0  0  0
  116.4656  106.1285  106.8873 H   0  0  0  0  0  0  0  0  0  0  0  0
  125.6066  104.5990  106.7845 H   0  0  0  0  0  0  0  0  0  0  0  0
  124.8614  106.0386  106.0938 H   0  0  0  0  0  0  0  0  0  0  0  0
  123.3239  107.5264  107.7208 H   0  0  0  0  0  0  0  0  0  0  0  0
  123.1488  106.9785  109.3863 H   0  0  0  0  0  0  0  0  0  0  0  0
  123.5936  104.0658  105.4494 H   0  0  0  0  0  0  0  0  0  0  0  0
  123.4166  103.5442  107.1286 H   0  0  0  0  0  0  0  0  0  0  0  0
  121.9622  104.9520  108.6690 H   0  0  0  0  0  0  0  0  0  0  0  0
  121.1904  106.3914  107.9942 H   0  0  0  0  0  0  0  0  0  0  0  0
  124.5875  105.0352  108.9727 H   0  0  0  0  0  0  0  0  0  0  0  0
  120.4343  105.5534  103.6730 H   0  0  0  0  0  0  0  0  0  0  0  0
  121.4165  104.4598  102.6751 H   0  0  0  0  0  0  0  0  0  0  0  0
  122.1949  105.5633  103.8097 H   0  0  0  0  0  0  0  0  0  0  0  0
  126.7153  106.1531  108.4960 H   0  0  0  0  0  0  0  0  0  0  0  0
  125.7011  107.1351  109.5692 H   0  0  0  0  0  0  0  0  0  0  0  0
  121.0018  103.6304  106.9016 H   0  0  0  0  0  0  0  0  0  0  0  0
  122.1614  103.2460  104.7178 H   0  0  0  0  0  0  0  0  0  0  0  0
  127.5737  108.5021  108.6834 H   0  0  0  0  0  0  0  0  0  0  0  0
  127.1787  109.5497  107.3338 H   0  0  0  0  0  0  0  0  0  0  0  0
  119.7804  102.3945  105.2125 H   0  0  0  0  0  0  0  0  0  0  0  0
  119.9350  102.7678  103.5124 H   0  0  0  0  0  0  0  0  0  0  0  0
  1  3  1  0  0  0  0
  1  4  2  0  0  0  0
  2  3  2  0  0  0  0
  2 19  1  0  0  0  0
  3 20  1  0  0  0  0
  4 13  1  0  0  0  0
  4 19  1  0  0  0  0
  5 12  1  0  0  0  0
  5 16  1  0  0  0  0
  5 18  2  0  0  0  0
  6  8  1  0  0  0  0
  6 10  1  0  0  0  0
  7  9  1  0  0  0  0
  7 10  1  0  0  0  0
  8 15  1  0  0  0  0
  9 15  1  0  0  0  0
 10 12  1  0  0  0  0
 11 14  1  0  0  0  0
 13 14  1  0  0  0  0
 13 15  1  0  0  0  0
 14 17  1  0  0  0  0
  1 21  1  0  0  0  0
  2 22  1  0  0  0  0
  6 23  1  0  0  0  0
  6 24  1  0  0  0  0
  7 25  1  0  0  0  0
  7 26  1  0  0  0  0
  8 27  1  0  0  0  0
  8 28  1  0  0  0  0
  9 29  1  0  0  0  0
  9 30  1  0  0  0  0
 10 31  1  0  0  0  0
 11 32  1  0  0  0  0
 11 33  1  0  0  0  0
 11 34  1  0  0  0  0
 12 35  1  0  0  0  0
 12 36  1  0  0  0  0
 13 37  1  0  0  0  0
 14 38  1  0  0  0  0
 16 39  1  0  0  0  0
 16 40  1  0  0  0  0
 17 41  1  0  0  0  0
 17 42  1  0  0  0  0
M  END
> <FRED Chemgauss4 score>
-10.049334

$$$$
C94208176	P147647080
  -OEChem-05122015313D

 27 28  0     0  0  0  0  0  0999 V2000
  125.7732  104.6794  108.3075 C   0  0  0  0  0  0  0  0  0  0  0  0
  117.2825  105.9083  106.1455 C   0  0  0  0  0  0  0  0  0  0  0  0
  117.8324  107.1426  106.4915 C   0  0  0  0  0  0  0  0  0  0  0  0
  124.5126  104.3487  107.8229 C   0  0  0  0  0  0  0  0  0  0  0  0
  119.3941  104.8345  106.6202 C   0  0  0  0  0  0  0  0  0  0  0  0
  124.8963  106.7759  109.0091 C   0  0  0  0  0  0  0  0  0  0  0  0
  119.9440  106.0688  106.9662 C   0  0  0  0  0  0  0  0  0  0  0  0
  125.9771  105.9141  108.9133 C   0  0  0  0  0  0  0  0  0  0  0  0
  118.0634  104.7542  106.2099 C   0  0  0  0  0  0  0  0  0  0  0  0
  119.1631  107.2229  106.9018 C   0  0  0  0  0  0  0  0  0  0  0  0
  123.4974  105.2804  107.9677 C   0  0  0  0  0  0  0  0  0  0  0  0
  122.1232  104.9570  107.4566 C   0  0  0  0  0  0  0  0  0  0  0  0
  123.6573  106.4898  108.5503 N   0  0  0  0  0  0  0  0  0  0  0  0
  121.2947  106.1183  107.3785 N   0  0  0  0  0  0  0  0  0  0  0  0
  127.1958  106.2634  109.3944 O   0  0  0  0  0  0  0  0  0  0  0  0
  117.3841  103.2317  105.7830 Cl  0  0  0  0  0  0  0  0  0  0  0  0
  119.8037  108.7711  107.3220 Cl  0  0  0  0  0  0  0  0  0  0  0  0
  126.5920  103.9716  108.2122 H   0  0  0  0  0  0  0  0  0  0  0  0
  116.2441  105.8607  105.8276 H   0  0  0  0  0  0  0  0  0  0  0  0
  117.2103  108.0324  106.4362 H   0  0  0  0  0  0  0  0  0  0  0  0
  124.3399  103.3887  107.3483 H   0  0  0  0  0  0  0  0  0  0  0  0
  120.0050  103.9355  106.6710 H   0  0  0  0  0  0  0  0  0  0  0  0
  124.9970  107.7525  109.4725 H   0  0  0  0  0  0  0  0  0  0  0  0
  122.1777  104.5136  106.4564 H   0  0  0  0  0  0  0  0  0  0  0  0
  121.6227  104.2318  108.1069 H   0  0  0  0  0  0  0  0  0  0  0  0
  121.6601  107.0184  107.6215 H   0  0  0  0  0  0  0  0  0  0  0  0
  127.8387  105.5490  109.2469 H   0  0  0  0  0  0  0  0  0  0  0  0
  1  4  2  0  0  0  0
  1  8  1  0  0  0  0
  2  3  1  0  0  0  0
  2  9  2  0  0  0  0
  3 10  2  0  0  0  0
  4 11  1  0  0  0  0
  5  7  2  0  0  0  0
  5  9  1  0  0  0  0
  6  8  2  0  0  0  0
  6 13  1  0  0  0  0
  7 10  1  0  0  0  0
  7 14  1  0  0  0  0
  8 15  1  0  0  0  0
  9 16  1  0  0  0  0
 10 17  1  0  0  0  0
 11 12  1  0  0  0  0
 11 13  2  0  0  0  0
 12 14  1  0  0  0  0
  1 18  1  0  0  0  0
  2 19  1  0  0  0  0
  3 20  1  0  0  0  0
  4 21  1  0  0  0  0
  5 22  1  0  0  0  0
  6 23  1  0  0  0  0
 12 24  1  0  0  0  0
 12 25  1  0  0  0  0
 14 26  1  0  0  0  0
 15 27  1  0  0  0  0
M  END
> <FRED Chemgauss4 score>
-10.044065

$$$$
C45084447	P128457551
  -OEChem-05122015313D

 27 27  0     0  0  0  0  0  0999 V2000
  118.4813  103.7557  105.9349 C   0  0  0  0  0  0  0  0  0  0  0  0
  119.6332  103.5641  106.6897 C   0  0  0  0  0  0  0  0  0  0  0  0
  118.8819  106.0987  106.0136 C   0  0  0  0  0  0  0  0  0  0  0  0
  118.0916  105.0440  105.5861 C   0  0  0  0  0  0  0  0  0  0  0  0
  120.3546  104.6851  107.0676 C   0  0  0  0  0  0  0  0  0  0  0  0
  123.8854  104.9231  107.3781 C   0  0  0  0  0  0  0  0  0  0  0  0
  122.5665  105.4358  107.9450 C   0  0  0  0  0  0  0  0  0  0  0  0
  125.0046  105.9494  107.4893 C   0  0  0  0  0  0  0  0  0  0  0  0
  120.0074  105.9519  106.7480 N   0  0  0  0  0  0  0  0  0  0  0  0
  126.0045  108.3476  106.9417 N   0  0  0  0  0  0  0  0  0  0  0  0
  121.5034  104.4768  107.8210 N   0  0  0  0  0  0  0  0  0  0  0  0
  124.5286  107.1423  105.2139 O   0  0  0  0  0  0  0  0  0  0  0  0
  123.4761  108.0619  107.3192 O   0  0  0  0  0  0  0  0  0  0  0  0
  124.5953  107.4387  106.6343 S   0  0  0  0  0  0  0  0  0  0  0  0
  116.5396  105.3453  104.5630 Br  0  0  0  0  0  0  0  0  0  0  0  0
  117.8980  102.8920  105.6262 H   0  0  0  0  0  0  0  0  0  0  0  0
  119.9440  102.5621  106.9673 H   0  0  0  0  0  0  0  0  0  0  0  0
  118.6331  107.1283  105.7749 H   0  0  0  0  0  0  0  0  0  0  0  0
  123.7379  104.6620  106.3229 H   0  0  0  0  0  0  0  0  0  0  0  0
  124.1799  103.9990  107.8911 H   0  0  0  0  0  0  0  0  0  0  0  0
  122.6660  105.6896  109.0052 H   0  0  0  0  0  0  0  0  0  0  0  0
  122.2499  106.3344  107.4063 H   0  0  0  0  0  0  0  0  0  0  0  0
  125.1906  106.2234  108.5320 H   0  0  0  0  0  0  0  0  0  0  0  0
  125.9360  105.5812  107.0493 H   0  0  0  0  0  0  0  0  0  0  0  0
  126.6470  108.5140  106.1574 H   0  0  0  0  0  0  0  0  0  0  0  0
  125.9302  109.1402  107.5913 H   0  0  0  0  0  0  0  0  0  0  0  0
  121.5920  103.5899  108.3108 H   0  0  0  0  0  0  0  0  0  0  0  0
  1  2  1  0  0  0  0
  1  4  2  0  0  0  0
  2  5  2  0  0  0  0
  3  4  1  0  0  0  0
  3  9  2  0  0  0  0
  4 15  1  0  0  0  0
  5  9  1  0  0  0  0
  5 11  1  0  0  0  0
  6  7  1  0  0  0  0
  6  8  1  0  0  0  0
  7 11  1  0  0  0  0
  8 14  1  0  0  0  0
 10 14  1  0  0  0  0
 12 14  2  0  0  0  0
 13 14  2  0  0  0  0
  1 16  1  0  0  0  0
  2 17  1  0  0  0  0
  3 18  1  0  0  0  0
  6 19  1  0  0  0  0
  6 20  1  0  0  0  0
  7 21  1  0  0  0  0
  7 22  1  0  0  0  0
  8 23  1  0  0  0  0
  8 24  1  0  0  0  0
 10 25  1  0  0  0  0
 10 26  1  0  0  0  0
 11 27  1  0  0  0  0
M  END
> <FRED Chemgauss4 score>
-10.043382

$$$$
C72169033	P112081059
  -OEChem-05122015313D

 21 21  0     1  0  0  0  0  0999 V2000
  125.2343  105.9165  108.6241 C   0  0  0  0  0  0  0  0  0  0  0  0
  126.9485  106.6137  107.5648 C   0  0  0  0  0  0  0  0  0  0  0  0
  126.7253  105.5184  108.6287 C   0  0  0  0  0  0  0  0  0  0  0  0
  125.4563  106.4551  107.1917 C   0  0  0  0  0  0  0  0  0  0  0  0
  125.1903  109.1741  107.9532 C   0  0  0  0  0  0  0  0  0  0  0  0
  127.4006  105.7918  109.9011 N   0  3  0  0  0  0  0  0  0  0  0  0
  125.0778  108.2658  105.3674 O   0  5  0  0  0  0  0  0  0  0  0  0
  123.1329  107.6077  107.0374 O   0  0  0  0  0  0  0  0  0  0  0  0
  124.5632  107.9919  106.7575 P   0  0  1  0  0  0  0  0  0  0  0  0
  124.5264  105.0873  108.7065 H   0  0  0  0  0  0  0  0  0  0  0  0
  124.9569  106.6913  109.3487 H   0  0  0  0  0  0  0  0  0  0  0  0
  127.2013  107.6039  107.9622 H   0  0  0  0  0  0  0  0  0  0  0  0
  127.6573  106.3610  106.7715 H   0  0  0  0  0  0  0  0  0  0  0  0
  126.9147  104.5015  108.2663 H   0  0  0  0  0  0  0  0  0  0  0  0
  125.2987  105.6829  106.4276 H   0  0  0  0  0  0  0  0  0  0  0  0
  124.7246  110.1501  107.7955 H   0  0  0  0  0  0  0  0  0  0  0  0
  124.9665  108.8357  108.9679 H   0  0  0  0  0  0  0  0  0  0  0  0
  126.2729  109.2776  107.8459 H   0  0  0  0  0  0  0  0  0  0  0  0
  128.0840  106.5602  109.8161 H   0  0  0  0  0  0  0  0  0  0  0  0
  127.9157  104.9671  110.2471 H   0  0  0  0  0  0  0  0  0  0  0  0
  126.7329  106.0622  110.6401 H   0  0  0  0  0  0  0  0  0  0  0  0
  1  3  1  0  0  0  0
  1  4  1  0  0  0  0
  2  3  1  0  0  0  0
  2  4  1  0  0  0  0
  3  6  1  0  0  0  0
  4  9  1  0  0  0  0
  5  9  1  0  0  0  0
  7  9  1  0  0  0  0
  8  9  2  0  0  0  0
  1 10  1  0  0  0  0
  1 11  1  0  0  0  0
  2 12  1  0  0  0  0
  2 13  1  0  0  0  0
  3 14  1  0  0  0  0
  4 15  1  0  0  0  0
  5 16  1  0  0  0  0
  5 17  1  0  0  0  0
  5 18  1  0  0  0  0
  6 19  1  0  0  0  0
  6 20  1  0  0  0  0
  6 21  1  0  0  0  0
M  CHG  2   6   1   7  -1
M  END
> <FRED Chemgauss4 score>
-10.042452

$$$$
C37672949	P56023838
  -OEChem-05122015313D

 36 37  0     1  0  0  0  0  0999 V2000
  116.0460  104.0892  106.0097 C   0  0  0  0  0  0  0  0  0  0  0  0
  125.2048  104.6182  108.2255 C   0  0  0  0  0  0  0  0  0  0  0  0
  117.5753  105.9754  106.3000 C   0  0  0  0  0  0  0  0  0  0  0  0
  123.8234  104.8106  108.2083 C   0  0  0  0  0  0  0  0  0  0  0  0
  126.0627  105.7080  108.0766 C   0  0  0  0  0  0  0  0  0  0  0  0
  118.8665  106.4748  106.4700 C   0  0  0  0  0  0  0  0  0  0  0  0
  118.4537  103.7257  106.2366 C   0  0  0  0  0  0  0  0  0  0  0  0
  124.1577  107.1825  107.8929 C   0  0  0  0  0  0  0  0  0  0  0  0
  117.3689  104.6008  106.1834 C   0  0  0  0  0  0  0  0  0  0  0  0
  123.2998  106.0927  108.0419 C   0  0  0  0  0  0  0  0  0  0  0  0
  125.5391  106.9901  107.9102 C   0  0  0  0  0  0  0  0  0  0  0  0
  119.9514  105.5997  106.5232 C   0  0  0  0  0  0  0  0  0  0  0  0
  119.7450  104.2251  106.4065 C   0  0  0  0  0  0  0  0  0  0  0  0
  121.3917  107.6693  108.5638 C   0  0  0  0  0  0  0  0  0  0  0  0
  122.0638  106.4566  105.5416 C   0  0  0  0  0  0  0  0  0  0  0  0
  121.8008  106.3009  108.0225 C   0  0  1  0  0  0  0  0  0  0  0  0
  114.9716  103.6738  105.8687 N   0  0  0  0  0  0  0  0  0  0  0  0
  126.4066  108.0920  107.7600 N   0  0  0  0  0  0  0  0  0  0  0  0
  121.2561  106.1078  106.6933 N   0  0  3  0  0  0  0  0  0  0  0  0
  120.7808  103.3753  106.4550 F   0  0  0  0  0  0  0  0  0  0  0  0
  125.6125  103.6197  108.3552 H   0  0  0  0  0  0  0  0  0  0  0  0
  116.7397  106.6703  106.2617 H   0  0  0  0  0  0  0  0  0  0  0  0
  123.1623  103.9556  108.3251 H   0  0  0  0  0  0  0  0  0  0  0  0
  127.1376  105.5468  108.0918 H   0  0  0  0  0  0  0  0  0  0  0  0
  119.0165  107.5476  106.5607 H   0  0  0  0  0  0  0  0  0  0  0  0
  118.3094  102.6519  106.1461 H   0  0  0  0  0  0  0  0  0  0  0  0
  123.7478  108.1816  107.7636 H   0  0  0  0  0  0  0  0  0  0  0  0
  121.8406  108.4768  107.9751 H   0  0  0  0  0  0  0  0  0  0  0  0
  120.3028  107.7870  108.5264 H   0  0  0  0  0  0  0  0  0  0  0  0
  121.6941  107.8042  109.6083 H   0  0  0  0  0  0  0  0  0  0  0  0
  123.0384  106.8308  105.8656 H   0  0  0  0  0  0  0  0  0  0  0  0
  121.5671  107.2324  104.9525 H   0  0  0  0  0  0  0  0  0  0  0  0
  122.2168  105.5792  104.9075 H   0  0  0  0  0  0  0  0  0  0  0  0
  121.3236  105.5370  108.6485 H   0  0  0  0  0  0  0  0  0  0  0  0
  127.3941  107.9474  107.8218 H   0  0  0  0  0  0  0  0  0  0  0  0
  126.0194  109.0112  107.6889 H   0  0  0  0  0  0  0  0  0  0  0  0
  1  9  1  0  0  0  0
  1 17  3  0  0  0  0
  2  4  2  0  0  0  0
  2  5  1  0  0  0  0
  3  6  2  0  0  0  0
  3  9  1  0  0  0  0
  4 10  1  0  0  0  0
  5 11  2  0  0  0  0
  6 12  1  0  0  0  0
  7  9  2  0  0  0  0
  7 13  1  0  0  0  0
  8 10  2  0  0  0  0
  8 11  1  0  0  0  0
 10 16  1  0  0  0  0
 11 18  1  0  0  0  0
 12 13  2  0  0  0  0
 12 19  1  0  0  0  0
 13 20  1  0  0  0  0
 14 16  1  0  0  0  0
 15 19  1  0  0  0  0
 16 19  1  0  0  0  0
  2 21  1  0  0  0  0
  3 22  1  0  0  0  0
  4 23  1  0  0  0  0
  5 24  1  0  0  0  0
  6 25  1  0  0  0  0
  7 26  1  0  0  0  0
  8 27  1  0  0  0  0
 14 28  1  0  0  0  0
 14 29  1  0  0  0  0
 14 30  1  0  0  0  0
 15 31  1  0  0  0  0
 15 32  1  0  0  0  0
 15 33  1  0  0  0  0
 16 34  1  0  0  0  0
 18 35  1  0  0  0  0
 18 36  1  0  0  0  0
M  END
> <FRED Chemgauss4 score>
-10.042343

$$$$
C41118879	P62412466
  -OEChem-05122015313D

 31 32  0     0  0  0  0  0  0999 V2000
  124.4558  107.2972  106.4787 C   0  0  0  0  0  0  0  0  0  0  0  0
  116.6231  103.8723  104.0707 C   0  0  0  0  0  0  0  0  0  0  0  0
  117.9286  104.3025  104.1028 C   0  0  0  0  0  0  0  0  0  0  0  0
  117.0381  104.2783  106.1185 C   0  0  0  0  0  0  0  0  0  0  0  0
  125.6275  107.2447  107.2877 C   0  0  0  0  0  0  0  0  0  0  0  0
  123.6852  106.1630  106.6096 C   0  0  0  0  0  0  0  0  0  0  0  0
  125.7077  106.0721  108.0065 C   0  0  0  0  0  0  0  0  0  0  0  0
  122.3997  105.8281  105.9445 C   0  0  0  0  0  0  0  0  0  0  0  0
  126.7557  105.6290  108.9545 C   0  0  0  0  0  0  0  0  0  0  0  0
  119.4374  105.0439  105.9831 C   0  0  0  0  0  0  0  0  0  0  0  0
  120.6165  104.1211  105.6945 C   0  0  0  0  0  0  0  0  0  0  0  0
  116.0743  103.8598  105.3286 N   0  0  0  0  0  0  0  0  0  0  0  0
  118.1801  104.5592  105.4212 N   0  0  0  0  0  0  0  0  0  0  0  0
  126.5496  108.2347  107.3393 N   0  0  0  0  0  0  0  0  0  0  0  0
  121.8438  104.5975  106.2729 N   0  0  0  0  0  0  0  0  0  0  0  0
  121.9137  106.6225  105.1437 O   0  0  0  0  0  0  0  0  0  0  0  0
  124.3743  105.0410  107.7044 S   0  0  0  0  0  0  0  0  0  0  0  0
  124.1902  108.1251  105.8320 H   0  0  0  0  0  0  0  0  0  0  0  0
  116.0504  103.5710  103.2058 H   0  0  0  0  0  0  0  0  0  0  0  0
  118.6719  104.4428  103.3305 H   0  0  0  0  0  0  0  0  0  0  0  0
  116.9686  104.3972  107.1912 H   0  0  0  0  0  0  0  0  0  0  0  0
  126.5186  105.9510  109.9799 H   0  0  0  0  0  0  0  0  0  0  0  0
  126.8652  104.5329  108.9599 H   0  0  0  0  0  0  0  0  0  0  0  0
  127.7444  106.0368  108.6907 H   0  0  0  0  0  0  0  0  0  0  0  0
  119.2887  105.1388  107.0654 H   0  0  0  0  0  0  0  0  0  0  0  0
  119.6172  106.0521  105.5913 H   0  0  0  0  0  0  0  0  0  0  0  0
  120.4292  103.1305  106.1202 H   0  0  0  0  0  0  0  0  0  0  0  0
  120.7831  104.0069  104.6186 H   0  0  0  0  0  0  0  0  0  0  0  0
  126.4786  109.0759  106.7515 H   0  0  0  0  0  0  0  0  0  0  0  0
  127.4098  108.1485  107.8969 H   0  0  0  0  0  0  0  0  0  0  0  0
  122.3420  103.9684  106.8995 H   0  0  0  0  0  0  0  0  0  0  0  0
  1  5  1  0  0  0  0
  1  6  2  0  0  0  0
  2  3  2  0  0  0  0
  2 12  1  0  0  0  0
  3 13  1  0  0  0  0
  4 12  2  0  0  0  0
  4 13  1  0  0  0  0
  5  7  2  0  0  0  0
  5 14  1  0  0  0  0
  6  8  1  0  0  0  0
  6 17  1  0  0  0  0
  7  9  1  0  0  0  0
  7 17  1  0  0  0  0
  8 15  1  0  0  0  0
  8 16  2  0  0  0  0
 10 11  1  0  0  0  0
 10 13  1  0  0  0  0
 11 15  1  0  0  0  0
  1 18  1  0  0  0  0
  2 19  1  0  0  0  0
  3 20  1  0  0  0  0
  4 21  1  0  0  0  0
  9 22  1  0  0  0  0
  9 23  1  0  0  0  0
  9 24  1  0  0  0  0
 10 25  1  0  0  0  0
 10 26  1  0  0  0  0
 11 27  1  0  0  0  0
 11 28  1  0  0  0  0
 14 29  1  0  0  0  0
 14 30  1  0  0  0  0
 15 31  1  0  0  0  0
M  END
> <FRED Chemgauss4 score>
-10.042244

$$$$
C83778410	P131081130
  -OEChem-05122015313D

 38 39  0     1  0  0  0  0  0999 V2000
  123.3046  106.7500  106.2136 C   0  0  0  0  0  0  0  0  0  0  0  0
  125.1465  107.0976  107.1321 C   0  0  0  0  0  0  0  0  0  0  0  0
  120.8727  106.6901  106.7375 C   0  0  0  0  0  0  0  0  0  0  0  0
  122.0981  104.5786  106.0608 C   0  0  0  0  0  0  0  0  0  0  0  0
  119.5383  106.0092  106.4346 C   0  0  0  0  0  0  0  0  0  0  0  0
  120.7608  103.9027  105.7594 C   0  0  0  0  0  0  0  0  0  0  0  0
  122.0099  106.1037  105.8844 C   0  0  0  0  0  0  0  0  0  0  0  0
  119.6253  104.4874  106.6096 C   0  0  0  0  0  0  0  0  0  0  0  0
  117.9210  104.0691  104.8294 C   0  0  0  0  0  0  0  0  0  0  0  0
  126.2006  106.4294  109.3309 C   0  0  0  0  0  0  0  0  0  0  0  0
  118.2935  103.8281  106.2553 C   0  0  0  0  0  0  0  0  0  0  0  0
  126.3755  107.0796  107.9416 C   0  0  2  0  0  0  0  0  0  0  0  0
  124.1497  106.2438  107.1593 N   0  0  0  0  0  0  0  0  0  0  0  0
  123.7160  107.8632  105.6029 N   0  0  0  0  0  0  0  0  0  0  0  0
  124.8962  108.0642  106.2086 N   0  0  0  0  0  0  0  0  0  0  0  0
  126.9607  108.4070  108.1120 N   0  0  0  0  0  0  0  0  0  0  0  0
  120.7801  107.7678  106.5528 H   0  0  0  0  0  0  0  0  0  0  0  0
  121.1047  106.5759  107.8049 H   0  0  0  0  0  0  0  0  0  0  0  0
  122.4048  104.3349  107.0868 H   0  0  0  0  0  0  0  0  0  0  0  0
  122.8701  104.1661  105.3991 H   0  0  0  0  0  0  0  0  0  0  0  0
  118.7664  106.4177  107.0978 H   0  0  0  0  0  0  0  0  0  0  0  0
  119.2346  106.2510  105.4079 H   0  0  0  0  0  0  0  0  0  0  0  0
  120.5294  104.0214  104.6932 H   0  0  0  0  0  0  0  0  0  0  0  0
  120.8512  102.8260  105.9466 H   0  0  0  0  0  0  0  0  0  0  0  0
  121.7974  106.3187  104.8288 H   0  0  0  0  0  0  0  0  0  0  0  0
  119.8379  104.2723  107.6653 H   0  0  0  0  0  0  0  0  0  0  0  0
  117.8470  105.1475  104.6462 H   0  0  0  0  0  0  0  0  0  0  0  0
  116.9505  103.6179  104.5972 H   0  0  0  0  0  0  0  0  0  0  0  0
  118.6795  103.6610  104.1531 H   0  0  0  0  0  0  0  0  0  0  0  0
  125.4172  106.9459  109.8963 H   0  0  0  0  0  0  0  0  0  0  0  0
  125.9239  105.3718  109.2560 H   0  0  0  0  0  0  0  0  0  0  0  0
  127.1269  106.4791  109.9143 H   0  0  0  0  0  0  0  0  0  0  0  0
  118.3675  102.7532  106.4389 H   0  0  0  0  0  0  0  0  0  0  0  0
  117.5137  104.2246  106.9105 H   0  0  0  0  0  0  0  0  0  0  0  0
  127.1803  106.5031  107.4366 H   0  0  0  0  0  0  0  0  0  0  0  0
  125.4590  108.8638  105.9431 H   0  0  0  0  0  0  0  0  0  0  0  0
  126.9183  109.0402  107.3434 H   0  0  0  0  0  0  0  0  0  0  0  0
  127.5518  108.5609  108.8999 H   0  0  0  0  0  0  0  0  0  0  0  0
  1  7  1  0  0  0  0
  1 13  1  0  0  0  0
  1 14  2  0  0  0  0
  2 12  1  0  0  0  0
  2 13  2  0  0  0  0
  2 15  1  0  0  0  0
  3  5  1  0  0  0  0
  3  7  1  0  0  0  0
  4  6  1  0  0  0  0
  4  7  1  0  0  0  0
  5  8  1  0  0  0  0
  6  8  1  0  0  0  0
  8 11  1  0  0  0  0
  9 11  1  0  0  0  0
 10 12  1  0  0  0  0
 12 16  1  0  0  0  0
 14 15  1  0  0  0  0
  3 17  1  0  0  0  0
  3 18  1  0  0  0  0
  4 19  1  0  0  0  0
  4 20  1  0  0  0  0
  5 21  1  0  0  0  0
  5 22  1  0  0  0  0
  6 23  1  0  0  0  0
  6 24  1  0  0  0  0
  7 25  1  0  0  0  0
  8 26  1  0  0  0  0
  9 27  1  0  0  0  0
  9 28  1  0  0  0  0
  9 29  1  0  0  0  0
 10 30  1  0  0  0  0
 10 31  1  0  0  0  0
 10 32  1  0  0  0  0
 11 33  1  0  0  0  0
 11 34  1  0  0  0  0
 12 35  1  0  0  0  0
 15 36  1  0  0  0  0
 16 37  1  0  0  0  0
 16 38  1  0  0  0  0
M  END
> <FRED Chemgauss4 score>
-10.041715

$$$$
C35423264	P52560422
  -OEChem-05122015313D

 39 39  0     1  0  0  0  0  0999 V2000
  119.5320  105.4521  106.1476 C   0  0  0  0  0  0  0  0  0  0  0  0
  124.6250  107.2995  105.7607 C   0  0  0  0  0  0  0  0  0  0  0  0
  117.3106  105.7703  103.1122 C   0  0  0  0  0  0  0  0  0  0  0  0
  116.1569  104.9062  103.6155 C   0  0  0  0  0  0  0  0  0  0  0  0
  116.9462  106.8421  105.2806 C   0  0  0  0  0  0  0  0  0  0  0  0
  118.0515  106.3063  104.3541 C   0  0  2  0  0  0  0  0  0  0  0  0
  119.0338  107.4134  103.9740 C   0  0  0  0  0  0  0  0  0  0  0  0
  120.1864  104.1795  106.6234 C   0  0  0  0  0  0  0  0  0  0  0  0
  124.8904  105.9205  106.3740 C   0  0  0  0  0  0  0  0  0  0  0  0
  123.7718  105.3265  107.2248 C   0  0  0  0  0  0  0  0  0  0  0  0
  122.5080  105.0762  106.4123 C   0  0  0  0  0  0  0  0  0  0  0  0
  118.7823  105.2343  105.0070 N   0  0  0  0  0  0  0  0  0  0  0  0
  121.4814  104.4520  107.2916 N   0  3  0  0  0  0  0  0  0  0  0  0
  125.6105  107.7885  105.1367 O   0  5  0  0  0  0  0  0  0  0  0  0
  119.6626  106.5316  106.7186 O   0  0  0  0  0  0  0  0  0  0  0  0
  123.4789  107.7892  105.9563 O   0  0  0  0  0  0  0  0  0  0  0  0
  115.5530  104.7835  106.1751 O   0  0  0  0  0  0  0  0  0  0  0  0
  114.3876  106.5108  104.7291 O   0  0  0  0  0  0  0  0  0  0  0  0
  115.5563  105.7309  105.0799 S   0  0  0  0  0  0  0  0  0  0  0  0
  117.9661  105.1940  102.4501 H   0  0  0  0  0  0  0  0  0  0  0  0
  116.9036  106.6068  102.5294 H   0  0  0  0  0  0  0  0  0  0  0  0
  115.3511  104.8214  102.8832 H   0  0  0  0  0  0  0  0  0  0  0  0
  116.5023  103.9097  103.9049 H   0  0  0  0  0  0  0  0  0  0  0  0
  117.2363  106.8659  106.3344 H   0  0  0  0  0  0  0  0  0  0  0  0
  116.6044  107.8346  104.9685 H   0  0  0  0  0  0  0  0  0  0  0  0
  119.5432  107.7746  104.8652 H   0  0  0  0  0  0  0  0  0  0  0  0
  118.4966  108.2380  103.5099 H   0  0  0  0  0  0  0  0  0  0  0  0
  119.7705  107.0262  103.2728 H   0  0  0  0  0  0  0  0  0  0  0  0
  120.3960  103.5179  105.7784 H   0  0  0  0  0  0  0  0  0  0  0  0
  119.5489  103.6739  107.3541 H   0  0  0  0  0  0  0  0  0  0  0  0
  125.1508  105.2186  105.5719 H   0  0  0  0  0  0  0  0  0  0  0  0
  125.7840  106.0297  107.0016 H   0  0  0  0  0  0  0  0  0  0  0  0
  123.5498  105.9842  108.0740 H   0  0  0  0  0  0  0  0  0  0  0  0
  124.1239  104.3772  107.6481 H   0  0  0  0  0  0  0  0  0  0  0  0
  122.6836  104.3791  105.5877 H   0  0  0  0  0  0  0  0  0  0  0  0
  122.0694  105.9997  106.0250 H   0  0  0  0  0  0  0  0  0  0  0  0
  118.7472  104.3147  104.5862 H   0  0  0  0  0  0  0  0  0  0  0  0
  121.3235  105.0633  108.1062 H   0  0  0  0  0  0  0  0  0  0  0  0
  121.8597  103.5730  107.6746 H   0  0  0  0  0  0  0  0  0  0  0  0
  1  8  1  0  0  0  0
  1 12  1  0  0  0  0
  1 15  2  0  0  0  0
  2  9  1  0  0  0  0
  2 14  1  0  0  0  0
  2 16  2  0  0  0  0
  3  4  1  0  0  0  0
  3  6  1  0  0  0  0
  4 19  1  0  0  0  0
  5  6  1  0  0  0  0
  5 19  1  0  0  0  0
  6  7  1  0  0  0  0
  6 12  1  0  0  0  0
  8 13  1  0  0  0  0
  9 10  1  0  0  0  0
 10 11  1  0  0  0  0
 11 13  1  0  0  0  0
 17 19  2  0  0  0  0
 18 19  2  0  0  0  0
  3 20  1  0  0  0  0
  3 21  1  0  0  0  0
  4 22  1  0  0  0  0
  4 23  1  0  0  0  0
  5 24  1  0  0  0  0
  5 25  1  0  0  0  0
  7 26  1  0  0  0  0
  7 27  1  0  0  0  0
  7 28  1  0  0  0  0
  8 29  1  0  0  0  0
  8 30  1  0  0  0  0
  9 31  1  0  0  0  0
  9 32  1  0  0  0  0
 10 33  1  0  0  0  0
 10 34  1  0  0  0  0
 11 35  1  0  0  0  0
 11 36  1  0  0  0  0
 12 37  1  0  0  0  0
 13 38  1  0  0  0  0
 13 39  1  0  0  0  0
M  CHG  2  13   1  14  -1
M  END
> <FRED Chemgauss4 score>
-10.031559

$$$$
C97776743	P155157585
  -OEChem-05122015313D

 37 38  0     1  0  0  0  0  0999 V2000
  124.2576  107.6128  109.8545 C   0  0  0  0  0  0  0  0  0  0  0  0
  125.2429  109.0362  108.2237 C   0  0  0  0  0  0  0  0  0  0  0  0
  124.1060  109.9829  109.9813 C   0  0  0  0  0  0  0  0  0  0  0  0
  122.3694  104.5832  106.6924 C   0  0  0  0  0  0  0  0  0  0  0  0
  124.9924  107.7531  108.6825 C   0  0  0  0  0  0  0  0  0  0  0  0
  123.8020  108.7441  110.5224 C   0  0  0  0  0  0  0  0  0  0  0  0
  124.4343  104.2283  107.3409 C   0  0  0  0  0  0  0  0  0  0  0  0
  124.4059  105.6001  107.4805 C   0  0  0  0  0  0  0  0  0  0  0  0
  125.5866  103.3491  107.6263 C   0  0  0  0  0  0  0  0  0  0  0  0
  122.6774  110.3266  113.3382 C   0  0  0  0  0  0  0  0  0  0  0  0
  123.8812  108.1837  113.8956 C   0  0  0  0  0  0  0  0  0  0  0  0
  125.4938  106.5629  107.9449 C   0  0  2  0  0  0  0  0  0  0  0  0
  123.6286  109.2492  112.8399 C   0  0  0  0  0  0  0  0  0  0  0  0
  124.8171  110.1588  108.8451 N   0  0  0  0  0  0  0  0  0  0  0  0
  123.2673  103.6434  106.8895 N   0  0  0  0  0  0  0  0  0  0  0  0
  127.7327  106.5288  108.6173 N   0  0  0  0  0  0  0  0  0  0  0  0
  126.5011  105.8287  108.7356 N   0  0  0  0  0  0  0  0  0  0  0  0
  123.0762  108.6369  111.6785 O   0  0  0  0  0  0  0  0  0  0  0  0
  122.8610  106.1925  107.0293 S   0  0  0  0  0  0  0  0  0  0  0  0
  124.0384  106.6240  110.2492 H   0  0  0  0  0  0  0  0  0  0  0  0
  125.8113  109.2076  107.3147 H   0  0  0  0  0  0  0  0  0  0  0  0
  123.7769  110.8995  110.4607 H   0  0  0  0  0  0  0  0  0  0  0  0
  121.3731  104.3614  106.3354 H   0  0  0  0  0  0  0  0  0  0  0  0
  125.5746  103.0079  108.6739 H   0  0  0  0  0  0  0  0  0  0  0  0
  125.5927  102.4544  106.9814 H   0  0  0  0  0  0  0  0  0  0  0  0
  126.5485  103.8595  107.4499 H   0  0  0  0  0  0  0  0  0  0  0  0
  121.7156  109.8995  113.6380 H   0  0  0  0  0  0  0  0  0  0  0  0
  123.1110  110.8501  114.1970 H   0  0  0  0  0  0  0  0  0  0  0  0
  122.4994  111.0834  112.5662 H   0  0  0  0  0  0  0  0  0  0  0  0
  122.9482  107.7056  114.2089 H   0  0  0  0  0  0  0  0  0  0  0  0
  124.3608  108.6255  114.7757 H   0  0  0  0  0  0  0  0  0  0  0  0
  124.5621  107.4114  113.5211 H   0  0  0  0  0  0  0  0  0  0  0  0
  126.0536  106.8742  107.0422 H   0  0  0  0  0  0  0  0  0  0  0  0
  124.5792  109.7075  112.5483 H   0  0  0  0  0  0  0  0  0  0  0  0
  128.4266  105.9320  108.1678 H   0  0  0  0  0  0  0  0  0  0  0  0
  127.5894  107.3145  107.9842 H   0  0  0  0  0  0  0  0  0  0  0  0
  126.2017  105.8147  109.7032 H   0  0  0  0  0  0  0  0  0  0  0  0
  1  5  1  0  0  0  0
  1  6  2  0  0  0  0
  2  5  2  0  0  0  0
  2 14  1  0  0  0  0
  3  6  1  0  0  0  0
  3 14  2  0  0  0  0
  4 15  2  0  0  0  0
  4 19  1  0  0  0  0
  5 12  1  0  0  0  0
  6 18  1  0  0  0  0
  7  8  2  0  0  0  0
  7  9  1  0  0  0  0
  7 15  1  0  0  0  0
  8 12  1  0  0  0  0
  8 19  1  0  0  0  0
 10 13  1  0  0  0  0
 11 13  1  0  0  0  0
 12 17  1  0  0  0  0
 13 18  1  0  0  0  0
 16 17  1  0  0  0  0
  1 20  1  0  0  0  0
  2 21  1  0  0  0  0
  3 22  1  0  0  0  0
  4 23  1  0  0  0  0
  9 24  1  0  0  0  0
  9 25  1  0  0  0  0
  9 26  1  0  0  0  0
 10 27  1  0  0  0  0
 10 28  1  0  0  0  0
 10 29  1  0  0  0  0
 11 30  1  0  0  0  0
 11 31  1  0  0  0  0
 11 32  1  0  0  0  0
 12 33  1  0  0  0  0
 13 34  1  0  0  0  0
 16 35  1  0  0  0  0
 16 36  1  0  0  0  0
 17 37  1  0  0  0  0
M  END
> <FRED Chemgauss4 score>
-10.031393

$$$$
C51818984	P77620782
  -OEChem-05122015313D

 32 32  0     1  0  0  0  0  0999 V2000
  126.0772  104.4683  108.7982 C   0  0  0  0  0  0  0  0  0  0  0  0
  124.9065  104.2493  108.0722 C   0  0  0  0  0  0  0  0  0  0  0  0
  126.0368  106.7982  108.1605 C   0  0  0  0  0  0  0  0  0  0  0  0
  126.6424  105.7428  108.8424 C   0  0  0  0  0  0  0  0  0  0  0  0
  124.8661  106.5792  107.4344 C   0  0  0  0  0  0  0  0  0  0  0  0
  124.3009  105.3047  107.3903 C   0  0  0  0  0  0  0  0  0  0  0  0
  119.5059  108.4371  108.9751 C   0  0  0  0  0  0  0  0  0  0  0  0
  123.7109  109.0581  109.0736 C   0  0  0  0  0  0  0  0  0  0  0  0
  121.7778  107.9800  107.9958 C   0  0  0  0  0  0  0  0  0  0  0  0
  120.9970  108.7303  109.0718 C   0  0  2  0  0  0  0  0  0  0  0  0
  127.8257  105.9640  109.5768 N   0  0  0  0  0  0  0  0  0  0  0  0
  123.0655  108.6059  107.7969 N   0  0  2  0  0  0  0  0  0  0  0  0
  125.2013  108.9191  106.3475 O   0  0  0  0  0  0  0  0  0  0  0  0
  123.3903  107.4263  105.4667 O   0  0  0  0  0  0  0  0  0  0  0  0
  121.4630  108.3070  110.3518 O   0  0  0  0  0  0  0  0  0  0  0  0
  124.1421  107.9568  106.5891 S   0  0  0  0  0  0  0  0  0  0  0  0
  122.8530  104.9807  106.5068 Cl  0  0  0  0  0  0  0  0  0  0  0  0
  126.5408  103.6390  109.3262 H   0  0  0  0  0  0  0  0  0  0  0  0
  124.4793  103.2498  108.0486 H   0  0  0  0  0  0  0  0  0  0  0  0
  126.4797  107.7912  108.1968 H   0  0  0  0  0  0  0  0  0  0  0  0
  119.3053  107.3643  109.0544 H   0  0  0  0  0  0  0  0  0  0  0  0
  118.9518  108.9586  109.7636 H   0  0  0  0  0  0  0  0  0  0  0  0
  119.1059  108.7954  108.0204 H   0  0  0  0  0  0  0  0  0  0  0  0
  124.6778  109.5219  108.8620 H   0  0  0  0  0  0  0  0  0  0  0  0
  123.8677  108.2059  109.7403 H   0  0  0  0  0  0  0  0  0  0  0  0
  123.0742  109.7877  109.5812 H   0  0  0  0  0  0  0  0  0  0  0  0
  121.9383  106.9366  108.2879 H   0  0  0  0  0  0  0  0  0  0  0  0
  121.2346  107.9908  107.0452 H   0  0  0  0  0  0  0  0  0  0  0  0
  121.1692  109.8097  108.9896 H   0  0  0  0  0  0  0  0  0  0  0  0
  128.2237  105.2103  110.0998 H   0  0  0  0  0  0  0  0  0  0  0  0
  128.1948  106.8914  109.6394 H   0  0  0  0  0  0  0  0  0  0  0  0
  120.9609  108.8133  111.0085 H   0  0  0  0  0  0  0  0  0  0  0  0
  1  2  2  0  0  0  0
  1  4  1  0  0  0  0
  2  6  1  0  0  0  0
  3  4  2  0  0  0  0
  3  5  1  0  0  0  0
  4 11  1  0  0  0  0
  5  6  2  0  0  0  0
  5 16  1  0  0  0  0
  6 17  1  0  0  0  0
  7 10  1  0  0  0  0
  8 12  1  0  0  0  0
  9 10  1  0  0  0  0
  9 12  1  0  0  0  0
 10 15  1  0  0  0  0
 12 16  1  0  0  0  0
 13 16  2  0  0  0  0
 14 16  2  0  0  0  0
  1 18  1  0  0  0  0
  2 19  1  0  0  0  0
  3 20  1  0  0  0  0
  7 21  1  0  0  0  0
  7 22  1  0  0  0  0
  7 23  1  0  0  0  0
  8 24  1  0  0  0  0
  8 25  1  0  0  0  0
  8 26  1  0  0  0  0
  9 27  1  0  0  0  0
  9 28  1  0  0  0  0
 10 29  1  0  0  0  0
 11 30  1  0  0  0  0
 11 31  1  0  0  0  0
 15 32  1  0  0  0  0
M  END
> <FRED Chemgauss4 score>
-10.025002

$$$$
C50393690	P75386039
  -OEChem-05122015313D

 31 32  0     1  0  0  0  0  0999 V2000
  119.1460  108.5638  106.5816 C   0  0  0  0  0  0  0  0  0  0  0  0
  120.1937  107.9205  107.2403 C   0  0  0  0  0  0  0  0  0  0  0  0
  118.2511  107.8256  105.8071 C   0  0  0  0  0  0  0  0  0  0  0  0
  120.3467  106.5389  107.1243 C   0  0  0  0  0  0  0  0  0  0  0  0
  118.4041  106.4440  105.6911 C   0  0  0  0  0  0  0  0  0  0  0  0
  119.4519  105.8006  106.3497 C   0  0  0  0  0  0  0  0  0  0  0  0
  124.6485  107.2208  109.2336 C   0  0  0  0  0  0  0  0  0  0  0  0
  125.6655  104.5897  108.4819 C   0  0  0  0  0  0  0  0  0  0  0  0
  124.4203  105.1185  107.7872 C   0  0  0  0  0  0  0  0  0  0  0  0
  126.6222  105.7422  108.7212 C   0  0  0  0  0  0  0  0  0  0  0  0
  123.7264  106.1343  108.6910 C   0  0  2  0  0  0  0  0  0  0  0  0
  121.4904  105.8930  107.8517 C   0  0  0  0  0  0  0  0  0  0  0  0
  125.9862  106.8956  109.3303 N   0  0  0  0  0  0  0  0  0  0  0  0
  122.6307  106.7877  107.9768 N   0  0  0  0  0  0  0  0  0  0  0  0
  124.2143  108.3002  109.6417 O   0  0  0  0  0  0  0  0  0  0  0  0
  117.2585  105.5920  104.7143 Cl  0  0  0  0  0  0  0  0  0  0  0  0
  119.6633  104.0833  106.2208 Cl  0  0  0  0  0  0  0  0  0  0  0  0
  119.0274  109.6395  106.6715 H   0  0  0  0  0  0  0  0  0  0  0  0
  120.8852  108.5058  107.8408 H   0  0  0  0  0  0  0  0  0  0  0  0
  117.4405  108.3439  105.3006 H   0  0  0  0  0  0  0  0  0  0  0  0
  125.3900  104.1229  109.4354 H   0  0  0  0  0  0  0  0  0  0  0  0
  126.1496  103.8217  107.8691 H   0  0  0  0  0  0  0  0  0  0  0  0
  124.7031  105.5758  106.8298 H   0  0  0  0  0  0  0  0  0  0  0  0
  123.7421  104.2874  107.5595 H   0  0  0  0  0  0  0  0  0  0  0  0
  127.4468  105.4341  109.3716 H   0  0  0  0  0  0  0  0  0  0  0  0
  127.0533  106.0850  107.7741 H   0  0  0  0  0  0  0  0  0  0  0  0
  123.3152  105.6110  109.5693 H   0  0  0  0  0  0  0  0  0  0  0  0
  121.1859  105.5917  108.8599 H   0  0  0  0  0  0  0  0  0  0  0  0
  121.8282  104.9910  107.3308 H   0  0  0  0  0  0  0  0  0  0  0  0
  126.5765  107.5172  109.8747 H   0  0  0  0  0  0  0  0  0  0  0  0
  122.9543  107.0562  107.0497 H   0  0  0  0  0  0  0  0  0  0  0  0
  1  2  1  0  0  0  0
  1  3  2  0  0  0  0
  2  4  2  0  0  0  0
  3  5  1  0  0  0  0
  4  6  1  0  0  0  0
  4 12  1  0  0  0  0
  5  6  2  0  0  0  0
  5 16  1  0  0  0  0
  6 17  1  0  0  0  0
  7 11  1  0  0  0  0
  7 13  1  0  0  0  0
  7 15  2  0  0  0  0
  8  9  1  0  0  0  0
  8 10  1  0  0  0  0
  9 11  1  0  0  0  0
 10 13  1  0  0  0  0
 11 14  1  0  0  0  0
 12 14  1  0  0  0  0
  1 18  1  0  0  0  0
  2 19  1  0  0  0  0
  3 20  1  0  0  0  0
  8 21  1  0  0  0  0
  8 22  1  0  0  0  0
  9 23  1  0  0  0  0
  9 24  1  0  0  0  0
 10 25  1  0  0  0  0
 10 26  1  0  0  0  0
 11 27  1  0  0  0  0
 12 28  1  0  0  0  0
 12 29  1  0  0  0  0
 13 30  1  0  0  0  0
 14 31  1  0  0  0  0
M  END
> <FRED Chemgauss4 score>
-10.021112

$$$$
C87993543	P137628739
  -OEChem-05122015313D

 46 47  0     0  0  0  0  0  0999 V2000
  125.2146  105.5886  107.1857 C   0  0  0  0  0  0  0  0  0  0  0  0
  124.8600  104.2554  107.1507 C   0  0  0  0  0  0  0  0  0  0  0  0
  124.2171  106.4807  106.8489 C   0  0  0  0  0  0  0  0  0  0  0  0
  122.7448  104.7829  106.5067 C   0  0  0  0  0  0  0  0  0  0  0  0
  121.0433  104.7716  104.6938 C   0  0  0  0  0  0  0  0  0  0  0  0
  120.3394  104.9029  107.1239 C   0  0  0  0  0  0  0  0  0  0  0  0
  119.6151  104.3920  104.3037 C   0  0  0  0  0  0  0  0  0  0  0  0
  118.9128  104.5229  106.7281 C   0  0  0  0  0  0  0  0  0  0  0  0
  121.3685  104.3352  106.1321 C   0  0  0  0  0  0  0  0  0  0  0  0
  118.5876  104.9573  105.2930 C   0  0  0  0  0  0  0  0  0  0  0  0
  125.8719  103.2160  107.5000 C   0  0  0  0  0  0  0  0  0  0  0  0
  116.8547  105.0071  103.4816 C   0  0  0  0  0  0  0  0  0  0  0  0
  116.1584  105.1369  105.8867 C   0  0  0  0  0  0  0  0  0  0  0  0
  117.0668  102.9922  104.9587 C   0  0  0  0  0  0  0  0  0  0  0  0
  124.5058  107.9445  106.8600 C   0  0  0  0  0  0  0  0  0  0  0  0
  117.1741  104.5256  104.9070 C   0  0  0  0  0  0  0  0  0  0  0  0
  123.6297  103.8155  106.8144 N   0  0  0  0  0  0  0  0  0  0  0  0
  122.9664  106.1112  106.5029 N   0  0  0  0  0  0  0  0  0  0  0  0
  124.6589  108.4820  105.5321 N   0  0  0  0  0  0  0  0  0  0  0  0
  126.2111  105.9135  107.4592 H   0  0  0  0  0  0  0  0  0  0  0  0
  121.7475  104.3086  103.9911 H   0  0  0  0  0  0  0  0  0  0  0  0
  121.1694  105.8578  104.5903 H   0  0  0  0  0  0  0  0  0  0  0  0
  120.4220  105.9971  107.1702 H   0  0  0  0  0  0  0  0  0  0  0  0
  120.5473  104.5322  108.1354 H   0  0  0  0  0  0  0  0  0  0  0  0
  119.4064  104.7653  103.2940 H   0  0  0  0  0  0  0  0  0  0  0  0
  119.5319  103.2985  104.2614 H   0  0  0  0  0  0  0  0  0  0  0  0
  118.7883  103.4370  106.8277 H   0  0  0  0  0  0  0  0  0  0  0  0
  118.2086  104.9886  107.4279 H   0  0  0  0  0  0  0  0  0  0  0  0
  121.3527  103.2398  106.1859 H   0  0  0  0  0  0  0  0  0  0  0  0
  118.6296  106.0537  105.2460 H   0  0  0  0  0  0  0  0  0  0  0  0
  125.8423  103.0011  108.5750 H   0  0  0  0  0  0  0  0  0  0  0  0
  125.6885  102.2825  106.9528 H   0  0  0  0  0  0  0  0  0  0  0  0
  126.8860  103.5443  107.2379 H   0  0  0  0  0  0  0  0  0  0  0  0
  115.8448  104.7117  103.1756 H   0  0  0  0  0  0  0  0  0  0  0  0
  117.5595  104.5851  102.7563 H   0  0  0  0  0  0  0  0  0  0  0  0
  116.9182  106.0988  103.4116 H   0  0  0  0  0  0  0  0  0  0  0  0
  115.1354  104.8403  105.6290 H   0  0  0  0  0  0  0  0  0  0  0  0
  116.3529  104.8055  106.9128 H   0  0  0  0  0  0  0  0  0  0  0  0
  116.2006  106.2318  105.8764 H   0  0  0  0  0  0  0  0  0  0  0  0
  116.0595  102.6587  104.6850 H   0  0  0  0  0  0  0  0  0  0  0  0
  117.2837  102.6089  105.9621 H   0  0  0  0  0  0  0  0  0  0  0  0
  117.7731  102.5247  104.2633 H   0  0  0  0  0  0  0  0  0  0  0  0
  123.6973  108.5032  107.3514 H   0  0  0  0  0  0  0  0  0  0  0  0
  125.4282  108.1685  107.4127 H   0  0  0  0  0  0  0  0  0  0  0  0
  125.2172  109.3089  105.4010 H   0  0  0  0  0  0  0  0  0  0  0  0
  124.0527  108.1534  104.7991 H   0  0  0  0  0  0  0  0  0  0  0  0
  1  2  1  0  0  0  0
  1  3  2  0  0  0  0
  2 11  1  0  0  0  0
  2 17  2  0  0  0  0
  3 15  1  0  0  0  0
  3 18  1  0  0  0  0
  4  9  1  0  0  0  0
  4 17  1  0  0  0  0
  4 18  2  0  0  0  0
  5  7  1  0  0  0  0
  5  9  1  0  0  0  0
  6  8  1  0  0  0  0
  6  9  1  0  0  0  0
  7 10  1  0  0  0  0
  8 10  1  0  0  0  0
 10 16  1  0  0  0  0
 12 16  1  0  0  0  0
 13 16  1  0  0  0  0
 14 16  1  0  0  0  0
 15 19  1  0  0  0  0
  1 20  1  0  0  0  0
  5 21  1  0  0  0  0
  5 22  1  0  0  0  0
  6 23  1  0  0  0  0
  6 24  1  0  0  0  0
  7 25  1  0  0  0  0
  7 26  1  0  0  0  0
  8 27  1  0  0  0  0
  8 28  1  0  0  0  0
  9 29  1  0  0  0  0
 10 30  1  0  0  0  0
 11 31  1  0  0  0  0
 11 32  1  0  0  0  0
 11 33  1  0  0  0  0
 12 34  1  0  0  0  0
 12 35  1  0  0  0  0
 12 36  1  0  0  0  0
 13 37  1  0  0  0  0
 13 38  1  0  0  0  0
 13 39  1  0  0  0  0
 14 40  1  0  0  0  0
 14 41  1  0  0  0  0
 14 42  1  0  0  0  0
 15 43  1  0  0  0  0
 15 44  1  0  0  0  0
 19 45  1  0  0  0  0
 19 46  1  0  0  0  0
M  END
> <FRED Chemgauss4 score>
-10.007840

$$$$
C61875170	P94810310
  -OEChem-05122015313D

 33 34  0     0  0  0  0  0  0999 V2000
  125.1422  105.2663  107.8482 C   0  0  0  0  0  0  0  0  0  0  0  0
  124.2274  104.5219  107.1089 C   0  0  0  0  0  0  0  0  0  0  0  0
  121.9322  104.1674  106.3291 C   0  0  0  0  0  0  0  0  0  0  0  0
  124.7098  106.3874  108.5455 C   0  0  0  0  0  0  0  0  0  0  0  0
  120.6033  104.5653  106.3061 C   0  0  0  0  0  0  0  0  0  0  0  0
  122.8743  104.8985  107.0653 C   0  0  0  0  0  0  0  0  0  0  0  0
  122.4282  106.0358  107.7707 C   0  0  0  0  0  0  0  0  0  0  0  0
  123.3645  106.7616  108.5020 C   0  0  0  0  0  0  0  0  0  0  0  0
  120.2617  105.6912  107.0274 C   0  0  0  0  0  0  0  0  0  0  0  0
  118.8437  106.1558  107.0312 C   0  0  0  0  0  0  0  0  0  0  0  0
  123.8083  108.8233  112.1914 C   0  0  0  0  0  0  0  0  0  0  0  0
  124.6984  108.5545  110.9955 C   0  0  0  0  0  0  0  0  0  0  0  0
  121.1392  106.4243  107.7502 N   0  0  0  0  0  0  0  0  0  0  0  0
  122.9925  107.8598  109.1971 N   0  5  0  0  0  0  0  0  0  0  0  0
  124.4890  108.4034  113.4404 N   0  3  0  0  0  0  0  0  0  0  0  0
  123.3269  110.3486  109.8099 O   0  0  0  0  0  0  0  0  0  0  0  0
  125.1166  109.1881  108.5605 O   0  0  0  0  0  0  0  0  0  0  0  0
  123.9705  109.0855  109.4595 S   0  0  0  0  0  0  0  0  0  0  0  0
  126.1868  104.9721  107.8791 H   0  0  0  0  0  0  0  0  0  0  0  0
  124.5761  103.6459  106.5664 H   0  0  0  0  0  0  0  0  0  0  0  0
  122.2293  103.2833  105.7697 H   0  0  0  0  0  0  0  0  0  0  0  0
  125.4350  106.9605  109.1198 H   0  0  0  0  0  0  0  0  0  0  0  0
  119.8679  104.0054  105.7390 H   0  0  0  0  0  0  0  0  0  0  0  0
  118.2919  105.6891  107.8560 H   0  0  0  0  0  0  0  0  0  0  0  0
  118.7826  107.2458  107.1437 H   0  0  0  0  0  0  0  0  0  0  0  0
  118.3404  105.9045  106.0888 H   0  0  0  0  0  0  0  0  0  0  0  0
  123.6065  109.8931  112.2964 H   0  0  0  0  0  0  0  0  0  0  0  0
  122.8632  108.2749  112.1439 H   0  0  0  0  0  0  0  0  0  0  0  0
  125.6345  109.1131  111.0935 H   0  0  0  0  0  0  0  0  0  0  0  0
  124.9392  107.4922  110.8921 H   0  0  0  0  0  0  0  0  0  0  0  0
  124.2393  107.4400  113.6888 H   0  0  0  0  0  0  0  0  0  0  0  0
  124.2244  109.0102  114.2241 H   0  0  0  0  0  0  0  0  0  0  0  0
  125.5085  108.4486  113.3361 H   0  0  0  0  0  0  0  0  0  0  0  0
  1  2  2  0  0  0  0
  1  4  1  0  0  0  0
  2  6  1  0  0  0  0
  3  5  2  0  0  0  0
  3  6  1  0  0  0  0
  4  8  2  0  0  0  0
  5  9  1  0  0  0  0
  6  7  2  0  0  0  0
  7  8  1  0  0  0  0
  7 13  1  0  0  0  0
  8 14  1  0  0  0  0
  9 10  1  0  0  0  0
  9 13  2  0  0  0  0
 11 12  1  0  0  0  0
 11 15  1  0  0  0  0
 12 18  1  0  0  0  0
 14 18  1  0  0  0  0
 16 18  2  0  0  0  0
 17 18  2  0  0  0  0
  1 19  1  0  0  0  0
  2 20  1  0  0  0  0
  3 21  1  0  0  0  0
  4 22  1  0  0  0  0
  5 23  1  0  0  0  0
 10 24  1  0  0  0  0
 10 25  1  0  0  0  0
 10 26  1  0  0  0  0
 11 27  1  0  0  0  0
 11 28  1  0  0  0  0
 12 29  1  0  0  0  0
 12 30  1  0  0  0  0
 15 31  1  0  0  0  0
 15 32  1  0  0  0  0
 15 33  1  0  0  0  0
M  CHG  2  14  -1  15   1
M  END
> <FRED Chemgauss4 score>
-9.997922

$$$$
C70438307	P108611322
  -OEChem-05122015313D

 36 37  0     1  0  0  0  0  0999 V2000
  122.4135  106.3791  106.0339 C   0  0  0  0  0  0  0  0  0  0  0  0
  125.4163  108.3019  107.8804 C   0  0  0  0  0  0  0  0  0  0  0  0
  120.0648  104.3996  105.1386 C   0  0  0  0  0  0  0  0  0  0  0  0
  121.1111  104.2188  106.2308 C   0  0  0  0  0  0  0  0  0  0  0  0
  125.5170  104.9339  107.7996 C   0  0  0  0  0  0  0  0  0  0  0  0
  124.3810  103.9966  107.5087 C   0  0  0  0  0  0  0  0  0  0  0  0
  118.9592  105.2495  105.7386 C   0  0  0  0  0  0  0  0  0  0  0  0
  121.4090  105.5991  106.8157 C   0  0  2  0  0  0  0  0  0  0  0  0
  124.1212  105.4723  107.6416 C   0  0  0  0  0  0  0  0  0  0  0  0
  125.0406  108.3732  106.4055 C   0  0  0  0  0  0  0  0  0  0  0  0
  124.8183  106.9841  105.8229 C   0  0  0  0  0  0  0  0  0  0  0  0
  124.4377  108.3946  108.7317 N   0  0  0  0  0  0  0  0  0  0  0  0
  126.7557  108.1614  108.1592 N   0  0  0  0  0  0  0  0  0  0  0  0
  123.7465  106.2864  106.4799 N   0  0  0  0  0  0  0  0  0  0  0  0
  122.0372  107.0456  105.0660 O   0  0  0  0  0  0  0  0  0  0  0  0
  123.2239  108.5440  108.0543 O   0  0  0  0  0  0  0  0  0  0  0  0
  119.8107  106.4723  106.7737 S   0  0  0  0  0  0  0  0  0  0  0  0
  120.4925  104.8782  104.2516 H   0  0  0  0  0  0  0  0  0  0  0  0
  119.6720  103.4236  104.8258 H   0  0  0  0  0  0  0  0  0  0  0  0
  120.7468  103.5383  107.0179 H   0  0  0  0  0  0  0  0  0  0  0  0
  122.0180  103.7415  105.8183 H   0  0  0  0  0  0  0  0  0  0  0  0
  125.9509  104.9067  108.7918 H   0  0  0  0  0  0  0  0  0  0  0  0
  126.2263  105.1302  107.0049 H   0  0  0  0  0  0  0  0  0  0  0  0
  124.3259  103.5626  106.5180 H   0  0  0  0  0  0  0  0  0  0  0  0
  124.0539  103.3408  108.3061 H   0  0  0  0  0  0  0  0  0  0  0  0
  118.4005  105.7770  104.9585 H   0  0  0  0  0  0  0  0  0  0  0  0
  118.2586  104.6524  106.3293 H   0  0  0  0  0  0  0  0  0  0  0  0
  121.7506  105.5293  107.8635 H   0  0  0  0  0  0  0  0  0  0  0  0
  123.6186  105.7965  108.5463 H   0  0  0  0  0  0  0  0  0  0  0  0
  124.1464  108.9958  106.2851 H   0  0  0  0  0  0  0  0  0  0  0  0
  125.8607  108.8655  105.8692 H   0  0  0  0  0  0  0  0  0  0  0  0
  124.5499  107.0581  104.7645 H   0  0  0  0  0  0  0  0  0  0  0  0
  125.7151  106.3624  105.9090 H   0  0  0  0  0  0  0  0  0  0  0  0
  127.4547  108.1137  107.4254 H   0  0  0  0  0  0  0  0  0  0  0  0
  127.0864  108.1117  109.1168 H   0  0  0  0  0  0  0  0  0  0  0  0
  122.5940  108.6000  108.7927 H   0  0  0  0  0  0  0  0  0  0  0  0
  1  8  1  0  0  0  0
  1 14  1  0  0  0  0
  1 15  2  0  0  0  0
  2 10  1  0  0  0  0
  2 12  2  0  0  0  0
  2 13  1  0  0  0  0
  3  4  1  0  0  0  0
  3  7  1  0  0  0  0
  4  8  1  0  0  0  0
  5  6  1  0  0  0  0
  5  9  1  0  0  0  0
  6  9  1  0  0  0  0
  7 17  1  0  0  0  0
  8 17  1  0  0  0  0
  9 14  1  0  0  0  0
 10 11  1  0  0  0  0
 11 14  1  0  0  0  0
 12 16  1  0  0  0  0
  3 18  1  0  0  0  0
  3 19  1  0  0  0  0
  4 20  1  0  0  0  0
  4 21  1  0  0  0  0
  5 22  1  0  0  0  0
  5 23  1  0  0  0  0
  6 24  1  0  0  0  0
  6 25  1  0  0  0  0
  7 26  1  0  0  0  0
  7 27  1  0  0  0  0
  8 28  1  0  0  0  0
  9 29  1  0  0  0  0
 10 30  1  0  0  0  0
 10 31  1  0  0  0  0
 11 32  1  0  0  0  0
 11 33  1  0  0  0  0
 13 34  1  0  0  0  0
 13 35  1  0  0  0  0
 16 36  1  0  0  0  0
M  END
> <FRED Chemgauss4 score>
-9.994313

$$$$
C72430167	P112678220
  -OEChem-05122015313D

 42 44  0     0  0  0  0  0  0999 V2000
  126.3485  108.0502  107.4921 C   0  0  0  0  0  0  0  0  0  0  0  0
  117.0017  104.9738  105.4183 C   0  0  0  0  0  0  0  0  0  0  0  0
  118.1684  103.1954  105.9759 C   0  0  0  0  0  0  0  0  0  0  0  0
  126.0654  106.7536  107.9078 C   0  0  0  0  0  0  0  0  0  0  0  0
  125.1078  106.0332  107.1818 C   0  0  0  0  0  0  0  0  0  0  0  0
  124.4583  106.6460  106.1095 C   0  0  0  0  0  0  0  0  0  0  0  0
  116.9446  103.5684  105.4762 C   0  0  0  0  0  0  0  0  0  0  0  0
  124.8106  107.9471  105.7888 C   0  0  0  0  0  0  0  0  0  0  0  0
  121.2348  104.7753  105.6280 C   0  0  0  0  0  0  0  0  0  0  0  0
  124.7420  104.6321  107.5978 C   0  0  0  0  0  0  0  0  0  0  0  0
  126.8096  106.1210  109.0516 C   0  0  0  0  0  0  0  0  0  0  0  0
  125.7875  104.0043  108.5231 C   0  0  0  0  0  0  0  0  0  0  0  0
  124.1511  108.6476  104.6455 C   0  0  0  0  0  0  0  0  0  0  0  0
  123.4174  105.9269  105.3163 C   0  0  0  0  0  0  0  0  0  0  0  0
  120.2136  104.4765  106.7045 C   0  0  0  0  0  0  0  0  0  0  0  0
  125.7428  108.6656  106.4519 N   0  0  0  0  0  0  0  0  0  0  0  0
  118.1693  105.4606  105.8471 N   0  0  0  0  0  0  0  0  0  0  0  0
  118.8572  104.3549  106.1793 N   0  0  0  0  0  0  0  0  0  0  0  0
  126.1406  104.9334  109.5968 N   0  0  0  0  0  0  0  0  0  0  0  0
  115.9241  102.7643  105.1237 N   0  0  0  0  0  0  0  0  0  0  0  0
  122.3054  105.5062  106.1291 N   0  0  0  0  0  0  0  0  0  0  0  0
  121.1147  104.4113  104.4613 O   0  0  0  0  0  0  0  0  0  0  0  0
  127.0952  108.6516  108.0018 H   0  0  0  0  0  0  0  0  0  0  0  0
  116.2436  105.6668  105.0816 H   0  0  0  0  0  0  0  0  0  0  0  0
  118.5981  102.2282  106.1995 H   0  0  0  0  0  0  0  0  0  0  0  0
  123.7786  104.6282  108.1210 H   0  0  0  0  0  0  0  0  0  0  0  0
  124.6388  104.0198  106.6928 H   0  0  0  0  0  0  0  0  0  0  0  0
  127.8110  105.8233  108.7200 H   0  0  0  0  0  0  0  0  0  0  0  0
  126.9374  106.8641  109.8481 H   0  0  0  0  0  0  0  0  0  0  0  0
  125.4153  103.0637  108.9488 H   0  0  0  0  0  0  0  0  0  0  0  0
  126.6848  103.7551  107.9459 H   0  0  0  0  0  0  0  0  0  0  0  0
  123.2570  109.1788  104.9911 H   0  0  0  0  0  0  0  0  0  0  0  0
  124.8306  109.3717  104.1800 H   0  0  0  0  0  0  0  0  0  0  0  0
  123.8561  107.9373  103.8634 H   0  0  0  0  0  0  0  0  0  0  0  0
  123.0199  106.5660  104.5163 H   0  0  0  0  0  0  0  0  0  0  0  0
  123.8290  105.0309  104.8332 H   0  0  0  0  0  0  0  0  0  0  0  0
  120.2185  105.2773  107.4526 H   0  0  0  0  0  0  0  0  0  0  0  0
  120.4679  103.5370  107.2081 H   0  0  0  0  0  0  0  0  0  0  0  0
  126.7673  104.4660  110.2523 H   0  0  0  0  0  0  0  0  0  0  0  0
  115.0162  103.1345  104.7992 H   0  0  0  0  0  0  0  0  0  0  0  0
  115.9608  101.7396  105.2477 H   0  0  0  0  0  0  0  0  0  0  0  0
  122.2941  105.7894  107.1066 H   0  0  0  0  0  0  0  0  0  0  0  0
  1  4  2  0  0  0  0
  1 16  1  0  0  0  0
  2  7  1  0  0  0  0
  2 17  2  0  0  0  0
  3  7  2  0  0  0  0
  3 18  1  0  0  0  0
  4  5  1  0  0  0  0
  4 11  1  0  0  0  0
  5  6  2  0  0  0  0
  5 10  1  0  0  0  0
  6  8  1  0  0  0  0
  6 14  1  0  0  0  0
  7 20  1  0  0  0  0
  8 13  1  0  0  0  0
  8 16  2  0  0  0  0
  9 15  1  0  0  0  0
  9 21  1  0  0  0  0
  9 22  2  0  0  0  0
 10 12  1  0  0  0  0
 11 19  1  0  0  0  0
 12 19  1  0  0  0  0
 14 21  1  0  0  0  0
 15 18  1  0  0  0  0
 17 18  1  0  0  0  0
  1 23  1  0  0  0  0
  2 24  1  0  0  0  0
  3 25  1  0  0  0  0
 10 26  1  0  0  0  0
 10 27  1  0  0  0  0
 11 28  1  0  0  0  0
 11 29  1  0  0  0  0
 12 30  1  0  0  0  0
 12 31  1  0  0  0  0
 13 32  1  0  0  0  0
 13 33  1  0  0  0  0
 13 34  1  0  0  0  0
 14 35  1  0  0  0  0
 14 36  1  0  0  0  0
 15 37  1  0  0  0  0
 15 38  1  0  0  0  0
 19 39  1  0  0  0  0
 20 40  1  0  0  0  0
 20 41  1  0  0  0  0
 21 42  1  0  0  0  0
M  END
> <FRED Chemgauss4 score>
-9.993962

$$$$
C95045183	P149000638
  -OEChem-05122015313D

 41 43  0     0  0  0  0  0  0999 V2000
  122.5781  106.9787  106.2228 C   0  0  0  0  0  0  0  0  0  0  0  0
  124.3640  106.1737  107.0354 C   0  0  0  0  0  0  0  0  0  0  0  0
  121.1704  107.3735  106.0555 C   0  0  0  0  0  0  0  0  0  0  0  0
  120.8299  104.5337  104.3713 C   0  0  0  0  0  0  0  0  0  0  0  0
  126.1737  104.3311  107.4731 C   0  0  0  0  0  0  0  0  0  0  0  0
  125.0680  104.0853  108.4513 C   0  0  0  0  0  0  0  0  0  0  0  0
  118.2899  106.0800  104.1057 C   0  0  0  0  0  0  0  0  0  0  0  0
  118.9385  108.5168  103.9570 C   0  0  0  0  0  0  0  0  0  0  0  0
  116.8426  106.4592  103.8257 C   0  0  0  0  0  0  0  0  0  0  0  0
  117.4856  108.8754  103.6780 C   0  0  0  0  0  0  0  0  0  0  0  0
  125.3384  105.4898  107.9650 C   0  0  0  0  0  0  0  0  0  0  0  0
  119.0470  107.2290  104.7824 C   0  0  0  0  0  0  0  0  0  0  0  0
  121.0203  105.9716  103.9467 C   0  0  0  0  0  0  0  0  0  0  0  0
  123.5445  107.2214  105.3157 N   0  5  0  0  0  0  0  0  0  0  0  0
  123.0590  106.3330  107.2937 N   0  0  0  0  0  0  0  0  0  0  0  0
  124.7002  106.6998  105.8412 N   0  0  0  0  0  0  0  0  0  0  0  0
  120.6920  103.6837  103.2950 N   0  0  0  0  0  0  0  0  0  0  0  0
  120.4514  106.8662  104.9603 N   0  0  0  0  0  0  0  0  0  0  0  0
  116.8102  107.7168  103.0209 N   0  3  0  0  0  0  0  0  0  0  0  0
  120.7101  108.1253  106.9140 O   0  0  0  0  0  0  0  0  0  0  0  0
  120.8426  104.1566  105.5399 O   0  0  0  0  0  0  0  0  0  0  0  0
  127.1928  104.2486  107.8331 H   0  0  0  0  0  0  0  0  0  0  0  0
  126.0326  103.9858  106.4555 H   0  0  0  0  0  0  0  0  0  0  0  0
  124.1821  103.5746  108.0916 H   0  0  0  0  0  0  0  0  0  0  0  0
  125.3405  103.8372  109.4708 H   0  0  0  0  0  0  0  0  0  0  0  0
  118.3175  105.1862  104.7405 H   0  0  0  0  0  0  0  0  0  0  0  0
  118.7882  105.8079  103.1657 H   0  0  0  0  0  0  0  0  0  0  0  0
  119.4781  108.3981  103.0079 H   0  0  0  0  0  0  0  0  0  0  0  0
  119.4240  109.3451  104.4871 H   0  0  0  0  0  0  0  0  0  0  0  0
  116.3324  105.6903  103.2383 H   0  0  0  0  0  0  0  0  0  0  0  0
  116.2793  106.6453  104.7460 H   0  0  0  0  0  0  0  0  0  0  0  0
  116.9321  109.0990  104.5958 H   0  0  0  0  0  0  0  0  0  0  0  0
  117.4064  109.7230  102.9911 H   0  0  0  0  0  0  0  0  0  0  0  0
  125.8324  106.1583  108.6926 H   0  0  0  0  0  0  0  0  0  0  0  0
  118.6507  107.3953  105.7804 H   0  0  0  0  0  0  0  0  0  0  0  0
  120.5139  106.1690  102.9980 H   0  0  0  0  0  0  0  0  0  0  0  0
  122.0882  106.1864  103.8515 H   0  0  0  0  0  0  0  0  0  0  0  0
  120.7232  104.0369  102.3443 H   0  0  0  0  0  0  0  0  0  0  0  0
  120.5567  102.6838  103.4056 H   0  0  0  0  0  0  0  0  0  0  0  0
  117.2402  107.5462  102.1009 H   0  0  0  0  0  0  0  0  0  0  0  0
  115.8306  107.9656  102.8261 H   0  0  0  0  0  0  0  0  0  0  0  0
  1  3  1  0  0  0  0
  1 14  1  0  0  0  0
  1 15  2  0  0  0  0
  2 11  1  0  0  0  0
  2 15  1  0  0  0  0
  2 16  2  0  0  0  0
  3 18  1  0  0  0  0
  3 20  2  0  0  0  0
  4 13  1  0  0  0  0
  4 17  1  0  0  0  0
  4 21  2  0  0  0  0
  5  6  1  0  0  0  0
  5 11  1  0  0  0  0
  6 11  1  0  0  0  0
  7  9  1  0  0  0  0
  7 12  1  0  0  0  0
  8 10  1  0  0  0  0
  8 12  1  0  0  0  0
  9 19  1  0  0  0  0
 10 19  1  0  0  0  0
 12 18  1  0  0  0  0
 13 18  1  0  0  0  0
 14 16  1  0  0  0  0
  5 22  1  0  0  0  0
  5 23  1  0  0  0  0
  6 24  1  0  0  0  0
  6 25  1  0  0  0  0
  7 26  1  0  0  0  0
  7 27  1  0  0  0  0
  8 28  1  0  0  0  0
  8 29  1  0  0  0  0
  9 30  1  0  0  0  0
  9 31  1  0  0  0  0
 10 32  1  0  0  0  0
 10 33  1  0  0  0  0
 11 34  1  0  0  0  0
 12 35  1  0  0  0  0
 13 36  1  0  0  0  0
 13 37  1  0  0  0  0
 17 38  1  0  0  0  0
 17 39  1  0  0  0  0
 19 40  1  0  0  0  0
 19 41  1  0  0  0  0
M  CHG  2  14  -1  19   1
M  END
> <FRED Chemgauss4 score>
-9.992741

$$$$
C00246565	P05178208
  -OEChem-05122015313D

 38 41  0     0  0  0  0  0  0999 V2000
  117.2402  104.0589  104.9227 C   0  0  0  0  0  0  0  0  0  0  0  0
  117.3731  106.2041  103.8193 C   0  0  0  0  0  0  0  0  0  0  0  0
  118.2881  104.4277  105.7661 C   0  0  0  0  0  0  0  0  0  0  0  0
  118.4210  106.5730  104.6628 C   0  0  0  0  0  0  0  0  0  0  0  0
  122.2007  105.7531  107.2893 C   0  0  0  0  0  0  0  0  0  0  0  0
  123.4992  105.2418  107.4886 C   0  0  0  0  0  0  0  0  0  0  0  0
  116.7827  104.9470  103.9492 C   0  0  0  0  0  0  0  0  0  0  0  0
  118.8785  105.6848  105.6362 C   0  0  0  0  0  0  0  0  0  0  0  0
  124.2304  106.0218  108.3415 C   0  0  0  0  0  0  0  0  0  0  0  0
  122.0094  106.9165  108.0181 C   0  0  0  0  0  0  0  0  0  0  0  0
  121.1229  105.2505  106.4573 C   0  0  0  0  0  0  0  0  0  0  0  0
  119.8961  107.2144  107.3412 C   0  0  0  0  0  0  0  0  0  0  0  0
  124.2917  104.0820  107.0118 C   0  0  0  0  0  0  0  0  0  0  0  0
  125.6067  105.5304  108.5806 C   0  0  0  0  0  0  0  0  0  0  0  0
  125.5115  104.0908  107.9868 C   0  0  0  0  0  0  0  0  0  0  0  0
  115.6623  104.5525  103.0474 C   0  0  0  0  0  0  0  0  0  0  0  0
  118.9355  109.7213  107.0045 C   0  0  0  0  0  0  0  0  0  0  0  0
  120.8762  107.6578  108.0750 N   0  0  0  0  0  0  0  0  0  0  0  0
  119.9579  106.0652  106.5051 N   0  0  0  0  0  0  0  0  0  0  0  0
  121.2754  104.2462  105.7676 O   0  0  0  0  0  0  0  0  0  0  0  0
  123.4125  107.3593  108.9212 S   0  0  0  0  0  0  0  0  0  0  0  0
  118.3733  108.0871  107.5171 S   0  0  0  0  0  0  0  0  0  0  0  0
  116.7876  103.0765  105.0295 H   0  0  0  0  0  0  0  0  0  0  0  0
  117.0234  106.9021  103.0632 H   0  0  0  0  0  0  0  0  0  0  0  0
  118.6364  103.7277  106.5215 H   0  0  0  0  0  0  0  0  0  0  0  0
  118.8746  107.5547  104.5522 H   0  0  0  0  0  0  0  0  0  0  0  0
  123.7432  103.1380  107.0718 H   0  0  0  0  0  0  0  0  0  0  0  0
  124.6251  104.2451  105.9818 H   0  0  0  0  0  0  0  0  0  0  0  0
  126.3363  106.1275  108.0240 H   0  0  0  0  0  0  0  0  0  0  0  0
  125.8809  105.5050  109.6387 H   0  0  0  0  0  0  0  0  0  0  0  0
  125.3189  103.3811  108.8025 H   0  0  0  0  0  0  0  0  0  0  0  0
  126.4393  103.7818  107.4954 H   0  0  0  0  0  0  0  0  0  0  0  0
  114.6991  104.8384  103.4874 H   0  0  0  0  0  0  0  0  0  0  0  0
  115.7529  105.0342  102.0652 H   0  0  0  0  0  0  0  0  0  0  0  0
  115.6561  103.4690  102.8703 H   0  0  0  0  0  0  0  0  0  0  0  0
  118.1051  110.4304  107.0471 H   0  0  0  0  0  0  0  0  0  0  0  0
  119.3157  109.6787  105.9809 H   0  0  0  0  0  0  0  0  0  0  0  0
  119.7329  110.0645  107.6681 H   0  0  0  0  0  0  0  0  0  0  0  0
  1  3  2  0  0  0  0
  1  7  1  0  0  0  0
  2  4  1  0  0  0  0
  2  7  2  0  0  0  0
  3  8  1  0  0  0  0
  4  8  2  0  0  0  0
  5  6  1  0  0  0  0
  5 10  2  0  0  0  0
  5 11  1  0  0  0  0
  6  9  2  0  0  0  0
  6 13  1  0  0  0  0
  7 16  1  0  0  0  0
  8 19  1  0  0  0  0
  9 14  1  0  0  0  0
  9 21  1  0  0  0  0
 10 18  1  0  0  0  0
 10 21  1  0  0  0  0
 11 19  1  0  0  0  0
 11 20  2  0  0  0  0
 12 18  2  0  0  0  0
 12 19  1  0  0  0  0
 12 22  1  0  0  0  0
 13 15  1  0  0  0  0
 14 15  1  0  0  0  0
 17 22  1  0  0  0  0
  1 23  1  0  0  0  0
  2 24  1  0  0  0  0
  3 25  1  0  0  0  0
  4 26  1  0  0  0  0
 13 27  1  0  0  0  0
 13 28  1  0  0  0  0
 14 29  1  0  0  0  0
 14 30  1  0  0  0  0
 15 31  1  0  0  0  0
 15 32  1  0  0  0  0
 16 33  1  0  0  0  0
 16 34  1  0  0  0  0
 16 35  1  0  0  0  0
 17 36  1  0  0  0  0
 17 37  1  0  0  0  0
 17 38  1  0  0  0  0
M  END
> <FRED Chemgauss4 score>
-9.991203

$$$$
C08382902	P52268118
  -OEChem-05122015313D

 23 24  0     0  0  0  0  0  0999 V2000
  124.5371  108.6248  108.8404 C   0  0  0  0  0  0  0  0  0  0  0  0
  123.6366  109.0563  111.0245 C   0  0  0  0  0  0  0  0  0  0  0  0
  126.2472  108.1034  107.5900 C   0  0  0  0  0  0  0  0  0  0  0  0
  123.5987  110.4926  112.6663 C   0  0  0  0  0  0  0  0  0  0  0  0
  123.3326  108.4460  109.7022 C   0  0  0  0  0  0  0  0  0  0  0  0
  125.0319  109.7872  108.5180 N   0  0  0  0  0  0  0  0  0  0  0  0
  124.4197  108.5100  111.9124 N   0  0  0  0  0  0  0  0  0  0  0  0
  126.1137  109.4896  107.7286 N   0  0  0  0  0  0  0  0  0  0  0  0
  124.4156  109.3950  112.9605 N   0  0  0  0  0  0  0  0  0  0  0  0
  125.2102  107.5793  108.3225 N   0  0  0  0  0  0  0  0  0  0  0  0
  123.1133  110.2370  111.4069 N   0  0  0  0  0  0  0  0  0  0  0  0
  124.9101  106.2565  108.4971 N   0  0  0  0  0  0  0  0  0  0  0  0
  122.2634  111.0208  110.6763 N   0  0  0  0  0  0  0  0  0  0  0  0
  127.4305  107.3396  106.7126 S   0  0  0  0  0  0  0  0  0  0  0  0
  123.3288  111.7817  113.6756 S   0  0  0  0  0  0  0  0  0  0  0  0
  123.1136  107.3854  109.8290 H   0  0  0  0  0  0  0  0  0  0  0  0
  122.4741  108.9555  109.2624 H   0  0  0  0  0  0  0  0  0  0  0  0
  126.6866  110.2262  107.3373 H   0  0  0  0  0  0  0  0  0  0  0  0
  124.9541  109.2088  113.7967 H   0  0  0  0  0  0  0  0  0  0  0  0
  124.4907  106.0735  109.4284 H   0  0  0  0  0  0  0  0  0  0  0  0
  125.7621  105.6645  108.4957 H   0  0  0  0  0  0  0  0  0  0  0  0
  122.4464  110.9463  109.6576 H   0  0  0  0  0  0  0  0  0  0  0  0
  122.4039  112.0295  110.8734 H   0  0  0  0  0  0  0  0  0  0  0  0
  1  5  1  0  0  0  0
  1  6  2  0  0  0  0
  1 10  1  0  0  0  0
  2  5  1  0  0  0  0
  2  7  2  0  0  0  0
  2 11  1  0  0  0  0
  3  8  1  0  0  0  0
  3 10  1  0  0  0  0
  3 14  2  0  0  0  0
  4  9  1  0  0  0  0
  4 11  1  0  0  0  0
  4 15  2  0  0  0  0
  6  8  1  0  0  0  0
  7  9  1  0  0  0  0
 10 12  1  0  0  0  0
 11 13  1  0  0  0  0
  5 16  1  0  0  0  0
  5 17  1  0  0  0  0
  8 18  1  0  0  0  0
  9 19  1  0  0  0  0
 12 20  1  0  0  0  0
 12 21  1  0  0  0  0
 13 22  1  0  0  0  0
 13 23  1  0  0  0  0
M  END
> <FRED Chemgauss4 score>
-9.987796

$$$$
C88889534	P139043986
  -OEChem-05122015313D

 34 35  0     0  0  0  0  0  0999 V2000
  125.1236  107.6615  109.2650 C   0  0  0  0  0  0  0  0  0  0  0  0
  123.1069  107.5442  107.9397 C   0  0  0  0  0  0  0  0  0  0  0  0
  117.9856  103.4346  105.1816 C   0  0  0  0  0  0  0  0  0  0  0  0
  117.4259  104.6879  105.0466 C   0  0  0  0  0  0  0  0  0  0  0  0
  125.6420  106.5670  108.5731 C   0  0  0  0  0  0  0  0  0  0  0  0
  124.8929  105.9611  107.5644 C   0  0  0  0  0  0  0  0  0  0  0  0
  123.6253  106.4497  107.2477 C   0  0  0  0  0  0  0  0  0  0  0  0
  123.8560  108.1502  108.9484 C   0  0  0  0  0  0  0  0  0  0  0  0
  119.3494  104.5475  106.4899 C   0  0  0  0  0  0  0  0  0  0  0  0
  125.1324  103.5990  107.4258 C   0  0  0  0  0  0  0  0  0  0  0  0
  127.0009  106.0588  108.9269 C   0  0  0  0  0  0  0  0  0  0  0  0
  120.4786  104.8573  107.4296 C   0  0  0  0  0  0  0  0  0  0  0  0
  119.0890  103.3523  106.0085 N   0  0  0  0  0  0  0  0  0  0  0  0
  121.7862  104.5227  106.8474 N   0  0  0  0  0  0  0  0  0  0  0  0
  121.7310  106.6991  105.4703 O   0  0  0  0  0  0  0  0  0  0  0  0
  123.5786  105.0402  105.0719 O   0  0  0  0  0  0  0  0  0  0  0  0
  127.0131  105.6586  110.2910 O   0  0  0  0  0  0  0  0  0  0  0  0
  125.4052  104.8915  106.8903 O   0  0  0  0  0  0  0  0  0  0  0  0
  118.3075  105.8163  105.9903 S   0  0  0  0  0  0  0  0  0  0  0  0
  122.6649  105.7086  105.9871 S   0  0  0  0  0  0  0  0  0  0  0  0
  123.2153  109.4995  109.8029 Cl  0  0  0  0  0  0  0  0  0  0  0  0
  125.7112  108.1313  110.0506 H   0  0  0  0  0  0  0  0  0  0  0  0
  122.1185  107.9238  107.6908 H   0  0  0  0  0  0  0  0  0  0  0  0
  117.6241  102.5389  104.6947 H   0  0  0  0  0  0  0  0  0  0  0  0
  116.5680  104.9839  104.4598 H   0  0  0  0  0  0  0  0  0  0  0  0
  125.5968  102.8371  106.7950 H   0  0  0  0  0  0  0  0  0  0  0  0
  124.0517  103.4423  107.4691 H   0  0  0  0  0  0  0  0  0  0  0  0
  125.5484  103.5370  108.4342 H   0  0  0  0  0  0  0  0  0  0  0  0
  127.2794  105.1981  108.3048 H   0  0  0  0  0  0  0  0  0  0  0  0
  127.7636  106.8345  108.7784 H   0  0  0  0  0  0  0  0  0  0  0  0
  120.4863  105.9222  107.6862 H   0  0  0  0  0  0  0  0  0  0  0  0
  120.3758  104.2980  108.3654 H   0  0  0  0  0  0  0  0  0  0  0  0
  122.3015  103.7607  107.3050 H   0  0  0  0  0  0  0  0  0  0  0  0
  127.9091  105.3365  110.4801 H   0  0  0  0  0  0  0  0  0  0  0  0
  1  5  2  0  0  0  0
  1  8  1  0  0  0  0
  2  7  1  0  0  0  0
  2  8  2  0  0  0  0
  3  4  2  0  0  0  0
  3 13  1  0  0  0  0
  4 19  1  0  0  0  0
  5  6  1  0  0  0  0
  5 11  1  0  0  0  0
  6  7  2  0  0  0  0
  6 18  1  0  0  0  0
  7 20  1  0  0  0  0
  8 21  1  0  0  0  0
  9 12  1  0  0  0  0
  9 13  2  0  0  0  0
  9 19  1  0  0  0  0
 10 18  1  0  0  0  0
 11 17  1  0  0  0  0
 12 14  1  0  0  0  0
 14 20  1  0  0  0  0
 15 20  2  0  0  0  0
 16 20  2  0  0  0  0
  1 22  1  0  0  0  0
  2 23  1  0  0  0  0
  3 24  1  0  0  0  0
  4 25  1  0  0  0  0
 10 26  1  0  0  0  0
 10 27  1  0  0  0  0
 10 28  1  0  0  0  0
 11 29  1  0  0  0  0
 11 30  1  0  0  0  0
 12 31  1  0  0  0  0
 12 32  1  0  0  0  0
 14 33  1  0  0  0  0
 17 34  1  0  0  0  0
M  END
> <FRED Chemgauss4 score>
-9.986151

$$$$
C37820463	P56254837
  -OEChem-05122015313D

 46 46  0     1  0  0  0  0  0999 V2000
  122.7933  104.3376  106.5815 C   0  0  0  0  0  0  0  0  0  0  0  0
  125.8256  104.5376  108.4571 C   0  0  0  0  0  0  0  0  0  0  0  0
  126.0164  106.0391  108.6712 C   0  0  0  0  0  0  0  0  0  0  0  0
  125.2125  104.2488  107.0905 C   0  0  0  0  0  0  0  0  0  0  0  0
  124.1123  106.4593  107.0665 C   0  0  0  0  0  0  0  0  0  0  0  0
  124.7013  106.8005  108.4427 C   0  0  2  0  0  0  0  0  0  0  0  0
  116.6857  104.8279  105.9084 C   0  0  0  0  0  0  0  0  0  0  0  0
  119.2176  105.6786  104.5054 C   0  0  0  0  0  0  0  0  0  0  0  0
  121.5594  105.1879  106.4127 C   0  0  0  0  0  0  0  0  0  0  0  0
  124.9159  108.3054  108.5826 C   0  0  0  0  0  0  0  0  0  0  0  0
  118.0145  104.0971  106.0527 C   0  0  0  0  0  0  0  0  0  0  0  0
  119.2230  105.0269  105.8843 C   0  0  1  0  0  0  0  0  0  0  0  0
  123.9733  105.0057  106.9067 N   0  0  0  0  0  0  0  0  0  0  0  0
  123.2977  110.7229  110.2797 N   0  0  0  0  0  0  0  0  0  0  0  0
  120.4821  104.3040  106.0857 N   0  0  0  0  0  0  0  0  0  0  0  0
  124.9290  108.6651  109.9607 N   0  0  0  0  0  0  0  0  0  0  0  0
  122.7082  103.1160  106.4313 O   0  0  0  0  0  0  0  0  0  0  0  0
  122.3451  108.3400  110.1613 O   0  0  0  0  0  0  0  0  0  0  0  0
  123.6629  109.0360  112.1919 O   0  0  0  0  0  0  0  0  0  0  0  0
  123.4395  109.0812  110.7595 S   0  0  0  0  0  0  0  0  0  0  0  0
  126.7885  104.0235  108.5503 H   0  0  0  0  0  0  0  0  0  0  0  0
  125.1690  104.1432  109.2426 H   0  0  0  0  0  0  0  0  0  0  0  0
  126.3839  106.2190  109.6882 H   0  0  0  0  0  0  0  0  0  0  0  0
  126.7871  106.4075  107.9824 H   0  0  0  0  0  0  0  0  0  0  0  0
  125.9001  104.5464  106.2900 H   0  0  0  0  0  0  0  0  0  0  0  0
  125.0337  103.1742  106.9857 H   0  0  0  0  0  0  0  0  0  0  0  0
  123.1577  106.9732  106.9371 H   0  0  0  0  0  0  0  0  0  0  0  0
  124.7746  106.8072  106.2638 H   0  0  0  0  0  0  0  0  0  0  0  0
  123.9854  106.4831  109.2132 H   0  0  0  0  0  0  0  0  0  0  0  0
  116.5997  105.3127  104.9312 H   0  0  0  0  0  0  0  0  0  0  0  0
  115.8553  104.1213  106.0059 H   0  0  0  0  0  0  0  0  0  0  0  0
  116.5726  105.5920  106.6841 H   0  0  0  0  0  0  0  0  0  0  0  0
  119.2510  104.9227  103.7141 H   0  0  0  0  0  0  0  0  0  0  0  0
  118.3200  106.2898  104.3582 H   0  0  0  0  0  0  0  0  0  0  0  0
  120.0861  106.3351  104.3826 H   0  0  0  0  0  0  0  0  0  0  0  0
  121.7438  105.8974  105.6115 H   0  0  0  0  0  0  0  0  0  0  0  0
  121.3739  105.7058  107.3490 H   0  0  0  0  0  0  0  0  0  0  0  0
  124.1041  108.8201  108.0855 H   0  0  0  0  0  0  0  0  0  0  0  0
  125.8647  108.5691  108.1347 H   0  0  0  0  0  0  0  0  0  0  0  0
  118.0462  103.6324  107.0457 H   0  0  0  0  0  0  0  0  0  0  0  0
  118.0549  103.2851  105.3160 H   0  0  0  0  0  0  0  0  0  0  0  0
  119.1889  105.8139  106.6466 H   0  0  0  0  0  0  0  0  0  0  0  0
  123.1549  110.8805  109.2729 H   0  0  0  0  0  0  0  0  0  0  0  0
  124.0228  111.3558  110.6440 H   0  0  0  0  0  0  0  0  0  0  0  0
  120.3388  103.6166  106.8368 H   0  0  0  0  0  0  0  0  0  0  0  0
  125.7404  109.2522  110.2762 H   0  0  0  0  0  0  0  0  0  0  0  0
  1  9  1  0  0  0  0
  1 13  1  0  0  0  0
  1 17  2  0  0  0  0
  2  3  1  0  0  0  0
  2  4  1  0  0  0  0
  3  6  1  0  0  0  0
  4 13  1  0  0  0  0
  5  6  1  0  0  0  0
  5 13  1  0  0  0  0
  6 10  1  0  0  0  0
  7 11  1  0  0  0  0
  8 12  1  0  0  0  0
  9 15  1  0  0  0  0
 10 16  1  0  0  0  0
 11 12  1  0  0  0  0
 12 15  1  0  0  0  0
 14 20  1  0  0  0  0
 16 20  1  0  0  0  0
 18 20  2  0  0  0  0
 19 20  2  0  0  0  0
  2 21  1  0  0  0  0
  2 22  1  0  0  0  0
  3 23  1  0  0  0  0
  3 24  1  0  0  0  0
  4 25  1  0  0  0  0
  4 26  1  0  0  0  0
  5 27  1  0  0  0  0
  5 28  1  0  0  0  0
  6 29  1  0  0  0  0
  7 30  1  0  0  0  0
  7 31  1  0  0  0  0
  7 32  1  0  0  0  0
  8 33  1  0  0  0  0
  8 34  1  0  0  0  0
  8 35  1  0  0  0  0
  9 36  1  0  0  0  0
  9 37  1  0  0  0  0
 10 38  1  0  0  0  0
 10 39  1  0  0  0  0
 11 40  1  0  0  0  0
 11 41  1  0  0  0  0
 12 42  1  0  0  0  0
 14 43  1  0  0  0  0
 14 44  1  0  0  0  0
 15 45  1  0  0  0  0
 16 46  1  0  0  0  0
M  END
> <FRED Chemgauss4 score>
-9.983805

$$$$
C62706836	P96218758
  -OEChem-05122015313D

 29 30  0     1  0  0  0  0  0999 V2000
  124.1317  104.3723  106.9879 C   0  0  0  0  0  0  0  0  0  0  0  0
  123.3880  106.6282  107.4289 C   0  0  0  0  0  0  0  0  0  0  0  0
  123.2077  105.3991  106.7945 C   0  0  0  0  0  0  0  0  0  0  0  0
  125.2360  104.5745  107.8159 C   0  0  0  0  0  0  0  0  0  0  0  0
  124.4923  106.8305  108.2568 C   0  0  0  0  0  0  0  0  0  0  0  0
  125.4163  105.8036  108.4503 C   0  0  0  0  0  0  0  0  0  0  0  0
  120.3855  106.6362  105.6014 C   0  0  0  0  0  0  0  0  0  0  0  0
  120.8140  104.7162  106.6481 C   0  0  0  0  0  0  0  0  0  0  0  0
  116.9726  103.7357  106.2929 C   0  0  0  0  0  0  0  0  0  0  0  0
  117.6425  104.8526  105.9870 C   0  0  0  0  0  0  0  0  0  0  0  0
  122.0255  105.1817  105.9096 C   0  0  1  0  0  0  0  0  0  0  0  0
  118.5052  105.5973  106.9523 C   0  0  0  0  0  0  0  0  0  0  0  0
  121.6174  106.4757  105.2433 N   0  0  0  0  0  0  0  0  0  0  0  0
  119.8661  105.6172  106.4434 N   0  0  0  0  0  0  0  0  0  0  0  0
  120.8110  103.5839  107.3285 N   0  3  0  0  0  0  0  0  0  0  0  0
  126.1229  103.5882  108.0022 F   0  0  0  0  0  0  0  0  0  0  0  0
  124.6645  108.0099  108.8679 F   0  0  0  0  0  0  0  0  0  0  0  0
  126.4770  105.9982  109.2447 F   0  0  0  0  0  0  0  0  0  0  0  0
  123.9991  103.4114  106.4982 H   0  0  0  0  0  0  0  0  0  0  0  0
  122.6732  107.4341  107.2855 H   0  0  0  0  0  0  0  0  0  0  0  0
  119.7210  107.4658  105.3224 H   0  0  0  0  0  0  0  0  0  0  0  0
  116.3667  103.2368  105.5445 H   0  0  0  0  0  0  0  0  0  0  0  0
  117.0148  103.3025  107.2862 H   0  0  0  0  0  0  0  0  0  0  0  0
  117.5702  105.2409  104.9740 H   0  0  0  0  0  0  0  0  0  0  0  0
  122.2892  104.4614  105.1275 H   0  0  0  0  0  0  0  0  0  0  0  0
  118.4976  105.0911  107.9225 H   0  0  0  0  0  0  0  0  0  0  0  0
  118.1696  106.6285  107.1014 H   0  0  0  0  0  0  0  0  0  0  0  0
  121.6406  103.0064  107.3603 H   0  0  0  0  0  0  0  0  0  0  0  0
  119.9790  103.2879  107.8214 H   0  0  0  0  0  0  0  0  0  0  0  0
  1  3  1  0  0  0  0
  1  4  2  0  0  0  0
  2  3  2  0  0  0  0
  2  5  1  0  0  0  0
  3 11  1  0  0  0  0
  4  6  1  0  0  0  0
  4 16  1  0  0  0  0
  5  6  2  0  0  0  0
  5 17  1  0  0  0  0
  6 18  1  0  0  0  0
  7 13  2  0  0  0  0
  7 14  1  0  0  0  0
  8 11  1  0  0  0  0
  8 14  1  0  0  0  0
  8 15  2  0  0  0  0
  9 10  2  0  0  0  0
 10 12  1  0  0  0  0
 11 13  1  0  0  0  0
 12 14  1  0  0  0  0
  1 19  1  0  0  0  0
  2 20  1  0  0  0  0
  7 21  1  0  0  0  0
  9 22  1  0  0  0  0
  9 23  1  0  0  0  0
 10 24  1  0  0  0  0
 11 25  1  0  0  0  0
 12 26  1  0  0  0  0
 12 27  1  0  0  0  0
 15 28  1  0  0  0  0
 15 29  1  0  0  0  0
M  CHG  1  15   1
M  END
> <FRED Chemgauss4 score>
-9.972923

$$$$
C19323396	P28918816
  -OEChem-05122015313D

 54 56  0     1  0  0  0  0  0999 V2000
  119.8020  106.1580  106.5208 C   0  0  0  0  0  0  0  0  0  0  0  0
  121.7240  104.6412  106.2621 C   0  0  0  0  0  0  0  0  0  0  0  0
  121.0872  106.2438  104.4225 C   0  0  0  0  0  0  0  0  0  0  0  0
  121.8738  106.4800  107.8146 C   0  0  0  0  0  0  0  0  0  0  0  0
  121.2361  108.0848  105.9726 C   0  0  0  0  0  0  0  0  0  0  0  0
  123.1097  106.5867  105.7493 C   0  0  0  0  0  0  0  0  0  0  0  0
  120.5455  105.2860  105.5037 C   0  0  0  0  0  0  0  0  0  0  0  0
  120.7017  107.2302  107.1435 C   0  0  0  0  0  0  0  0  0  0  0  0
  119.6348  104.2240  104.8939 C   0  0  0  0  0  0  0  0  0  0  0  0
  118.9655  110.7355  109.1940 C   0  0  0  0  0  0  0  0  0  0  0  0
  119.9468  108.0895  108.1536 C   0  0  0  0  0  0  0  0  0  0  0  0
  120.1125  109.9649  109.8281 C   0  0  0  0  0  0  0  0  0  0  0  0
  120.8645  109.1279  108.7936 C   0  0  0  0  0  0  0  0  0  0  0  0
  125.7261  108.8678  108.5559 C   0  0  0  0  0  0  0  0  0  0  0  0
  124.1502  107.5920  106.2651 C   0  0  1  0  0  0  0  0  0  0  0  0
  126.3715  107.9116  107.5538 C   0  0  2  0  0  0  0  0  0  0  0  0
  125.3583  106.9329  106.9406 C   0  0  1  0  0  0  0  0  0  0  0  0
  122.6261  105.6752  106.8204 N   0  0  2  0  0  0  0  0  0  0  0  0
  122.0004  107.2498  105.0130 N   0  0  1  0  0  0  0  0  0  0  0  0
  118.6176  106.0137  106.8049 O   0  0  0  0  0  0  0  0  0  0  0  0
  125.0595  109.9020  107.8386 O   0  0  0  0  0  0  0  0  0  0  0  0
  124.6029  108.3512  105.1443 O   0  0  0  0  0  0  0  0  0  0  0  0
  127.3900  107.1690  108.2267 O   0  0  0  0  0  0  0  0  0  0  0  0
  124.8567  106.0909  107.9856 O   0  0  0  0  0  0  0  0  0  0  0  0
  121.3562  104.0074  107.0805 H   0  0  0  0  0  0  0  0  0  0  0  0
  122.2873  103.9686  105.6045 H   0  0  0  0  0  0  0  0  0  0  0  0
  121.6048  105.6859  103.6334 H   0  0  0  0  0  0  0  0  0  0  0  0
  120.2611  106.7631  103.9178 H   0  0  0  0  0  0  0  0  0  0  0  0
  122.5587  107.1897  108.2967 H   0  0  0  0  0  0  0  0  0  0  0  0
  121.5098  105.8215  108.6144 H   0  0  0  0  0  0  0  0  0  0  0  0
  120.4118  108.5825  105.4445 H   0  0  0  0  0  0  0  0  0  0  0  0
  121.8835  108.8886  106.3468 H   0  0  0  0  0  0  0  0  0  0  0  0
  123.6707  105.9779  105.0249 H   0  0  0  0  0  0  0  0  0  0  0  0
  120.1939  103.6238  104.1774 H   0  0  0  0  0  0  0  0  0  0  0  0
  118.7998  104.7015  104.3829 H   0  0  0  0  0  0  0  0  0  0  0  0
  119.2478  103.5739  105.6774 H   0  0  0  0  0  0  0  0  0  0  0  0
  119.3282  111.3962  108.4001 H   0  0  0  0  0  0  0  0  0  0  0  0
  118.4619  111.3520  109.9451 H   0  0  0  0  0  0  0  0  0  0  0  0
  118.2258  110.0535  108.7627 H   0  0  0  0  0  0  0  0  0  0  0  0
  119.1147  108.5854  107.6445 H   0  0  0  0  0  0  0  0  0  0  0  0
  119.5205  107.4387  108.9232 H   0  0  0  0  0  0  0  0  0  0  0  0
  119.7163  109.3147  110.6168 H   0  0  0  0  0  0  0  0  0  0  0  0
  120.8003  110.6724  110.3059 H   0  0  0  0  0  0  0  0  0  0  0  0
  121.2762  109.7852  108.0180 H   0  0  0  0  0  0  0  0  0  0  0  0
  121.7127  108.6252  109.2741 H   0  0  0  0  0  0  0  0  0  0  0  0
  124.9847  108.3499  109.1720 H   0  0  0  0  0  0  0  0  0  0  0  0
  126.4751  109.3408  109.1991 H   0  0  0  0  0  0  0  0  0  0  0  0
  123.6616  108.2957  106.9409 H   0  0  0  0  0  0  0  0  0  0  0  0
  126.8644  108.4891  106.7638 H   0  0  0  0  0  0  0  0  0  0  0  0
  125.8738  106.2731  106.2318 H   0  0  0  0  0  0  0  0  0  0  0  0
  124.6630  110.4882  108.5020 H   0  0  0  0  0  0  0  0  0  0  0  0
  124.9902  107.7169  104.5223 H   0  0  0  0  0  0  0  0  0  0  0  0
  128.0277  107.8189  108.5575 H   0  0  0  0  0  0  0  0  0  0  0  0
  125.6317  105.6849  108.3989 H   0  0  0  0  0  0  0  0  0  0  0  0
  1  7  1  0  0  0  0
  1  8  1  0  0  0  0
  1 20  2  0  0  0  0
  2  7  1  0  0  0  0
  2 18  1  0  0  0  0
  3  7  1  0  0  0  0
  3 19  1  0  0  0  0
  4  8  1  0  0  0  0
  4 18  1  0  0  0  0
  5  8  1  0  0  0  0
  5 19  1  0  0  0  0
  6 15  1  0  0  0  0
  6 18  1  0  0  0  0
  6 19  1  0  0  0  0
  7  9  1  0  0  0  0
  8 11  1  0  0  0  0
 10 12  1  0  0  0  0
 11 13  1  0  0  0  0
 12 13  1  0  0  0  0
 14 16  1  0  0  0  0
 14 21  1  0  0  0  0
 15 17  1  0  0  0  0
 15 22  1  0  0  0  0
 16 17  1  0  0  0  0
 16 23  1  0  0  0  0
 17 24  1  0  0  0  0
  2 25  1  0  0  0  0
  2 26  1  0  0  0  0
  3 27  1  0  0  0  0
  3 28  1  0  0  0  0
  4 29  1  0  0  0  0
  4 30  1  0  0  0  0
  5 31  1  0  0  0  0
  5 32  1  0  0  0  0
  6 33  1  0  0  0  0
  9 34  1  0  0  0  0
  9 35  1  0  0  0  0
  9 36  1  0  0  0  0
 10 37  1  0  0  0  0
 10 38  1  0  0  0  0
 10 39  1  0  0  0  0
 11 40  1  0  0  0  0
 11 41  1  0  0  0  0
 12 42  1  0  0  0  0
 12 43  1  0  0  0  0
 13 44  1  0  0  0  0
 13 45  1  0  0  0  0
 14 46  1  0  0  0  0
 14 47  1  0  0  0  0
 15 48  1  0  0  0  0
 16 49  1  0  0  0  0
 17 50  1  0  0  0  0
 21 51  1  0  0  0  0
 22 52  1  0  0  0  0
 23 53  1  0  0  0  0
 24 54  1  0  0  0  0
M  END
> <FRED Chemgauss4 score>
-9.967145

$$$$
C71322880	P110269358
  -OEChem-05122015313D

 35 35  0     0  0  0  0  0  0999 V2000
  123.9084  108.7516  110.3453 C   0  0  0  0  0  0  0  0  0  0  0  0
  123.7591  109.4469  111.3133 C   0  0  0  0  0  0  0  0  0  0  0  0
  124.5584  108.3667  107.9785 C   0  0  0  0  0  0  0  0  0  0  0  0
  124.6279  107.3136  107.0212 C   0  0  0  0  0  0  0  0  0  0  0  0
  124.0869  107.9286  109.1964 C   0  0  0  0  0  0  0  0  0  0  0  0
  124.2071  106.1105  107.5441 C   0  0  0  0  0  0  0  0  0  0  0  0
  119.0394  104.5611  104.3867 C   0  0  0  0  0  0  0  0  0  0  0  0
  121.7222  104.8780  106.2261 C   0  0  0  0  0  0  0  0  0  0  0  0
  117.8926  105.3813  103.8966 C   0  0  0  0  0  0  0  0  0  0  0  0
  123.5753  110.2978  112.4986 C   0  0  0  0  0  0  0  0  0  0  0  0
  124.1290  104.7731  106.8663 C   0  0  0  0  0  0  0  0  0  0  0  0
  120.4428  104.0971  106.3862 C   0  0  0  0  0  0  0  0  0  0  0  0
  124.2924  111.6317  112.3429 C   0  0  0  0  0  0  0  0  0  0  0  0
  122.7828  104.2474  106.8606 N   0  0  0  0  0  0  0  0  0  0  0  0
  119.3481  104.7975  105.6987 N   0  0  0  0  0  0  0  0  0  0  0  0
  119.5914  103.7771  103.6236 O   0  0  0  0  0  0  0  0  0  0  0  0
  121.7953  105.9355  105.6059 O   0  0  0  0  0  0  0  0  0  0  0  0
  123.7512  112.3380  111.2333 O   0  0  0  0  0  0  0  0  0  0  0  0
  123.7305  106.2537  109.1826 S   0  0  0  0  0  0  0  0  0  0  0  0
  124.8427  109.3916  107.7733 H   0  0  0  0  0  0  0  0  0  0  0  0
  124.9701  107.4366  106.0015 H   0  0  0  0  0  0  0  0  0  0  0  0
  118.2160  106.3462  103.4741 H   0  0  0  0  0  0  0  0  0  0  0  0
  117.3338  104.8824  103.0885 H   0  0  0  0  0  0  0  0  0  0  0  0
  117.1368  105.6364  104.6565 H   0  0  0  0  0  0  0  0  0  0  0  0
  122.5040  110.4653  112.6586 H   0  0  0  0  0  0  0  0  0  0  0  0
  123.9680  109.7763  113.3786 H   0  0  0  0  0  0  0  0  0  0  0  0
  124.4667  104.8468  105.8268 H   0  0  0  0  0  0  0  0  0  0  0  0
  124.7722  104.0412  107.3661 H   0  0  0  0  0  0  0  0  0  0  0  0
  120.5624  103.1006  105.9508 H   0  0  0  0  0  0  0  0  0  0  0  0
  120.1971  104.0014  107.4479 H   0  0  0  0  0  0  0  0  0  0  0  0
  124.1389  112.2434  113.2377 H   0  0  0  0  0  0  0  0  0  0  0  0
  125.3681  111.4982  112.1858 H   0  0  0  0  0  0  0  0  0  0  0  0
  122.6042  103.3727  107.3453 H   0  0  0  0  0  0  0  0  0  0  0  0
  118.8082  105.4730  106.2097 H   0  0  0  0  0  0  0  0  0  0  0  0
  124.2358  113.1768  111.1730 H   0  0  0  0  0  0  0  0  0  0  0  0
  1  2  3  0  0  0  0
  1  5  1  0  0  0  0
  2 10  1  0  0  0  0
  3  4  1  0  0  0  0
  3  5  2  0  0  0  0
  4  6  2  0  0  0  0
  5 19  1  0  0  0  0
  6 11  1  0  0  0  0
  6 19  1  0  0  0  0
  7  9  1  0  0  0  0
  7 15  1  0  0  0  0
  7 16  2  0  0  0  0
  8 12  1  0  0  0  0
  8 14  1  0  0  0  0
  8 17  2  0  0  0  0
 10 13  1  0  0  0  0
 11 14  1  0  0  0  0
 12 15  1  0  0  0  0
 13 18  1  0  0  0  0
  3 20  1  0  0  0  0
  4 21  1  0  0  0  0
  9 22  1  0  0  0  0
  9 23  1  0  0  0  0
  9 24  1  0  0  0  0
 10 25  1  0  0  0  0
 10 26  1  0  0  0  0
 11 27  1  0  0  0  0
 11 28  1  0  0  0  0
 12 29  1  0  0  0  0
 12 30  1  0  0  0  0
 13 31  1  0  0  0  0
 13 32  1  0  0  0  0
 14 33  1  0  0  0  0
 15 34  1  0  0  0  0
 18 35  1  0  0  0  0
M  END
> <FRED Chemgauss4 score>
-9.962067

$$$$
C42805961	P64708179
  -OEChem-05122015313D

 37 37  0     0  0  0  0  0  0999 V2000
  123.9997  104.2325  107.1958 C   0  0  0  0  0  0  0  0  0  0  0  0
  123.6975  106.5795  106.7090 C   0  0  0  0  0  0  0  0  0  0  0  0
  125.6914  105.8292  107.8485 C   0  0  0  0  0  0  0  0  0  0  0  0
  123.2343  105.2649  106.6538 C   0  0  0  0  0  0  0  0  0  0  0  0
  125.2282  104.5146  107.7933 C   0  0  0  0  0  0  0  0  0  0  0  0
  124.9260  106.8616  107.3064 C   0  0  0  0  0  0  0  0  0  0  0  0
  121.9538  104.9700  106.0309 C   0  0  0  0  0  0  0  0  0  0  0  0
  116.8877  104.1946  105.1501 C   0  0  0  0  0  0  0  0  0  0  0  0
  115.5991  103.5469  104.7651 C   0  0  0  0  0  0  0  0  0  0  0  0
  124.8662  109.1367  108.9108 C   0  0  0  0  0  0  0  0  0  0  0  0
  120.0057  103.3941  105.9464 C   0  0  0  0  0  0  0  0  0  0  0  0
  118.8291  104.0014  106.6917 C   0  0  0  0  0  0  0  0  0  0  0  0
  126.0023  103.4705  108.3413 N   0  0  0  0  0  0  0  0  0  0  0  0
  121.2749  103.8319  106.4817 N   0  0  0  0  0  0  0  0  0  0  0  0
  117.5686  103.5477  106.1693 N   0  0  0  0  0  0  0  0  0  0  0  0
  121.5097  105.6977  105.1252 O   0  0  0  0  0  0  0  0  0  0  0  0
  117.2507  105.2105  104.5688 O   0  0  0  0  0  0  0  0  0  0  0  0
  126.9581  108.4662  107.4794 O   0  0  0  0  0  0  0  0  0  0  0  0
  124.8794  109.2739  106.3079 O   0  0  0  0  0  0  0  0  0  0  0  0
  125.5064  108.5067  107.3756 S   0  0  0  0  0  0  0  0  0  0  0  0
  123.6389  103.2070  107.1537 H   0  0  0  0  0  0  0  0  0  0  0  0
  123.1007  107.3846  106.2867 H   0  0  0  0  0  0  0  0  0  0  0  0
  126.6490  106.0486  108.3150 H   0  0  0  0  0  0  0  0  0  0  0  0
  114.7451  103.9322  105.3449 H   0  0  0  0  0  0  0  0  0  0  0  0
  115.3381  103.7246  103.7094 H   0  0  0  0  0  0  0  0  0  0  0  0
  115.5652  102.4529  104.8916 H   0  0  0  0  0  0  0  0  0  0  0  0
  125.1931  110.1718  109.0213 H   0  0  0  0  0  0  0  0  0  0  0  0
  123.7771  109.0811  108.8784 H   0  0  0  0  0  0  0  0  0  0  0  0
  125.2567  108.5234  109.7242 H   0  0  0  0  0  0  0  0  0  0  0  0
  119.9882  103.6628  104.8854 H   0  0  0  0  0  0  0  0  0  0  0  0
  119.9811  102.3032  106.0301 H   0  0  0  0  0  0  0  0  0  0  0  0
  118.8610  103.7154  107.7475 H   0  0  0  0  0  0  0  0  0  0  0  0
  118.8376  105.0943  106.6277 H   0  0  0  0  0  0  0  0  0  0  0  0
  125.6380  102.5394  108.3373 H   0  0  0  0  0  0  0  0  0  0  0  0
  126.8584  103.6917  108.8082 H   0  0  0  0  0  0  0  0  0  0  0  0
  121.7114  103.2376  107.1789 H   0  0  0  0  0  0  0  0  0  0  0  0
  117.1544  102.7070  106.5694 H   0  0  0  0  0  0  0  0  0  0  0  0
  1  4  1  0  0  0  0
  1  5  2  0  0  0  0
  2  4  2  0  0  0  0
  2  6  1  0  0  0  0
  3  5  1  0  0  0  0
  3  6  2  0  0  0  0
  4  7  1  0  0  0  0
  5 13  1  0  0  0  0
  6 20  1  0  0  0  0
  7 14  1  0  0  0  0
  7 16  2  0  0  0  0
  8  9  1  0  0  0  0
  8 15  1  0  0  0  0
  8 17  2  0  0  0  0
 10 20  1  0  0  0  0
 11 12  1  0  0  0  0
 11 14  1  0  0  0  0
 12 15  1  0  0  0  0
 18 20  2  0  0  0  0
 19 20  2  0  0  0  0
  1 21  1  0  0  0  0
  2 22  1  0  0  0  0
  3 23  1  0  0  0  0
  9 24  1  0  0  0  0
  9 25  1  0  0  0  0
  9 26  1  0  0  0  0
 10 27  1  0  0  0  0
 10 28  1  0  0  0  0
 10 29  1  0  0  0  0
 11 30  1  0  0  0  0
 11 31  1  0  0  0  0
 12 32  1  0  0  0  0
 12 33  1  0  0  0  0
 13 34  1  0  0  0  0
 13 35  1  0  0  0  0
 14 36  1  0  0  0  0
 15 37  1  0  0  0  0
M  END
> <FRED Chemgauss4 score>
-9.952079

$$$$
C91280072	P142762411
  -OEChem-05122015313D

 38 39  0     1  0  0  0  0  0999 V2000
  116.0129  104.4553  103.6584 C   0  0  0  0  0  0  0  0  0  0  0  0
  115.1885  105.5688  103.4967 C   0  0  0  0  0  0  0  0  0  0  0  0
  117.0486  104.4841  104.5923 C   0  0  0  0  0  0  0  0  0  0  0  0
  115.3999  106.7111  104.2688 C   0  0  0  0  0  0  0  0  0  0  0  0
  120.7038  107.8774  107.8474 C   0  0  0  0  0  0  0  0  0  0  0  0
  122.6675  107.2263  107.1025 C   0  0  0  0  0  0  0  0  0  0  0  0
  117.2601  105.6264  105.3643 C   0  0  0  0  0  0  0  0  0  0  0  0
  121.3446  107.2916  106.7392 C   0  0  0  0  0  0  0  0  0  0  0  0
  116.4357  106.7399  105.2026 C   0  0  0  0  0  0  0  0  0  0  0  0
  120.4330  104.2423  106.3179 C   0  0  0  0  0  0  0  0  0  0  0  0
  118.3869  105.6108  106.3563 C   0  0  0  0  0  0  0  0  0  0  0  0
  123.9259  107.9028  109.1613 C   0  0  0  0  0  0  0  0  0  0  0  0
  124.8065  109.0665  108.7193 C   0  0  0  0  0  0  0  0  0  0  0  0
  121.5500  108.1637  108.8404 N   0  0  0  0  0  0  0  0  0  0  0  0
  122.7360  107.7560  108.3575 N   0  0  0  0  0  0  0  0  0  0  0  0
  124.1328  110.3335  108.8108 N   0  0  0  0  0  0  0  0  0  0  0  0
  119.6998  105.3776  105.7025 N   0  0  1  0  0  0  0  0  0  0  0  0
  119.7091  107.8065  104.7825 O   0  0  0  0  0  0  0  0  0  0  0  0
  121.6938  106.3395  104.3436 O   0  0  0  0  0  0  0  0  0  0  0  0
  120.6130  106.7576  105.2173 S   0  0  0  0  0  0  0  0  0  0  0  0
  116.6855  108.3167  106.2264 Br  0  0  0  0  0  0  0  0  0  0  0  0
  115.8481  103.5662  103.0573 H   0  0  0  0  0  0  0  0  0  0  0  0
  114.3821  105.5460  102.7697 H   0  0  0  0  0  0  0  0  0  0  0  0
  117.6847  103.6108  104.7098 H   0  0  0  0  0  0  0  0  0  0  0  0
  114.7471  107.5691  104.1285 H   0  0  0  0  0  0  0  0  0  0  0  0
  119.6558  108.1084  107.9758 H   0  0  0  0  0  0  0  0  0  0  0  0
  123.5443  106.8571  106.5881 H   0  0  0  0  0  0  0  0  0  0  0  0
  121.3926  104.0978  105.8146 H   0  0  0  0  0  0  0  0  0  0  0  0
  119.8479  103.3227  106.2307 H   0  0  0  0  0  0  0  0  0  0  0  0
  120.6175  104.4412  107.3770 H   0  0  0  0  0  0  0  0  0  0  0  0
  118.4421  106.5642  106.8931 H   0  0  0  0  0  0  0  0  0  0  0  0
  118.2411  104.8244  107.1044 H   0  0  0  0  0  0  0  0  0  0  0  0
  124.4810  106.9600  109.0864 H   0  0  0  0  0  0  0  0  0  0  0  0
  123.6164  108.0141  110.2073 H   0  0  0  0  0  0  0  0  0  0  0  0
  125.6909  109.1310  109.3605 H   0  0  0  0  0  0  0  0  0  0  0  0
  125.1409  108.9464  107.6838 H   0  0  0  0  0  0  0  0  0  0  0  0
  124.4426  111.0978  108.2318 H   0  0  0  0  0  0  0  0  0  0  0  0
  123.5068  110.5025  109.5823 H   0  0  0  0  0  0  0  0  0  0  0  0
  1  2  1  0  0  0  0
  1  3  2  0  0  0  0
  2  4  2  0  0  0  0
  3  7  1  0  0  0  0
  4  9  1  0  0  0  0
  5  8  1  0  0  0  0
  5 14  2  0  0  0  0
  6  8  2  0  0  0  0
  6 15  1  0  0  0  0
  7  9  2  0  0  0  0
  7 11  1  0  0  0  0
  8 20  1  0  0  0  0
  9 21  1  0  0  0  0
 10 17  1  0  0  0  0
 11 17  1  0  0  0  0
 12 13  1  0  0  0  0
 12 15  1  0  0  0  0
 13 16  1  0  0  0  0
 14 15  1  0  0  0  0
 17 20  1  0  0  0  0
 18 20  2  0  0  0  0
 19 20  2  0  0  0  0
  1 22  1  0  0  0  0
  2 23  1  0  0  0  0
  3 24  1  0  0  0  0
  4 25  1  0  0  0  0
  5 26  1  0  0  0  0
  6 27  1  0  0  0  0
 10 28  1  0  0  0  0
 10 29  1  0  0  0  0
 10 30  1  0  0  0  0
 11 31  1  0  0  0  0
 11 32  1  0  0  0  0
 12 33  1  0  0  0  0
 12 34  1  0  0  0  0
 13 35  1  0  0  0  0
 13 36  1  0  0  0  0
 16 37  1  0  0  0  0
 16 38  1  0  0  0  0
M  END
> <FRED Chemgauss4 score>
-9.950858

$$$$
C91504798	P143198797
  -OEChem-05122015313D

 31 32  0     1  0  0  0  0  0999 V2000
  124.3825  106.3097  106.8872 C   0  0  0  0  0  0  0  0  0  0  0  0
  124.4165  105.1004  107.5383 C   0  0  0  0  0  0  0  0  0  0  0  0
  122.8213  105.1744  106.0283 C   0  0  0  0  0  0  0  0  0  0  0  0
  125.3337  107.3256  107.2441 C   0  0  0  0  0  0  0  0  0  0  0  0
  126.1309  105.5959  108.8660 C   0  0  0  0  0  0  0  0  0  0  0  0
  119.3365  103.7181  105.0344 C   0  0  0  0  0  0  0  0  0  0  0  0
  121.6544  104.6813  105.2026 C   0  0  0  0  0  0  0  0  0  0  0  0
  119.8717  105.2107  107.0164 C   0  0  0  0  0  0  0  0  0  0  0  0
  120.4296  104.1824  106.0106 C   0  0  1  0  0  0  0  0  0  0  0  0
  123.3938  106.3598  105.9496 N   0  0  0  0  0  0  0  0  0  0  0  0
  125.2483  104.6844  108.5187 N   0  0  0  0  0  0  0  0  0  0  0  0
  123.4071  104.3740  106.9785 N   0  0  0  0  0  0  0  0  0  0  0  0
  126.1859  106.8742  108.2616 N   0  0  0  0  0  0  0  0  0  0  0  0
  127.0641  105.3695  109.8442 N   0  0  0  0  0  0  0  0  0  0  0  0
  120.7086  105.4020  108.1944 N   0  0  0  0  0  0  0  0  0  0  0  0
  125.3792  108.4312  106.7196 O   0  0  0  0  0  0  0  0  0  0  0  0
  120.8104  103.0301  106.7756 O   0  0  0  0  0  0  0  0  0  0  0  0
  118.4558  103.3590  105.5791 H   0  0  0  0  0  0  0  0  0  0  0  0
  119.0239  104.5155  104.3532 H   0  0  0  0  0  0  0  0  0  0  0  0
  119.6879  102.8741  104.4293 H   0  0  0  0  0  0  0  0  0  0  0  0
  121.3465  105.4762  104.5104 H   0  0  0  0  0  0  0  0  0  0  0  0
  122.0289  103.8677  104.5655 H   0  0  0  0  0  0  0  0  0  0  0  0
  118.8649  104.9156  107.3352 H   0  0  0  0  0  0  0  0  0  0  0  0
  119.7372  106.1771  106.5135 H   0  0  0  0  0  0  0  0  0  0  0  0
  123.1408  103.4276  107.2168 H   0  0  0  0  0  0  0  0  0  0  0  0
  126.9005  107.5166  108.5916 H   0  0  0  0  0  0  0  0  0  0  0  0
  127.0648  104.4859  110.2986 H   0  0  0  0  0  0  0  0  0  0  0  0
  127.7042  106.0976  110.0618 H   0  0  0  0  0  0  0  0  0  0  0  0
  121.1364  104.5989  108.6047 H   0  0  0  0  0  0  0  0  0  0  0  0
  120.6635  106.2800  108.6674 H   0  0  0  0  0  0  0  0  0  0  0  0
  120.0095  102.7354  107.2307 H   0  0  0  0  0  0  0  0  0  0  0  0
  1  2  2  0  0  0  0
  1  4  1  0  0  0  0
  1 10  1  0  0  0  0
  2 11  1  0  0  0  0
  2 12  1  0  0  0  0
  3  7  1  0  0  0  0
  3 10  2  0  0  0  0
  3 12  1  0  0  0  0
  4 13  1  0  0  0  0
  4 16  2  0  0  0  0
  5 11  2  0  0  0  0
  5 13  1  0  0  0  0
  5 14  1  0  0  0  0
  6  9  1  0  0  0  0
  7  9  1  0  0  0  0
  8  9  1  0  0  0  0
  8 15  1  0  0  0  0
  9 17  1  0  0  0  0
  6 18  1  0  0  0  0
  6 19  1  0  0  0  0
  6 20  1  0  0  0  0
  7 21  1  0  0  0  0
  7 22  1  0  0  0  0
  8 23  1  0  0  0  0
  8 24  1  0  0  0  0
 12 25  1  0  0  0  0
 13 26  1  0  0  0  0
 14 27  1  0  0  0  0
 14 28  1  0  0  0  0
 15 29  1  0  0  0  0
 15 30  1  0  0  0  0
 17 31  1  0  0  0  0
M  END
> <FRED Chemgauss4 score>
-9.947947

$$$$
C94871780	P148706777
  -OEChem-05122015313D

 31 33  0     0  0  0  0  0  0999 V2000
  118.9739  104.0371  105.6640 C   0  0  0  0  0  0  0  0  0  0  0  0
  120.2951  104.0331  106.1111 C   0  0  0  0  0  0  0  0  0  0  0  0
  118.1764  105.1656  105.8548 C   0  0  0  0  0  0  0  0  0  0  0  0
  120.0214  106.2859  106.9401 C   0  0  0  0  0  0  0  0  0  0  0  0
  123.0332  108.3272  105.9979 C   0  0  0  0  0  0  0  0  0  0  0  0
  124.2064  106.3132  107.3428 C   0  0  0  0  0  0  0  0  0  0  0  0
  120.8188  105.1574  106.7492 C   0  0  0  0  0  0  0  0  0  0  0  0
  118.7002  106.2899  106.4929 C   0  0  0  0  0  0  0  0  0  0  0  0
  124.9016  107.4692  106.9997 C   0  0  0  0  0  0  0  0  0  0  0  0
  122.8841  106.2638  106.9297 C   0  0  0  0  0  0  0  0  0  0  0  0
  124.8470  105.1564  108.0496 C   0  0  0  0  0  0  0  0  0  0  0  0
  126.3363  107.6624  107.4142 C   0  0  0  0  0  0  0  0  0  0  0  0
  126.1707  105.5277  108.7185 C   0  0  0  0  0  0  0  0  0  0  0  0
  127.0377  106.3534  107.7735 C   0  0  0  0  0  0  0  0  0  0  0  0
  124.3261  108.4971  106.3326 N   0  0  0  0  0  0  0  0  0  0  0  0
  122.2648  107.2556  106.2584 N   0  0  0  0  0  0  0  0  0  0  0  0
  122.1262  105.1525  107.1923 O   0  0  0  0  0  0  0  0  0  0  0  0
  117.5140  107.9727  106.7719 I   0  0  0  0  0  0  0  0  0  0  0  0
  118.5661  103.1620  105.1664 H   0  0  0  0  0  0  0  0  0  0  0  0
  120.9103  103.1504  105.9605 H   0  0  0  0  0  0  0  0  0  0  0  0
  117.1496  105.1477  105.4980 H   0  0  0  0  0  0  0  0  0  0  0  0
  120.4437  107.1548  107.4397 H   0  0  0  0  0  0  0  0  0  0  0  0
  122.5623  109.1417  105.4614 H   0  0  0  0  0  0  0  0  0  0  0  0
  124.1728  104.7556  108.8156 H   0  0  0  0  0  0  0  0  0  0  0  0
  125.0261  104.3616  107.3147 H   0  0  0  0  0  0  0  0  0  0  0  0
  126.8888  108.1605  106.6092 H   0  0  0  0  0  0  0  0  0  0  0  0
  126.3479  108.3320  108.2831 H   0  0  0  0  0  0  0  0  0  0  0  0
  125.9769  106.1038  109.6324 H   0  0  0  0  0  0  0  0  0  0  0  0
  126.6996  104.6167  109.0200 H   0  0  0  0  0  0  0  0  0  0  0  0
  127.2411  105.7755  106.8630 H   0  0  0  0  0  0  0  0  0  0  0  0
  128.0050  106.5701  108.2405 H   0  0  0  0  0  0  0  0  0  0  0  0
  1  2  1  0  0  0  0
  1  3  2  0  0  0  0
  2  7  2  0  0  0  0
  3  8  1  0  0  0  0
  4  7  1  0  0  0  0
  4  8  2  0  0  0  0
  5 15  2  0  0  0  0
  5 16  1  0  0  0  0
  6  9  2  0  0  0  0
  6 10  1  0  0  0  0
  6 11  1  0  0  0  0
  7 17  1  0  0  0  0
  8 18  1  0  0  0  0
  9 12  1  0  0  0  0
  9 15  1  0  0  0  0
 10 16  2  0  0  0  0
 10 17  1  0  0  0  0
 11 13  1  0  0  0  0
 12 14  1  0  0  0  0
 13 14  1  0  0  0  0
  1 19  1  0  0  0  0
  2 20  1  0  0  0  0
  3 21  1  0  0  0  0
  4 22  1  0  0  0  0
  5 23  1  0  0  0  0
 11 24  1  0  0  0  0
 11 25  1  0  0  0  0
 12 26  1  0  0  0  0
 12 27  1  0  0  0  0
 13 28  1  0  0  0  0
 13 29  1  0  0  0  0
 14 30  1  0  0  0  0
 14 31  1  0  0  0  0
M  END
> <FRED Chemgauss4 score>
-9.944983

$$$$
C90107205	P140837949
  -OEChem-05122015313D

 35 35  0     0  0  0  0  0  0999 V2000
  117.9280  103.6842  105.1182 C   0  0  0  0  0  0  0  0  0  0  0  0
  117.7862  106.0055  105.7730 C   0  0  0  0  0  0  0  0  0  0  0  0
  119.1996  103.6019  105.6855 C   0  0  0  0  0  0  0  0  0  0  0  0
  119.7645  104.7213  106.2966 C   0  0  0  0  0  0  0  0  0  0  0  0
  117.2213  104.8861  105.1619 C   0  0  0  0  0  0  0  0  0  0  0  0
  119.0578  105.9231  106.3404 C   0  0  0  0  0  0  0  0  0  0  0  0
  122.1886  105.3627  106.5316 C   0  0  0  0  0  0  0  0  0  0  0  0
  123.3722  104.9474  107.3964 C   0  0  0  0  0  0  0  0  0  0  0  0
  123.9381  109.6762  109.9841 C   0  0  0  0  0  0  0  0  0  0  0  0
  124.0016  110.2226  111.4047 C   0  0  0  0  0  0  0  0  0  0  0  0
  123.4682  105.7704  108.6754 C   0  0  0  0  0  0  0  0  0  0  0  0
  123.7546  108.1636  109.9819 C   0  0  0  0  0  0  0  0  0  0  0  0
  119.8953  102.3728  105.6283 N   0  0  0  0  0  0  0  0  0  0  0  0
  121.0553  104.6282  106.8693 N   0  0  0  0  0  0  0  0  0  0  0  0
  122.2841  106.2312  105.6707 O   0  0  0  0  0  0  0  0  0  0  0  0
  124.1583  111.6336  111.3479 O   0  0  0  0  0  0  0  0  0  0  0  0
  123.6830  107.5311  108.2902 S   0  0  0  0  0  0  0  0  0  0  0  0
  115.6523  104.9878  104.4617 Cl  0  0  0  0  0  0  0  0  0  0  0  0
  119.7171  107.3360  107.0862 Cl  0  0  0  0  0  0  0  0  0  0  0  0
  117.4892  102.8099  104.6422 H   0  0  0  0  0  0  0  0  0  0  0  0
  117.2333  106.9419  105.8056 H   0  0  0  0  0  0  0  0  0  0  0  0
  124.2829  105.0663  106.7958 H   0  0  0  0  0  0  0  0  0  0  0  0
  123.2563  103.8828  107.6359 H   0  0  0  0  0  0  0  0  0  0  0  0
  123.1155  110.1689  109.4498 H   0  0  0  0  0  0  0  0  0  0  0  0
  124.8569  109.9580  109.4535 H   0  0  0  0  0  0  0  0  0  0  0  0
  123.0810  109.9961  111.9518 H   0  0  0  0  0  0  0  0  0  0  0  0
  124.8525  109.7995  111.9480 H   0  0  0  0  0  0  0  0  0  0  0  0
  122.5635  105.6536  109.2810 H   0  0  0  0  0  0  0  0  0  0  0  0
  124.3184  105.4421  109.2823 H   0  0  0  0  0  0  0  0  0  0  0  0
  122.8260  107.8878  110.4920 H   0  0  0  0  0  0  0  0  0  0  0  0
  124.5846  107.6732  110.5003 H   0  0  0  0  0  0  0  0  0  0  0  0
  119.4438  101.5784  105.2258 H   0  0  0  0  0  0  0  0  0  0  0  0
  120.7853  102.2985  106.0748 H   0  0  0  0  0  0  0  0  0  0  0  0
  121.1518  103.9416  107.6145 H   0  0  0  0  0  0  0  0  0  0  0  0
  124.1951  111.9490  112.2655 H   0  0  0  0  0  0  0  0  0  0  0  0
  1  3  2  0  0  0  0
  1  5  1  0  0  0  0
  2  5  2  0  0  0  0
  2  6  1  0  0  0  0
  3  4  1  0  0  0  0
  3 13  1  0  0  0  0
  4  6  2  0  0  0  0
  4 14  1  0  0  0  0
  5 18  1  0  0  0  0
  6 19  1  0  0  0  0
  7  8  1  0  0  0  0
  7 14  1  0  0  0  0
  7 15  2  0  0  0  0
  8 11  1  0  0  0  0
  9 10  1  0  0  0  0
  9 12  1  0  0  0  0
 10 16  1  0  0  0  0
 11 17  1  0  0  0  0
 12 17  1  0  0  0  0
  1 20  1  0  0  0  0
  2 21  1  0  0  0  0
  8 22  1  0  0  0  0
  8 23  1  0  0  0  0
  9 24  1  0  0  0  0
  9 25  1  0  0  0  0
 10 26  1  0  0  0  0
 10 27  1  0  0  0  0
 11 28  1  0  0  0  0
 11 29  1  0  0  0  0
 12 30  1  0  0  0  0
 12 31  1  0  0  0  0
 13 32  1  0  0  0  0
 13 33  1  0  0  0  0
 14 34  1  0  0  0  0
 16 35  1  0  0  0  0
M  END
> <FRED Chemgauss4 score>
-9.935796

$$$$
C05103731	P07540286
  -OEChem-05122015313D

 51 55  0     1  0  0  0  0  0999 V2000
  123.7302  108.3811  110.0712 C   0  0  0  0  0  0  0  0  0  0  0  0
  122.5242  108.0847  109.4296 C   0  0  0  0  0  0  0  0  0  0  0  0
  124.8754  107.6483  109.7815 C   0  0  0  0  0  0  0  0  0  0  0  0
  122.4373  107.0424  108.4910 C   0  0  0  0  0  0  0  0  0  0  0  0
  123.6053  106.3035  108.2132 C   0  0  0  0  0  0  0  0  0  0  0  0
  124.8159  106.6162  108.8502 C   0  0  0  0  0  0  0  0  0  0  0  0
  118.8176  107.3293  107.0808 C   0  0  0  0  0  0  0  0  0  0  0  0
  121.1702  106.7127  107.7747 C   0  0  0  0  0  0  0  0  0  0  0  0
  118.6730  106.1742  106.4135 C   0  0  0  0  0  0  0  0  0  0  0  0
  121.0572  105.5386  107.1095 C   0  0  0  0  0  0  0  0  0  0  0  0
  123.5737  105.2190  107.1726 C   0  0  0  0  0  0  0  0  0  0  0  0
  120.0402  107.7074  107.8500 C   0  0  0  0  0  0  0  0  0  0  0  0
  117.4097  105.9026  105.6216 C   0  0  0  0  0  0  0  0  0  0  0  0
  122.2069  104.5442  107.1187 C   0  0  0  0  0  0  0  0  0  0  0  0
  120.1230  104.8445  104.8559 C   0  0  0  0  0  0  0  0  0  0  0  0
  119.1665  105.4710  103.8326 C   0  0  0  0  0  0  0  0  0  0  0  0
  116.2652  104.9998  102.4883 C   0  0  0  0  0  0  0  0  0  0  0  0
  116.1343  103.8633  103.4624 C   0  0  0  0  0  0  0  0  0  0  0  0
  119.7753  105.1187  106.3544 C   0  0  2  0  0  0  0  0  0  0  0  0
  117.6971  105.3230  104.2253 C   0  0  0  0  0  0  0  0  0  0  0  0
  119.2445  103.8313  107.0323 C   0  0  0  0  0  0  0  0  0  0  0  0
  126.7773  106.3974  107.5236 C   0  0  0  0  0  0  0  0  0  0  0  0
  116.8894  106.0242  103.2603 O   0  0  0  0  0  0  0  0  0  0  0  0
  117.3542  103.9250  104.1984 O   0  0  0  0  0  0  0  0  0  0  0  0
  125.9557  105.9159  108.5842 O   0  0  0  0  0  0  0  0  0  0  0  0
  123.7705  109.1840  110.8017 H   0  0  0  0  0  0  0  0  0  0  0  0
  121.6626  108.6934  109.6867 H   0  0  0  0  0  0  0  0  0  0  0  0
  125.8070  107.8804  110.2900 H   0  0  0  0  0  0  0  0  0  0  0  0
  118.0210  108.0691  107.0574 H   0  0  0  0  0  0  0  0  0  0  0  0
  123.7973  105.6153  106.1766 H   0  0  0  0  0  0  0  0  0  0  0  0
  124.3470  104.4814  107.4181 H   0  0  0  0  0  0  0  0  0  0  0  0
  120.3700  108.6697  107.4406 H   0  0  0  0  0  0  0  0  0  0  0  0
  119.7558  107.8639  108.8974 H   0  0  0  0  0  0  0  0  0  0  0  0
  116.7593  105.2168  106.1854 H   0  0  0  0  0  0  0  0  0  0  0  0
  116.8172  106.8250  105.5080 H   0  0  0  0  0  0  0  0  0  0  0  0
  122.1456  103.8603  107.9687 H   0  0  0  0  0  0  0  0  0  0  0  0
  122.1300  103.9290  106.2140 H   0  0  0  0  0  0  0  0  0  0  0  0
  120.1518  103.7596  104.6618 H   0  0  0  0  0  0  0  0  0  0  0  0
  121.1453  105.2064  104.6464 H   0  0  0  0  0  0  0  0  0  0  0  0
  119.4176  106.5370  103.7287 H   0  0  0  0  0  0  0  0  0  0  0  0
  119.3373  105.0323  102.8391 H   0  0  0  0  0  0  0  0  0  0  0  0
  116.9318  104.7452  101.6573 H   0  0  0  0  0  0  0  0  0  0  0  0
  115.3070  105.3439  102.0910 H   0  0  0  0  0  0  0  0  0  0  0  0
  115.3058  104.0226  104.1604 H   0  0  0  0  0  0  0  0  0  0  0  0
  116.0208  102.8895  102.9809 H   0  0  0  0  0  0  0  0  0  0  0  0
  120.0173  103.0752  106.9967 H   0  0  0  0  0  0  0  0  0  0  0  0
  118.3669  103.4931  106.4978 H   0  0  0  0  0  0  0  0  0  0  0  0
  118.9914  104.0580  108.0594 H   0  0  0  0  0  0  0  0  0  0  0  0
  127.6514  105.7505  107.4163 H   0  0  0  0  0  0  0  0  0  0  0  0
  127.0927  107.4209  107.7418 H   0  0  0  0  0  0  0  0  0  0  0  0
  126.2020  106.3857  106.5948 H   0  0  0  0  0  0  0  0  0  0  0  0
  1  2  1  0  0  0  0
  1  3  2  0  0  0  0
  2  4  2  0  0  0  0
  3  6  1  0  0  0  0
  4  5  1  0  0  0  0
  4  8  1  0  0  0  0
  5  6  2  0  0  0  0
  5 11  1  0  0  0  0
  6 25  1  0  0  0  0
  7  9  2  0  0  0  0
  7 12  1  0  0  0  0
  8 10  2  0  0  0  0
  8 12  1  0  0  0  0
  9 13  1  0  0  0  0
  9 19  1  0  0  0  0
 10 14  1  0  0  0  0
 10 19  1  0  0  0  0
 11 14  1  0  0  0  0
 13 20  1  0  0  0  0
 15 16  1  0  0  0  0
 15 19  1  0  0  0  0
 16 20  1  0  0  0  0
 17 18  1  0  0  0  0
 17 23  1  0  0  0  0
 18 24  1  0  0  0  0
 19 21  1  0  0  0  0
 20 23  1  0  0  0  0
 20 24  1  0  0  0  0
 22 25  1  0  0  0  0
  1 26  1  0  0  0  0
  2 27  1  0  0  0  0
  3 28  1  0  0  0  0
  7 29  1  0  0  0  0
 11 30  1  0  0  0  0
 11 31  1  0  0  0  0
 12 32  1  0  0  0  0
 12 33  1  0  0  0  0
 13 34  1  0  0  0  0
 13 35  1  0  0  0  0
 14 36  1  0  0  0  0
 14 37  1  0  0  0  0
 15 38  1  0  0  0  0
 15 39  1  0  0  0  0
 16 40  1  0  0  0  0
 16 41  1  0  0  0  0
 17 42  1  0  0  0  0
 17 43  1  0  0  0  0
 18 44  1  0  0  0  0
 18 45  1  0  0  0  0
 21 46  1  0  0  0  0
 21 47  1  0  0  0  0
 21 48  1  0  0  0  0
 22 49  1  0  0  0  0
 22 50  1  0  0  0  0
 22 51  1  0  0  0  0
M  END
> <FRED Chemgauss4 score>
-9.933146

$$$$
C75848109	P118209303
  -OEChem-05122015313D

 18 18  0     0  0  0  0  0  0999 V2000
  125.9755  104.8746  107.8047 C   0  0  0  0  0  0  0  0  0  0  0  0
  125.3902  105.3075  108.9711 C   0  0  0  0  0  0  0  0  0  0  0  0
  125.8161  106.9883  107.6109 C   0  0  0  0  0  0  0  0  0  0  0  0
  125.9020  108.3137  107.0864 C   0  0  0  0  0  0  0  0  0  0  0  0
  124.7416  107.5751  109.8056 C   0  0  0  0  0  0  0  0  0  0  0  0
  126.2384  105.9257  106.9623 N   0  0  0  0  0  0  0  0  0  0  0  0
  125.2949  106.6636  108.8324 N   0  0  0  0  0  0  0  0  0  0  0  0
  125.2732  108.6310  105.9244 N   0  0  0  0  0  0  0  0  0  0  0  0
  126.6140  109.2632  107.7450 N   0  3  0  0  0  0  0  0  0  0  0  0
  124.5126  107.7407  105.1208 O   0  5  0  0  0  0  0  0  0  0  0  0
  126.2210  103.8595  107.5286 H   0  0  0  0  0  0  0  0  0  0  0  0
  125.0462  104.7868  109.8539 H   0  0  0  0  0  0  0  0  0  0  0  0
  125.5521  107.8981  110.4643 H   0  0  0  0  0  0  0  0  0  0  0  0
  124.3017  108.4340  109.2912 H   0  0  0  0  0  0  0  0  0  0  0  0
  123.9630  107.0634  110.3783 H   0  0  0  0  0  0  0  0  0  0  0  0
  125.3363  109.5732  105.5550 H   0  0  0  0  0  0  0  0  0  0  0  0
  127.0944  109.0672  108.6163 H   0  0  0  0  0  0  0  0  0  0  0  0
  126.6681  110.2042  107.3711 H   0  0  0  0  0  0  0  0  0  0  0  0
  1  2  2  0  0  0  0
  1  6  1  0  0  0  0
  2  7  1  0  0  0  0
  3  4  1  0  0  0  0
  3  6  2  0  0  0  0
  3  7  1  0  0  0  0
  4  8  1  0  0  0  0
  4  9  2  0  0  0  0
  5  7  1  0  0  0  0
  8 10  1  0  0  0  0
  1 11  1  0  0  0  0
  2 12  1  0  0  0  0
  5 13  1  0  0  0  0
  5 14  1  0  0  0  0
  5 15  1  0  0  0  0
  8 16  1  0  0  0  0
  9 17  1  0  0  0  0
  9 18  1  0  0  0  0
M  CHG  2   9   1  10  -1
M  END
> <FRED Chemgauss4 score>
-9.926155

$$$$
C94090967	P147456094
  -OEChem-05122015313D

 38 40  0     1  0  0  0  0  0999 V2000
  124.1565  107.3274  106.4095 C   0  0  0  0  0  0  0  0  0  0  0  0
  125.1378  108.2040  106.8786 C   0  0  0  0  0  0  0  0  0  0  0  0
  126.2482  106.3970  108.0672 C   0  0  0  0  0  0  0  0  0  0  0  0
  117.8684  105.4335  104.3977 C   0  0  0  0  0  0  0  0  0  0  0  0
  124.2224  105.9955  106.7894 C   0  0  0  0  0  0  0  0  0  0  0  0
  125.2638  105.5373  107.6080 C   0  0  0  0  0  0  0  0  0  0  0  0
  126.1756  107.7424  107.7023 C   0  0  0  0  0  0  0  0  0  0  0  0
  118.5237  104.0532  105.9711 C   0  0  0  0  0  0  0  0  0  0  0  0
  119.7629  104.4418  105.5068 C   0  0  0  0  0  0  0  0  0  0  0  0
  125.1627  104.0612  107.8313 C   0  0  0  0  0  0  0  0  0  0  0  0
  123.6984  103.8034  107.4501 C   0  0  0  0  0  0  0  0  0  0  0  0
  123.3281  104.8578  106.3898 C   0  0  1  0  0  0  0  0  0  0  0  0
  118.2669  103.0973  107.0677 C   0  0  0  0  0  0  0  0  0  0  0  0
  121.5124  105.5729  107.7580 C   0  0  0  0  0  0  0  0  0  0  0  0
  121.1358  104.0308  105.9544 C   0  0  0  0  0  0  0  0  0  0  0  0
  117.4362  104.6212  105.3366 N   0  0  0  0  0  0  0  0  0  0  0  0
  127.1522  108.6487  108.1695 N   0  0  0  0  0  0  0  0  0  0  0  0
  121.9273  105.1732  106.4127 N   0  0  2  0  0  0  0  0  0  0  0  0
  119.5707  105.5621  104.2225 S   0  0  0  0  0  0  0  0  0  0  0  0
  123.3612  107.6871  105.7639 H   0  0  0  0  0  0  0  0  0  0  0  0
  125.0853  109.2544  106.6008 H   0  0  0  0  0  0  0  0  0  0  0  0
  127.0534  106.0279  108.6952 H   0  0  0  0  0  0  0  0  0  0  0  0
  117.1930  105.9925  103.7648 H   0  0  0  0  0  0  0  0  0  0  0  0
  125.8466  103.4944  107.1927 H   0  0  0  0  0  0  0  0  0  0  0  0
  125.3493  103.8242  108.8841 H   0  0  0  0  0  0  0  0  0  0  0  0
  123.6198  102.8048  106.9969 H   0  0  0  0  0  0  0  0  0  0  0  0
  123.0348  103.8038  108.3214 H   0  0  0  0  0  0  0  0  0  0  0  0
  123.6137  104.4770  105.3842 H   0  0  0  0  0  0  0  0  0  0  0  0
  118.2091  103.6148  108.0388 H   0  0  0  0  0  0  0  0  0  0  0  0
  117.3218  102.5476  106.9230 H   0  0  0  0  0  0  0  0  0  0  0  0
  119.0576  102.3318  107.1412 H   0  0  0  0  0  0  0  0  0  0  0  0
  120.4457  105.8111  107.7669 H   0  0  0  0  0  0  0  0  0  0  0  0
  122.0727  106.4549  108.0799 H   0  0  0  0  0  0  0  0  0  0  0  0
  121.6978  104.7618  108.4673 H   0  0  0  0  0  0  0  0  0  0  0  0
  121.0740  103.3111  106.7781 H   0  0  0  0  0  0  0  0  0  0  0  0
  121.6861  103.5471  105.1406 H   0  0  0  0  0  0  0  0  0  0  0  0
  127.1165  109.6003  107.8671 H   0  0  0  0  0  0  0  0  0  0  0  0
  127.9136  108.3033  108.7164 H   0  0  0  0  0  0  0  0  0  0  0  0
  1  2  1  0  0  0  0
  1  5  2  0  0  0  0
  2  7  2  0  0  0  0
  3  6  2  0  0  0  0
  3  7  1  0  0  0  0
  4 16  2  0  0  0  0
  4 19  1  0  0  0  0
  5  6  1  0  0  0  0
  5 12  1  0  0  0  0
  6 10  1  0  0  0  0
  7 17  1  0  0  0  0
  8  9  2  0  0  0  0
  8 13  1  0  0  0  0
  8 16  1  0  0  0  0
  9 15  1  0  0  0  0
  9 19  1  0  0  0  0
 10 11  1  0  0  0  0
 11 12  1  0  0  0  0
 12 18  1  0  0  0  0
 14 18  1  0  0  0  0
 15 18  1  0  0  0  0
  1 20  1  0  0  0  0
  2 21  1  0  0  0  0
  3 22  1  0  0  0  0
  4 23  1  0  0  0  0
 10 24  1  0  0  0  0
 10 25  1  0  0  0  0
 11 26  1  0  0  0  0
 11 27  1  0  0  0  0
 12 28  1  0  0  0  0
 13 29  1  0  0  0  0
 13 30  1  0  0  0  0
 13 31  1  0  0  0  0
 14 32  1  0  0  0  0
 14 33  1  0  0  0  0
 14 34  1  0  0  0  0
 15 35  1  0  0  0  0
 15 36  1  0  0  0  0
 17 37  1  0  0  0  0
 17 38  1  0  0  0  0
M  END
> <FRED Chemgauss4 score>
-9.925644

$$$$
GPNA	P10000029
  -OEChem-05122015313D

 32 32  0     1  0  0  0  0  0999 V2000
  119.8893  103.8964  106.8149 C   0  0  0  0  0  0  0  0  0  0  0  0
  120.0863  105.5309  105.0467 C   0  0  0  0  0  0  0  0  0  0  0  0
  118.5297  103.7581  106.5356 C   0  0  0  0  0  0  0  0  0  0  0  0
  118.7267  105.3926  104.7673 C   0  0  0  0  0  0  0  0  0  0  0  0
  120.6676  104.7829  106.0705 C   0  0  0  0  0  0  0  0  0  0  0  0
  117.9484  104.5061  105.5118 C   0  0  0  0  0  0  0  0  0  0  0  0
  122.9642  105.7540  105.7164 C   0  0  0  0  0  0  0  0  0  0  0  0
  124.5581  109.0451  108.2140 C   0  0  0  0  0  0  0  0  0  0  0  0
  124.3470  105.5964  106.3348 C   0  0  0  0  0  0  0  0  0  0  0  0
  124.5862  106.5668  107.4938 C   0  0  0  0  0  0  0  0  0  0  0  0
  124.3935  108.0273  107.0744 C   0  0  2  0  0  0  0  0  0  0  0  0
  122.0469  104.9233  106.3539 N   0  0  0  0  0  0  0  0  0  0  0  0
  116.5644  104.3652  105.2274 N   0  3  0  0  0  0  0  0  0  0  0  0
  125.3664  108.2909  105.9663 N   0  3  0  0  0  0  0  0  0  0  0  0
  125.0337  110.1606  107.8557 O   0  5  0  0  0  0  0  0  0  0  0  0
  115.8823  103.5622  105.9089 O   0  5  0  0  0  0  0  0  0  0  0  0
  122.7501  106.5257  104.7873 O   0  0  0  0  0  0  0  0  0  0  0  0
  124.1894  108.6610  109.3587 O   0  0  0  0  0  0  0  0  0  0  0  0
  116.0612  105.0475  104.3023 O   0  0  0  0  0  0  0  0  0  0  0  0
  120.3318  103.3084  107.6151 H   0  0  0  0  0  0  0  0  0  0  0  0
  120.6832  106.2247  104.4601 H   0  0  0  0  0  0  0  0  0  0  0  0
  117.9346  103.0636  107.1235 H   0  0  0  0  0  0  0  0  0  0  0  0
  118.2862  105.9816  103.9666 H   0  0  0  0  0  0  0  0  0  0  0  0
  125.0935  105.7665  105.5495 H   0  0  0  0  0  0  0  0  0  0  0  0
  124.4464  104.5598  106.6765 H   0  0  0  0  0  0  0  0  0  0  0  0
  125.5936  106.4111  107.9012 H   0  0  0  0  0  0  0  0  0  0  0  0
  123.8878  106.3231  108.3059 H   0  0  0  0  0  0  0  0  0  0  0  0
  123.4026  108.1493  106.6208 H   0  0  0  0  0  0  0  0  0  0  0  0
  122.4108  104.3501  107.1123 H   0  0  0  0  0  0  0  0  0  0  0  0
  125.2324  109.2323  105.5959 H   0  0  0  0  0  0  0  0  0  0  0  0
  125.2294  107.6187  105.2104 H   0  0  0  0  0  0  0  0  0  0  0  0
  126.3236  108.2070  106.3103 H   0  0  0  0  0  0  0  0  0  0  0  0
  1  3  1  0  0  0  0
  1  5  2  0  0  0  0
  2  4  2  0  0  0  0
  2  5  1  0  0  0  0
  3  6  2  0  0  0  0
  4  6  1  0  0  0  0
  5 12  1  0  0  0  0
  6 13  1  0  0  0  0
  7  9  1  0  0  0  0
  7 12  1  0  0  0  0
  7 17  2  0  0  0  0
  8 11  1  0  0  0  0
  8 15  1  0  0  0  0
  8 18  2  0  0  0  0
  9 10  1  0  0  0  0
 10 11  1  0  0  0  0
 11 14  1  0  0  0  0
 13 16  1  0  0  0  0
 13 19  2  0  0  0  0
  1 20  1  0  0  0  0
  2 21  1  0  0  0  0
  3 22  1  0  0  0  0
  4 23  1  0  0  0  0
  9 24  1  0  0  0  0
  9 25  1  0  0  0  0
 10 26  1  0  0  0  0
 10 27  1  0  0  0  0
 11 28  1  0  0  0  0
 12 29  1  0  0  0  0
 14 30  1  0  0  0  0
 14 31  1  0  0  0  0
 14 32  1  0  0  0  0
M  CHG  4  13   1  14   1  15  -1  16  -1
M  END
> <FRED Chemgauss4 score>
-9.921970

$$$$
C95891368	P150946078
  -OEChem-05122015313D

 21 22  0     1  0  0  0  0  0999 V2000
  124.7373  106.6164  106.3734 C   0  0  0  0  0  0  0  0  0  0  0  0
  125.9289  105.7819  108.3058 C   0  0  0  0  0  0  0  0  0  0  0  0
  126.0325  108.0537  107.6117 C   0  0  0  0  0  0  0  0  0  0  0  0
  125.2847  103.5845  108.2717 C   0  0  0  0  0  0  0  0  0  0  0  0
  125.5240  105.4501  106.9318 C   0  0  1  0  0  0  0  0  0  0  0  0
  124.8061  103.3573  105.8972 C   0  0  0  0  0  0  0  0  0  0  0  0
  125.3221  107.8638  106.5436 N   0  0  0  0  0  0  0  0  0  0  0  0
  126.5658  109.2314  107.8878 N   0  5  0  0  0  0  0  0  0  0  0  0
  126.2658  107.0278  108.5852 N   0  0  0  0  0  0  0  0  0  0  0  0
  124.7245  104.2262  107.0632 N   0  0  1  0  0  0  0  0  0  0  0  0
  125.8609  104.6914  109.0549 N   0  3  0  0  0  0  0  0  0  0  0  0
  123.6941  106.4564  105.7446 O   0  0  0  0  0  0  0  0  0  0  0  0
  124.4997  103.0967  108.8560 H   0  0  0  0  0  0  0  0  0  0  0  0
  126.0912  102.8760  108.0529 H   0  0  0  0  0  0  0  0  0  0  0  0
  126.4193  105.2957  106.3151 H   0  0  0  0  0  0  0  0  0  0  0  0
  124.3846  103.8607  105.0232 H   0  0  0  0  0  0  0  0  0  0  0  0
  124.2484  102.4337  106.0743 H   0  0  0  0  0  0  0  0  0  0  0  0
  125.8485  103.1026  105.6878 H   0  0  0  0  0  0  0  0  0  0  0  0
  126.9912  109.1902  108.8182 H   0  0  0  0  0  0  0  0  0  0  0  0
  126.6543  107.2312  109.5005 H   0  0  0  0  0  0  0  0  0  0  0  0
  126.1156  104.7127  110.0357 H   0  0  0  0  0  0  0  0  0  0  0  0
  1  5  1  0  0  0  0
  1  7  1  0  0  0  0
  1 12  2  0  0  0  0
  2  5  1  0  0  0  0
  2  9  1  0  0  0  0
  2 11  2  0  0  0  0
  3  7  2  0  0  0  0
  3  8  1  0  0  0  0
  3  9  1  0  0  0  0
  4 10  1  0  0  0  0
  4 11  1  0  0  0  0
  5 10  1  0  0  0  0
  6 10  1  0  0  0  0
  4 13  1  0  0  0  0
  4 14  1  0  0  0  0
  5 15  1  0  0  0  0
  6 16  1  0  0  0  0
  6 17  1  0  0  0  0
  6 18  1  0  0  0  0
  8 19  1  0  0  0  0
  9 20  1  0  0  0  0
 11 21  1  0  0  0  0
M  CHG  2   8  -1  11   1
M  END
> <FRED Chemgauss4 score>
-9.921406

$$$$
C97526444	P154508284
  -OEChem-05122015313D

 34 35  0     1  0  0  0  0  0999 V2000
  118.9738  106.7519  104.5322 C   0  0  0  0  0  0  0  0  0  0  0  0
  117.7904  106.2563  103.9850 C   0  0  0  0  0  0  0  0  0  0  0  0
  117.8968  104.3572  105.4746 C   0  0  0  0  0  0  0  0  0  0  0  0
  125.0973  107.5828  106.0531 C   0  0  0  0  0  0  0  0  0  0  0  0
  119.6188  106.0501  105.5507 C   0  0  0  0  0  0  0  0  0  0  0  0
  119.0802  104.8528  106.0219 C   0  0  0  0  0  0  0  0  0  0  0  0
  117.2518  105.0590  104.4561 C   0  0  0  0  0  0  0  0  0  0  0  0
  123.4271  106.3355  106.1635 C   0  0  0  0  0  0  0  0  0  0  0  0
  125.0926  103.6973  107.6576 C   0  0  0  0  0  0  0  0  0  0  0  0
  122.1038  105.6273  105.9834 C   0  0  0  0  0  0  0  0  0  0  0  0
  124.2627  104.9028  108.0645 C   0  0  0  0  0  0  0  0  0  0  0  0
  120.8843  106.5822  106.1338 C   0  0  2  0  0  0  0  0  0  0  0  0
  123.8784  107.3608  105.4789 N   0  0  0  0  0  0  0  0  0  0  0  0
  125.4285  106.7594  107.0499 N   0  0  0  0  0  0  0  0  0  0  0  0
  124.3436  105.9716  107.1002 N   0  0  0  0  0  0  0  0  0  0  0  0
  120.1143  108.2116  107.6239 N   0  0  0  0  0  0  0  0  0  0  0  0
  120.7269  106.9312  107.5626 N   0  0  0  0  0  0  0  0  0  0  0  0
  119.6933  104.1713  106.9997 F   0  0  0  0  0  0  0  0  0  0  0  0
  115.7913  104.4487  103.7809 Cl  0  0  0  0  0  0  0  0  0  0  0  0
  119.3861  107.6856  104.1590 H   0  0  0  0  0  0  0  0  0  0  0  0
  117.2995  106.8138  103.1913 H   0  0  0  0  0  0  0  0  0  0  0  0
  117.4886  103.4231  105.8519 H   0  0  0  0  0  0  0  0  0  0  0  0
  125.7648  108.3693  105.7352 H   0  0  0  0  0  0  0  0  0  0  0  0
  124.7643  103.2986  106.6918 H   0  0  0  0  0  0  0  0  0  0  0  0
  124.9991  102.9028  108.4043 H   0  0  0  0  0  0  0  0  0  0  0  0
  126.1522  103.9588  107.5678 H   0  0  0  0  0  0  0  0  0  0  0  0
  122.0574  104.8171  106.7247 H   0  0  0  0  0  0  0  0  0  0  0  0
  122.0831  105.1276  105.0059 H   0  0  0  0  0  0  0  0  0  0  0  0
  124.5984  105.2943  109.0314 H   0  0  0  0  0  0  0  0  0  0  0  0
  123.2079  104.6263  108.1741 H   0  0  0  0  0  0  0  0  0  0  0  0
  121.1526  107.5333  105.6360 H   0  0  0  0  0  0  0  0  0  0  0  0
  119.8416  108.5091  106.6876 H   0  0  0  0  0  0  0  0  0  0  0  0
  119.2465  108.1190  108.1504 H   0  0  0  0  0  0  0  0  0  0  0  0
  121.6458  106.9631  107.9851 H   0  0  0  0  0  0  0  0  0  0  0  0
  1  2  2  0  0  0  0
  1  5  1  0  0  0  0
  2  7  1  0  0  0  0
  3  6  1  0  0  0  0
  3  7  2  0  0  0  0
  4 13  1  0  0  0  0
  4 14  2  0  0  0  0
  5  6  2  0  0  0  0
  5 12  1  0  0  0  0
  6 18  1  0  0  0  0
  7 19  1  0  0  0  0
  8 10  1  0  0  0  0
  8 13  2  0  0  0  0
  8 15  1  0  0  0  0
  9 11  1  0  0  0  0
 10 12  1  0  0  0  0
 11 15  1  0  0  0  0
 12 17  1  0  0  0  0
 14 15  1  0  0  0  0
 16 17  1  0  0  0  0
  1 20  1  0  0  0  0
  2 21  1  0  0  0  0
  3 22  1  0  0  0  0
  4 23  1  0  0  0  0
  9 24  1  0  0  0  0
  9 25  1  0  0  0  0
  9 26  1  0  0  0  0
 10 27  1  0  0  0  0
 10 28  1  0  0  0  0
 11 29  1  0  0  0  0
 11 30  1  0  0  0  0
 12 31  1  0  0  0  0
 16 32  1  0  0  0  0
 16 33  1  0  0  0  0
 17 34  1  0  0  0  0
M  END
> <FRED Chemgauss4 score>
-9.919634

$$$$
C89832756	P140428014
  -OEChem-05122015313D

 46 48  0     1  0  0  0  0  0999 V2000
  123.6348  107.0557  109.3041 C   0  0  0  0  0  0  0  0  0  0  0  0
  120.4081  103.7310  106.1857 C   0  0  0  0  0  0  0  0  0  0  0  0
  124.6577  106.4229  108.5582 C   0  0  0  0  0  0  0  0  0  0  0  0
  121.0848  104.9130  105.9689 C   0  0  0  0  0  0  0  0  0  0  0  0
  123.7680  108.4042  109.0675 C   0  0  0  0  0  0  0  0  0  0  0  0
  125.3429  107.4297  107.9188 C   0  0  0  0  0  0  0  0  0  0  0  0
  118.7459  104.9218  105.3925 C   0  0  0  0  0  0  0  0  0  0  0  0
  122.5103  105.2576  106.2059 C   0  0  0  0  0  0  0  0  0  0  0  0
  115.5925  104.7252  103.5025 C   0  0  0  0  0  0  0  0  0  0  0  0
  117.0828  104.9587  103.4761 C   0  0  0  0  0  0  0  0  0  0  0  0
  115.4042  104.0540  104.8453 C   0  0  0  0  0  0  0  0  0  0  0  0
  117.3676  105.3115  104.9287 C   0  0  1  0  0  0  0  0  0  0  0  0
  123.0296  109.5852  109.5358 C   0  0  0  0  0  0  0  0  0  0  0  0
  126.4962  107.4452  107.0069 C   0  0  0  0  0  0  0  0  0  0  0  0
  126.3606  104.5980  108.9826 C   0  0  0  0  0  0  0  0  0  0  0  0
  124.6978  104.4312  107.0353 C   0  0  0  0  0  0  0  0  0  0  0  0
  124.9412  104.9190  108.4830 C   0  0  2  0  0  0  0  0  0  0  0  0
  119.0667  103.7343  105.8562 N   0  0  0  0  0  0  0  0  0  0  0  0
  123.2822  104.2415  106.7234 N   0  0  0  0  0  0  0  0  0  0  0  0
  122.9024  106.3944  105.9560 O   0  0  0  0  0  0  0  0  0  0  0  0
  124.8068  108.6405  108.2239 O   0  0  0  0  0  0  0  0  0  0  0  0
  116.3917  104.6107  105.7255 O   0  0  0  0  0  0  0  0  0  0  0  0
  124.0333  104.2227  109.3482 O   0  0  0  0  0  0  0  0  0  0  0  0
  120.0082  106.0823  105.3246 S   0  0  0  0  0  0  0  0  0  0  0  0
  122.8934  106.5887  109.9372 H   0  0  0  0  0  0  0  0  0  0  0  0
  120.8458  102.8263  106.5869 H   0  0  0  0  0  0  0  0  0  0  0  0
  115.0676  105.6875  103.4884 H   0  0  0  0  0  0  0  0  0  0  0  0
  115.2274  104.1214  102.6678 H   0  0  0  0  0  0  0  0  0  0  0  0
  117.5953  104.0355  103.1755 H   0  0  0  0  0  0  0  0  0  0  0  0
  117.3864  105.7492  102.7825 H   0  0  0  0  0  0  0  0  0  0  0  0
  114.4063  104.2181  105.2613 H   0  0  0  0  0  0  0  0  0  0  0  0
  115.5839  102.9755  104.7797 H   0  0  0  0  0  0  0  0  0  0  0  0
  117.2192  106.3930  105.1057 H   0  0  0  0  0  0  0  0  0  0  0  0
  123.4622  109.9882  110.4690 H   0  0  0  0  0  0  0  0  0  0  0  0
  123.0302  110.4035  108.7920 H   0  0  0  0  0  0  0  0  0  0  0  0
  121.9646  109.3632  109.7352 H   0  0  0  0  0  0  0  0  0  0  0  0
  126.1771  107.3706  105.9522 H   0  0  0  0  0  0  0  0  0  0  0  0
  127.0969  108.3680  107.1058 H   0  0  0  0  0  0  0  0  0  0  0  0
  127.1951  106.6105  107.2003 H   0  0  0  0  0  0  0  0  0  0  0  0
  126.5694  103.5231  108.9312 H   0  0  0  0  0  0  0  0  0  0  0  0
  126.4719  104.8773  110.0374 H   0  0  0  0  0  0  0  0  0  0  0  0
  127.1343  105.1180  108.4089 H   0  0  0  0  0  0  0  0  0  0  0  0
  125.2135  103.4806  106.8569 H   0  0  0  0  0  0  0  0  0  0  0  0
  125.1043  105.1608  106.3236 H   0  0  0  0  0  0  0  0  0  0  0  0
  122.8890  103.3468  106.9672 H   0  0  0  0  0  0  0  0  0  0  0  0
  124.1957  104.5662  110.2376 H   0  0  0  0  0  0  0  0  0  0  0  0
  1  3  1  0  0  0  0
  1  5  2  0  0  0  0
  2  4  2  0  0  0  0
  2 18  1  0  0  0  0
  3  6  2  0  0  0  0
  3 17  1  0  0  0  0
  4  8  1  0  0  0  0
  4 24  1  0  0  0  0
  5 13  1  0  0  0  0
  5 21  1  0  0  0  0
  6 14  1  0  0  0  0
  6 21  1  0  0  0  0
  7 12  1  0  0  0  0
  7 18  2  0  0  0  0
  7 24  1  0  0  0  0
  8 19  1  0  0  0  0
  8 20  2  0  0  0  0
  9 10  1  0  0  0  0
  9 11  1  0  0  0  0
 10 12  1  0  0  0  0
 11 22  1  0  0  0  0
 12 22  1  0  0  0  0
 15 17  1  0  0  0  0
 16 17  1  0  0  0  0
 16 19  1  0  0  0  0
 17 23  1  0  0  0  0
  1 25  1  0  0  0  0
  2 26  1  0  0  0  0
  9 27  1  0  0  0  0
  9 28  1  0  0  0  0
 10 29  1  0  0  0  0
 10 30  1  0  0  0  0
 11 31  1  0  0  0  0
 11 32  1  0  0  0  0
 12 33  1  0  0  0  0
 13 34  1  0  0  0  0
 13 35  1  0  0  0  0
 13 36  1  0  0  0  0
 14 37  1  0  0  0  0
 14 38  1  0  0  0  0
 14 39  1  0  0  0  0
 15 40  1  0  0  0  0
 15 41  1  0  0  0  0
 15 42  1  0  0  0  0
 16 43  1  0  0  0  0
 16 44  1  0  0  0  0
 19 45  1  0  0  0  0
 23 46  1  0  0  0  0
M  END
> <FRED Chemgauss4 score>
-9.918533

$$$$
BenzylSerine	P10000007
  -OEChem-05122015313D

 27 27  0     1  0  0  0  0  0999 V2000
  119.2027  106.2290  106.7203 C   0  0  0  0  0  0  0  0  0  0  0  0
  119.9021  105.0543  106.4436 C   0  0  0  0  0  0  0  0  0  0  0  0
  119.7987  107.2318  107.4851 C   0  0  0  0  0  0  0  0  0  0  0  0
  121.1974  104.8824  106.9317 C   0  0  0  0  0  0  0  0  0  0  0  0
  121.0939  107.0599  107.9733 C   0  0  0  0  0  0  0  0  0  0  0  0
  121.7934  105.8852  107.6966 C   0  0  0  0  0  0  0  0  0  0  0  0
  126.6339  107.0419  107.2734 C   0  0  0  0  0  0  0  0  0  0  0  0
  123.1866  105.7008  108.2222 C   0  0  0  0  0  0  0  0  0  0  0  0
  124.9223  106.9326  109.2188 C   0  0  0  0  0  0  0  0  0  0  0  0
  126.1346  106.3112  108.5319 C   0  0  2  0  0  0  0  0  0  0  0  0
  127.2032  106.1304  109.5656 N   0  3  0  0  0  0  0  0  0  0  0  0
  126.9736  108.2482  107.4240 O   0  5  0  0  0  0  0  0  0  0  0  0
  126.6263  106.3417  106.2197 O   0  0  0  0  0  0  0  0  0  0  0  0
  123.8144  106.9710  108.3276 O   0  0  0  0  0  0  0  0  0  0  0  0
  118.1947  106.3633  106.3390 H   0  0  0  0  0  0  0  0  0  0  0  0
  119.4387  104.2738  105.8472 H   0  0  0  0  0  0  0  0  0  0  0  0
  119.2548  108.1470  107.6998 H   0  0  0  0  0  0  0  0  0  0  0  0
  121.7347  103.9638  106.7113 H   0  0  0  0  0  0  0  0  0  0  0  0
  121.5502  107.8466  108.5684 H   0  0  0  0  0  0  0  0  0  0  0  0
  123.1734  105.2261  109.2092 H   0  0  0  0  0  0  0  0  0  0  0  0
  123.7733  105.0647  107.5507 H   0  0  0  0  0  0  0  0  0  0  0  0
  125.1395  107.9567  109.5417 H   0  0  0  0  0  0  0  0  0  0  0  0
  124.6335  106.3524  110.1015 H   0  0  0  0  0  0  0  0  0  0  0  0
  125.8702  105.2942  108.2171 H   0  0  0  0  0  0  0  0  0  0  0  0
  127.5360  107.0385  109.8914 H   0  0  0  0  0  0  0  0  0  0  0  0
  127.9910  105.6149  109.1713 H   0  0  0  0  0  0  0  0  0  0  0  0
  126.8374  105.6098  110.3637 H   0  0  0  0  0  0  0  0  0  0  0  0
  1  2  1  0  0  0  0
  1  3  2  0  0  0  0
  2  4  2  0  0  0  0
  3  5  1  0  0  0  0
  4  6  1  0  0  0  0
  5  6  2  0  0  0  0
  6  8  1  0  0  0  0
  7 10  1  0  0  0  0
  7 12  1  0  0  0  0
  7 13  2  0  0  0  0
  8 14  1  0  0  0  0
  9 10  1  0  0  0  0
  9 14  1  0  0  0  0
 10 11  1  0  0  0  0
  1 15  1  0  0  0  0
  2 16  1  0  0  0  0
  3 17  1  0  0  0  0
  4 18  1  0  0  0  0
  5 19  1  0  0  0  0
  8 20  1  0  0  0  0
  8 21  1  0  0  0  0
  9 22  1  0  0  0  0
  9 23  1  0  0  0  0
 10 24  1  0  0  0  0
 11 25  1  0  0  0  0
 11 26  1  0  0  0  0
 11 27  1  0  0  0  0
M  CHG  2  11   1  12  -1
M  END
> <FRED Chemgauss4 score>
-9.911452

$$$$
C67822127	P104135382
  -OEChem-05122015313D

 48 50  0     1  0  0  0  0  0999 V2000
  120.7072  105.4494  104.0251 C   0  0  0  0  0  0  0  0  0  0  0  0
  121.6480  106.3961  105.7506 C   0  0  0  0  0  0  0  0  0  0  0  0
  124.3715  107.4128  106.4702 C   0  0  0  0  0  0  0  0  0  0  0  0
  119.9441  104.4703  103.2118 C   0  0  0  0  0  0  0  0  0  0  0  0
  126.6571  108.2878  107.2348 C   0  0  0  0  0  0  0  0  0  0  0  0
  126.3209  107.1134  108.1056 C   0  0  0  0  0  0  0  0  0  0  0  0
  120.4607  104.2319  106.2073 C   0  0  0  0  0  0  0  0  0  0  0  0
  118.5301  104.2327  103.7444 C   0  0  0  0  0  0  0  0  0  0  0  0
  118.9468  104.0298  106.1560 C   0  0  0  0  0  0  0  0  0  0  0  0
  125.8267  107.1661  106.6936 C   0  0  0  0  0  0  0  0  0  0  0  0
  119.2006  107.6282  107.2103 C   0  0  0  0  0  0  0  0  0  0  0  0
  119.8082  109.3227  108.9471 C   0  0  0  0  0  0  0  0  0  0  0  0
  121.6291  108.0020  107.7389 C   0  0  0  0  0  0  0  0  0  0  0  0
  122.0995  106.6491  107.1315 C   0  0  2  0  0  0  0  0  0  0  0  0
  120.1982  107.9852  108.3162 C   0  0  0  0  0  0  0  0  0  0  0  0
  121.2784  106.5646  103.6153 N   0  0  0  0  0  0  0  0  0  0  0  0
  121.8735  107.1626  104.7077 N   0  0  0  0  0  0  0  0  0  0  0  0
  120.9227  105.3124  105.3678 N   0  0  0  0  0  0  0  0  0  0  0  0
  118.4834  103.3720  104.9307 N   0  0  0  0  0  0  0  0  0  0  0  0
  126.3451  106.2596  105.6737 N   0  0  0  0  0  0  0  0  0  0  0  0
  123.5567  106.5794  107.1972 N   0  0  0  0  0  0  0  0  0  0  0  0
  124.0202  108.2956  105.6963 O   0  0  0  0  0  0  0  0  0  0  0  0
  119.8689  104.8559  102.1875 H   0  0  0  0  0  0  0  0  0  0  0  0
  120.4973  103.5255  103.1461 H   0  0  0  0  0  0  0  0  0  0  0  0
  126.1634  109.2287  107.4478 H   0  0  0  0  0  0  0  0  0  0  0  0
  127.6852  108.3933  106.9087 H   0  0  0  0  0  0  0  0  0  0  0  0
  127.1247  106.4337  108.3631 H   0  0  0  0  0  0  0  0  0  0  0  0
  125.6029  107.2687  108.9024 H   0  0  0  0  0  0  0  0  0  0  0  0
  120.7545  104.4452  107.2403 H   0  0  0  0  0  0  0  0  0  0  0  0
  120.9982  103.3268  105.9000 H   0  0  0  0  0  0  0  0  0  0  0  0
  118.0056  105.1786  103.9291 H   0  0  0  0  0  0  0  0  0  0  0  0
  117.9682  103.7152  102.9574 H   0  0  0  0  0  0  0  0  0  0  0  0
  118.6760  103.3720  106.9907 H   0  0  0  0  0  0  0  0  0  0  0  0
  118.4112  104.9736  106.3168 H   0  0  0  0  0  0  0  0  0  0  0  0
  119.2262  108.3729  106.4077 H   0  0  0  0  0  0  0  0  0  0  0  0
  118.1787  107.5980  107.6029 H   0  0  0  0  0  0  0  0  0  0  0  0
  119.4252  106.6497  106.7722 H   0  0  0  0  0  0  0  0  0  0  0  0
  119.8638  110.1370  108.2168 H   0  0  0  0  0  0  0  0  0  0  0  0
  120.4603  109.5741  109.7883 H   0  0  0  0  0  0  0  0  0  0  0  0
  118.7836  109.2852  109.3330 H   0  0  0  0  0  0  0  0  0  0  0  0
  121.6911  108.7803  106.9661 H   0  0  0  0  0  0  0  0  0  0  0  0
  122.3260  108.3196  108.5273 H   0  0  0  0  0  0  0  0  0  0  0  0
  121.7789  105.8487  107.8312 H   0  0  0  0  0  0  0  0  0  0  0  0
  120.1261  107.2074  109.0858 H   0  0  0  0  0  0  0  0  0  0  0  0
  117.5150  103.0834  105.0742 H   0  0  0  0  0  0  0  0  0  0  0  0
  126.6126  106.6458  104.7941 H   0  0  0  0  0  0  0  0  0  0  0  0
  126.2247  105.2792  105.8118 H   0  0  0  0  0  0  0  0  0  0  0  0
  123.9819  105.8918  107.8005 H   0  0  0  0  0  0  0  0  0  0  0  0
  1  4  1  0  0  0  0
  1 16  2  0  0  0  0
  1 18  1  0  0  0  0
  2 14  1  0  0  0  0
  2 17  2  0  0  0  0
  2 18  1  0  0  0  0
  3 10  1  0  0  0  0
  3 21  1  0  0  0  0
  3 22  2  0  0  0  0
  4  8  1  0  0  0  0
  5  6  1  0  0  0  0
  5 10  1  0  0  0  0
  6 10  1  0  0  0  0
  7  9  1  0  0  0  0
  7 18  1  0  0  0  0
  8 19  1  0  0  0  0
  9 19  1  0  0  0  0
 10 20  1  0  0  0  0
 11 15  1  0  0  0  0
 12 15  1  0  0  0  0
 13 14  1  0  0  0  0
 13 15  1  0  0  0  0
 14 21  1  0  0  0  0
 16 17  1  0  0  0  0
  4 23  1  0  0  0  0
  4 24  1  0  0  0  0
  5 25  1  0  0  0  0
  5 26  1  0  0  0  0
  6 27  1  0  0  0  0
  6 28  1  0  0  0  0
  7 29  1  0  0  0  0
  7 30  1  0  0  0  0
  8 31  1  0  0  0  0
  8 32  1  0  0  0  0
  9 33  1  0  0  0  0
  9 34  1  0  0  0  0
 11 35  1  0  0  0  0
 11 36  1  0  0  0  0
 11 37  1  0  0  0  0
 12 38  1  0  0  0  0
 12 39  1  0  0  0  0
 12 40  1  0  0  0  0
 13 41  1  0  0  0  0
 13 42  1  0  0  0  0
 14 43  1  0  0  0  0
 15 44  1  0  0  0  0
 19 45  1  0  0  0  0
 20 46  1  0  0  0  0
 20 47  1  0  0  0  0
 21 48  1  0  0  0  0
M  END
> <FRED Chemgauss4 score>
-9.911444

$$$$
C87618088	P137068422
  -OEChem-05122015313D

 30 31  0     1  0  0  0  0  0999 V2000
  122.6704  105.3142  106.6389 C   0  0  0  0  0  0  0  0  0  0  0  0
  123.8601  105.4680  107.3419 C   0  0  0  0  0  0  0  0  0  0  0  0
  124.2686  109.7914  108.2127 C   0  0  0  0  0  0  0  0  0  0  0  0
  122.4420  106.1523  105.5594 C   0  0  0  0  0  0  0  0  0  0  0  0
  124.4498  107.2289  105.8560 C   0  0  0  0  0  0  0  0  0  0  0  0
  123.0926  110.0969  108.8619 C   0  0  0  0  0  0  0  0  0  0  0  0
  124.1954  108.1221  109.8284 C   0  0  0  0  0  0  0  0  0  0  0  0
  124.7722  106.4414  106.9495 C   0  0  0  0  0  0  0  0  0  0  0  0
  124.9074  108.6474  108.7724 C   0  0  0  0  0  0  0  0  0  0  0  0
  126.2559  105.5809  108.8142 C   0  0  0  0  0  0  0  0  0  0  0  0
  126.0859  106.6347  107.6990 C   0  0  2  0  0  0  0  0  0  0  0  0
  126.2170  108.0775  108.2646 C   0  0  1  0  0  0  0  0  0  0  0  0
  123.3041  107.1091  105.1484 N   0  0  0  0  0  0  0  0  0  0  0  0
  127.5023  105.7261  109.5212 N   0  0  0  0  0  0  0  0  0  0  0  0
  126.6929  108.9660  107.2511 O   0  0  0  0  0  0  0  0  0  0  0  0
  122.7629  109.0069  110.1408 S   0  0  0  0  0  0  0  0  0  0  0  0
  121.9449  104.5620  106.9266 H   0  0  0  0  0  0  0  0  0  0  0  0
  124.0680  104.8255  108.1932 H   0  0  0  0  0  0  0  0  0  0  0  0
  124.6490  110.3645  107.3765 H   0  0  0  0  0  0  0  0  0  0  0  0
  121.5289  106.0726  104.9787 H   0  0  0  0  0  0  0  0  0  0  0  0
  125.1224  108.0047  105.5034 H   0  0  0  0  0  0  0  0  0  0  0  0
  122.4118  110.9083  108.6469 H   0  0  0  0  0  0  0  0  0  0  0  0
  124.4448  107.2622  110.4345 H   0  0  0  0  0  0  0  0  0  0  0  0
  125.4506  105.6324  109.5544 H   0  0  0  0  0  0  0  0  0  0  0  0
  126.2635  104.5687  108.3985 H   0  0  0  0  0  0  0  0  0  0  0  0
  126.9149  106.4688  106.9956 H   0  0  0  0  0  0  0  0  0  0  0  0
  126.9585  108.1008  109.0734 H   0  0  0  0  0  0  0  0  0  0  0  0
  127.9156  104.9174  109.9551 H   0  0  0  0  0  0  0  0  0  0  0  0
  127.8330  106.6502  109.7447 H   0  0  0  0  0  0  0  0  0  0  0  0
  126.8104  109.8275  107.6779 H   0  0  0  0  0  0  0  0  0  0  0  0
  1  2  1  0  0  0  0
  1  4  2  0  0  0  0
  2  8  2  0  0  0  0
  3  6  2  0  0  0  0
  3  9  1  0  0  0  0
  4 13  1  0  0  0  0
  5  8  1  0  0  0  0
  5 13  2  0  0  0  0
  6 16  1  0  0  0  0
  7  9  2  0  0  0  0
  7 16  1  0  0  0  0
  8 11  1  0  0  0  0
  9 12  1  0  0  0  0
 10 11  1  0  0  0  0
 10 14  1  0  0  0  0
 11 12  1  0  0  0  0
 12 15  1  0  0  0  0
  1 17  1  0  0  0  0
  2 18  1  0  0  0  0
  3 19  1  0  0  0  0
  4 20  1  0  0  0  0
  5 21  1  0  0  0  0
  6 22  1  0  0  0  0
  7 23  1  0  0  0  0
 10 24  1  0  0  0  0
 10 25  1  0  0  0  0
 11 26  1  0  0  0  0
 12 27  1  0  0  0  0
 14 28  1  0  0  0  0
 14 29  1  0  0  0  0
 15 30  1  0  0  0  0
M  END
> <FRED Chemgauss4 score>
-9.910379

$$$$
C87061796	P136265586
  -OEChem-05122015313D

 47 48  0     1  0  0  0  0  0999 V2000
  123.2121  107.9523  109.2148 C   0  0  0  0  0  0  0  0  0  0  0  0
  126.4922  106.9953  107.7126 C   0  0  0  0  0  0  0  0  0  0  0  0
  125.6502  108.2523  107.5355 C   0  0  0  0  0  0  0  0  0  0  0  0
  125.8396  105.8793  108.5228 C   0  0  0  0  0  0  0  0  0  0  0  0
  124.2516  108.0437  106.9454 C   0  0  0  0  0  0  0  0  0  0  0  0
  118.1141  105.6766  106.0720 C   0  0  0  0  0  0  0  0  0  0  0  0
  119.8864  105.5925  104.2650 C   0  0  0  0  0  0  0  0  0  0  0  0
  124.7121  105.1926  107.7590 C   0  0  0  0  0  0  0  0  0  0  0  0
  118.7472  104.4599  106.7461 C   0  0  0  0  0  0  0  0  0  0  0  0
  120.5166  104.3769  104.9440 C   0  0  0  0  0  0  0  0  0  0  0  0
  123.2231  107.3582  107.8604 C   0  0  1  0  0  0  0  0  0  0  0  0
  118.3866  105.7358  104.5620 C   0  0  0  0  0  0  0  0  0  0  0  0
  123.3199  105.8165  107.9377 C   0  0  1  0  0  0  0  0  0  0  0  0
  120.2499  104.3238  106.4554 C   0  0  0  0  0  0  0  0  0  0  0  0
  117.5607  104.6951  103.8003 C   0  0  0  0  0  0  0  0  0  0  0  0
  121.0723  105.3759  107.2082 C   0  0  0  0  0  0  0  0  0  0  0  0
  123.2034  108.4184  110.2773 N   0  0  0  0  0  0  0  0  0  0  0  0
  122.4544  105.2040  106.9150 N   0  0  0  0  0  0  0  0  0  0  0  0
  120.6813  103.0390  106.9178 O   0  0  0  0  0  0  0  0  0  0  0  0
  126.6906  106.5859  106.7016 H   0  0  0  0  0  0  0  0  0  0  0  0
  127.4955  107.2413  108.1145 H   0  0  0  0  0  0  0  0  0  0  0  0
  125.5137  108.7132  108.5210 H   0  0  0  0  0  0  0  0  0  0  0  0
  126.1991  108.9954  106.9499 H   0  0  0  0  0  0  0  0  0  0  0  0
  126.5822  105.1539  108.8336 H   0  0  0  0  0  0  0  0  0  0  0  0
  125.4146  106.3152  109.4223 H   0  0  0  0  0  0  0  0  0  0  0  0
  123.8700  109.0035  106.6159 H   0  0  0  0  0  0  0  0  0  0  0  0
  124.3764  107.4354  106.0551 H   0  0  0  0  0  0  0  0  0  0  0  0
  117.0259  105.6729  106.2548 H   0  0  0  0  0  0  0  0  0  0  0  0
  118.4960  106.5923  106.5532 H   0  0  0  0  0  0  0  0  0  0  0  0
  120.4174  106.5017  104.5926 H   0  0  0  0  0  0  0  0  0  0  0  0
  120.0463  105.5272  103.1751 H   0  0  0  0  0  0  0  0  0  0  0  0
  124.9692  105.2157  106.6995 H   0  0  0  0  0  0  0  0  0  0  0  0
  124.6867  104.1416  108.0399 H   0  0  0  0  0  0  0  0  0  0  0  0
  118.5817  104.5273  107.8327 H   0  0  0  0  0  0  0  0  0  0  0  0
  118.2152  103.5608  106.3991 H   0  0  0  0  0  0  0  0  0  0  0  0
  120.1217  103.4707  104.4594 H   0  0  0  0  0  0  0  0  0  0  0  0
  121.6019  104.3871  104.7576 H   0  0  0  0  0  0  0  0  0  0  0  0
  122.2436  107.5851  107.4293 H   0  0  0  0  0  0  0  0  0  0  0  0
  118.0672  106.7372  104.2020 H   0  0  0  0  0  0  0  0  0  0  0  0
  122.9508  105.4948  108.8703 H   0  0  0  0  0  0  0  0  0  0  0  0
  117.8415  103.6938  104.1224 H   0  0  0  0  0  0  0  0  0  0  0  0
  117.7429  104.7903  102.7312 H   0  0  0  0  0  0  0  0  0  0  0  0
  116.5011  104.8493  103.9970 H   0  0  0  0  0  0  0  0  0  0  0  0
  120.9099  105.2459  108.2692 H   0  0  0  0  0  0  0  0  0  0  0  0
  120.7563  106.3593  106.8901 H   0  0  0  0  0  0  0  0  0  0  0  0
  122.6978  104.2037  106.8580 H   0  0  0  0  0  0  0  0  0  0  0  0
  120.1623  102.3860  106.4262 H   0  0  0  0  0  0  0  0  0  0  0  0
  1 11  1  0  0  0  0
  1 17  3  0  0  0  0
  2  3  1  0  0  0  0
  2  4  1  0  0  0  0
  3  5  1  0  0  0  0
  4  8  1  0  0  0  0
  5 11  1  0  0  0  0
  6  9  1  0  0  0  0
  6 12  1  0  0  0  0
  7 10  1  0  0  0  0
  7 12  1  0  0  0  0
  8 13  1  0  0  0  0
  9 14  1  0  0  0  0
 10 14  1  0  0  0  0
 11 13  1  0  0  0  0
 12 15  1  0  0  0  0
 13 18  1  0  0  0  0
 14 16  1  0  0  0  0
 14 19  1  0  0  0  0
 16 18  1  0  0  0  0
  2 20  1  0  0  0  0
  2 21  1  0  0  0  0
  3 22  1  0  0  0  0
  3 23  1  0  0  0  0
  4 24  1  0  0  0  0
  4 25  1  0  0  0  0
  5 26  1  0  0  0  0
  5 27  1  0  0  0  0
  6 28  1  0  0  0  0
  6 29  1  0  0  0  0
  7 30  1  0  0  0  0
  7 31  1  0  0  0  0
  8 32  1  0  0  0  0
  8 33  1  0  0  0  0
  9 34  1  0  0  0  0
  9 35  1  0  0  0  0
 10 36  1  0  0  0  0
 10 37  1  0  0  0  0
 11 38  1  0  0  0  0
 12 39  1  0  0  0  0
 13 40  1  0  0  0  0
 15 41  1  0  0  0  0
 15 42  1  0  0  0  0
 15 43  1  0  0  0  0
 16 44  1  0  0  0  0
 16 45  1  0  0  0  0
 18 46  1  0  0  0  0
 19 47  1  0  0  0  0
M  END
> <FRED Chemgauss4 score>
-9.904135

$$$$
C45109192	P68000615
  -OEChem-05122015313D

 37 37  0     0  0  0  0  0  0999 V2000
  117.0078  108.0220  104.6919 C   0  0  0  0  0  0  0  0  0  0  0  0
  117.3804  106.8877  104.0101 C   0  0  0  0  0  0  0  0  0  0  0  0
  116.4413  106.3951  105.9419 C   0  0  0  0  0  0  0  0  0  0  0  0
  125.1418  107.0454  107.7123 C   0  0  0  0  0  0  0  0  0  0  0  0
  122.4348  105.5068  106.7010 C   0  0  0  0  0  0  0  0  0  0  0  0
  125.5687  108.4592  108.0139 C   0  0  0  0  0  0  0  0  0  0  0  0
  123.1883  105.5250  108.0064 C   0  0  0  0  0  0  0  0  0  0  0  0
  118.6579  104.0747  104.3057 C   0  0  0  0  0  0  0  0  0  0  0  0
  119.5161  104.4041  105.5299 C   0  0  0  0  0  0  0  0  0  0  0  0
  117.1919  104.4318  104.5492 C   0  0  0  0  0  0  0  0  0  0  0  0
  120.9768  104.0062  105.3460 C   0  0  0  0  0  0  0  0  0  0  0  0
  116.4241  107.7086  105.8938 N   0  0  0  0  0  0  0  0  0  0  0  0
  117.0115  105.8535  104.8234 N   0  0  0  0  0  0  0  0  0  0  0  0
  126.9349  108.6785  107.5171 N   0  0  0  0  0  0  0  0  0  0  0  0
  123.8650  106.8203  108.1673 N   0  0  0  0  0  0  0  0  0  0  0  0
  121.7741  104.2971  106.5051 N   0  0  0  0  0  0  0  0  0  0  0  0
  125.8583  106.2316  107.1356 O   0  0  0  0  0  0  0  0  0  0  0  0
  122.4149  106.4536  105.9189 O   0  0  0  0  0  0  0  0  0  0  0  0
  117.1303  109.0485  104.3785 H   0  0  0  0  0  0  0  0  0  0  0  0
  117.8582  106.7333  103.0527 H   0  0  0  0  0  0  0  0  0  0  0  0
  116.0601  105.7877  106.7515 H   0  0  0  0  0  0  0  0  0  0  0  0
  124.8895  109.1620  107.5223 H   0  0  0  0  0  0  0  0  0  0  0  0
  125.5475  108.6306  109.0941 H   0  0  0  0  0  0  0  0  0  0  0  0
  122.4911  105.3774  108.8364 H   0  0  0  0  0  0  0  0  0  0  0  0
  123.9355  104.7261  108.0145 H   0  0  0  0  0  0  0  0  0  0  0  0
  118.7458  103.0066  104.0708 H   0  0  0  0  0  0  0  0  0  0  0  0
  119.0280  104.6205  103.4294 H   0  0  0  0  0  0  0  0  0  0  0  0
  119.4487  105.4771  105.7475 H   0  0  0  0  0  0  0  0  0  0  0  0
  119.1168  103.8714  106.4016 H   0  0  0  0  0  0  0  0  0  0  0  0
  116.7881  103.8740  105.4027 H   0  0  0  0  0  0  0  0  0  0  0  0
  116.5756  104.1803  103.6778 H   0  0  0  0  0  0  0  0  0  0  0  0
  121.0513  102.9284  105.1696 H   0  0  0  0  0  0  0  0  0  0  0  0
  121.4252  104.5229  104.4915 H   0  0  0  0  0  0  0  0  0  0  0  0
  127.4662  109.4028  107.9389 H   0  0  0  0  0  0  0  0  0  0  0  0
  127.1884  108.2416  106.6628 H   0  0  0  0  0  0  0  0  0  0  0  0
  123.3760  107.5681  108.6266 H   0  0  0  0  0  0  0  0  0  0  0  0
  121.8608  103.5784  107.2235 H   0  0  0  0  0  0  0  0  0  0  0  0
  1  2  2  0  0  0  0
  1 12  1  0  0  0  0
  2 13  1  0  0  0  0
  3 12  2  0  0  0  0
  3 13  1  0  0  0  0
  4  6  1  0  0  0  0
  4 15  1  0  0  0  0
  4 17  2  0  0  0  0
  5  7  1  0  0  0  0
  5 16  1  0  0  0  0
  5 18  2  0  0  0  0
  6 14  1  0  0  0  0
  7 15  1  0  0  0  0
  8  9  1  0  0  0  0
  8 10  1  0  0  0  0
  9 11  1  0  0  0  0
 10 13  1  0  0  0  0
 11 16  1  0  0  0  0
  1 19  1  0  0  0  0
  2 20  1  0  0  0  0
  3 21  1  0  0  0  0
  6 22  1  0  0  0  0
  6 23  1  0  0  0  0
  7 24  1  0  0  0  0
  7 25  1  0  0  0  0
  8 26  1  0  0  0  0
  8 27  1  0  0  0  0
  9 28  1  0  0  0  0
  9 29  1  0  0  0  0
 10 30  1  0  0  0  0
 10 31  1  0  0  0  0
 11 32  1  0  0  0  0
 11 33  1  0  0  0  0
 14 34  1  0  0  0  0
 14 35  1  0  0  0  0
 15 36  1  0  0  0  0
 16 37  1  0  0  0  0
M  END
> <FRED Chemgauss4 score>
-9.899724

$$$$
C93361256	P146174107
  -OEChem-05122015313D

 38 39  0     1  0  0  0  0  0999 V2000
  124.5877  106.1566  106.3786 C   0  0  0  0  0  0  0  0  0  0  0  0
  125.8430  105.8933  108.3169 C   0  0  0  0  0  0  0  0  0  0  0  0
  125.5910  106.7021  107.2307 C   0  0  0  0  0  0  0  0  0  0  0  0
  124.1112  104.9514  106.8461 C   0  0  0  0  0  0  0  0  0  0  0  0
  126.2818  107.9464  107.0158 C   0  0  0  0  0  0  0  0  0  0  0  0
  119.9958  107.0853  107.0417 C   0  0  0  0  0  0  0  0  0  0  0  0
  119.3039  104.0565  106.5856 C   0  0  0  0  0  0  0  0  0  0  0  0
  118.9608  105.2510  105.6987 C   0  0  0  0  0  0  0  0  0  0  0  0
  120.7108  103.5322  106.3003 C   0  0  0  0  0  0  0  0  0  0  0  0
  121.4468  105.7122  105.5338 C   0  0  0  0  0  0  0  0  0  0  0  0
  120.0541  106.3189  105.7489 C   0  0  2  0  0  0  0  0  0  0  0  0
  118.9363  109.0442  108.1475 C   0  0  0  0  0  0  0  0  0  0  0  0
  123.0584  104.0661  106.2446 C   0  0  0  0  0  0  0  0  0  0  0  0
  121.7112  104.5961  106.4557 N   0  0  2  0  0  0  0  0  0  0  0  0
  127.2438  108.3404  107.9518 N   0  0  0  0  0  0  0  0  0  0  0  0
  119.1437  108.1727  107.0132 N   0  0  0  0  0  0  0  0  0  0  0  0
  126.0336  108.6818  106.0341 O   0  0  0  0  0  0  0  0  0  0  0  0
  120.6726  106.7158  107.9942 O   0  0  0  0  0  0  0  0  0  0  0  0
  124.8723  104.4827  108.3067 S   0  0  0  0  0  0  0  0  0  0  0  0
  124.2327  106.6239  105.4681 H   0  0  0  0  0  0  0  0  0  0  0  0
  126.5497  106.0567  109.1192 H   0  0  0  0  0  0  0  0  0  0  0  0
  119.2223  104.3459  107.6401 H   0  0  0  0  0  0  0  0  0  0  0  0
  118.5712  103.2558  106.4183 H   0  0  0  0  0  0  0  0  0  0  0  0
  118.8059  104.9131  104.6621 H   0  0  0  0  0  0  0  0  0  0  0  0
  117.9978  105.6801  106.0214 H   0  0  0  0  0  0  0  0  0  0  0  0
  120.9311  102.6879  106.9666 H   0  0  0  0  0  0  0  0  0  0  0  0
  120.7309  103.1506  105.2725 H   0  0  0  0  0  0  0  0  0  0  0  0
  121.5121  105.3548  104.4938 H   0  0  0  0  0  0  0  0  0  0  0  0
  122.2206  106.4918  105.6374 H   0  0  0  0  0  0  0  0  0  0  0  0
  119.8604  107.0587  104.9357 H   0  0  0  0  0  0  0  0  0  0  0  0
  118.1099  108.6738  108.7597 H   0  0  0  0  0  0  0  0  0  0  0  0
  118.6971  110.0557  107.8083 H   0  0  0  0  0  0  0  0  0  0  0  0
  119.8392  109.0852  108.7627 H   0  0  0  0  0  0  0  0  0  0  0  0
  123.2137  103.9599  105.1654 H   0  0  0  0  0  0  0  0  0  0  0  0
  123.0947  103.0614  106.6787 H   0  0  0  0  0  0  0  0  0  0  0  0
  127.4267  107.7424  108.7504 H   0  0  0  0  0  0  0  0  0  0  0  0
  127.7643  109.2064  107.8560 H   0  0  0  0  0  0  0  0  0  0  0  0
  118.6390  108.3691  106.1541 H   0  0  0  0  0  0  0  0  0  0  0  0
  1  3  1  0  0  0  0
  1  4  2  0  0  0  0
  2  3  2  0  0  0  0
  2 19  1  0  0  0  0
  3  5  1  0  0  0  0
  4 13  1  0  0  0  0
  4 19  1  0  0  0  0
  5 15  1  0  0  0  0
  5 17  2  0  0  0  0
  6 11  1  0  0  0  0
  6 16  1  0  0  0  0
  6 18  2  0  0  0  0
  7  8  1  0  0  0  0
  7  9  1  0  0  0  0
  8 11  1  0  0  0  0
  9 14  1  0  0  0  0
 10 11  1  0  0  0  0
 10 14  1  0  0  0  0
 12 16  1  0  0  0  0
 13 14  1  0  0  0  0
  1 20  1  0  0  0  0
  2 21  1  0  0  0  0
  7 22  1  0  0  0  0
  7 23  1  0  0  0  0
  8 24  1  0  0  0  0
  8 25  1  0  0  0  0
  9 26  1  0  0  0  0
  9 27  1  0  0  0  0
 10 28  1  0  0  0  0
 10 29  1  0  0  0  0
 11 30  1  0  0  0  0
 12 31  1  0  0  0  0
 12 32  1  0  0  0  0
 12 33  1  0  0  0  0
 13 34  1  0  0  0  0
 13 35  1  0  0  0  0
 15 36  1  0  0  0  0
 15 37  1  0  0  0  0
 16 38  1  0  0  0  0
M  END
> <FRED Chemgauss4 score>
-9.898358

$$$$
C91290832	P142798148
  -OEChem-05122015313D

 35 36  0     1  0  0  0  0  0999 V2000
  118.9615  107.7579  104.2059 C   0  0  0  0  0  0  0  0  0  0  0  0
  124.9800  107.2504  106.2010 C   0  0  0  0  0  0  0  0  0  0  0  0
  125.0743  106.2434  107.1325 C   0  0  0  0  0  0  0  0  0  0  0  0
  119.1030  106.3401  104.2163 C   0  0  0  0  0  0  0  0  0  0  0  0
  117.6401  108.1459  104.1797 C   0  0  0  0  0  0  0  0  0  0  0  0
  117.8840  105.6985  104.1980 C   0  0  0  0  0  0  0  0  0  0  0  0
  122.9738  106.6870  106.6347 C   0  0  0  0  0  0  0  0  0  0  0  0
  123.3625  104.8676  108.3274 C   0  0  0  0  0  0  0  0  0  0  0  0
  120.0244  104.5914  106.7461 C   0  0  0  0  0  0  0  0  0  0  0  0
  117.0830  109.5158  104.1620 C   0  0  0  0  0  0  0  0  0  0  0  0
  121.4768  106.5777  106.6714 C   0  0  0  0  0  0  0  0  0  0  0  0
  123.6699  107.5220  105.8956 N   0  0  0  0  0  0  0  0  0  0  0  0
  123.7811  105.8930  107.4009 N   0  0  0  0  0  0  0  0  0  0  0  0
  117.1586  110.1680  105.4500 N   0  0  0  0  0  0  0  0  0  0  0  0
  120.9888  105.3814  105.9392 N   0  0  2  0  0  0  0  0  0  0  0  0
  120.5137  104.2255  103.6623 O   0  0  0  0  0  0  0  0  0  0  0  0
  121.6434  106.4633  103.6701 O   0  0  0  0  0  0  0  0  0  0  0  0
  116.5765  106.8038  104.1680 S   0  0  0  0  0  0  0  0  0  0  0  0
  120.6835  105.5418  104.2495 S   0  0  0  0  0  0  0  0  0  0  0  0
  117.6180  103.8128  104.2038 Br  0  0  0  0  0  0  0  0  0  0  0  0
  119.7863  108.4599  104.2170 H   0  0  0  0  0  0  0  0  0  0  0  0
  125.7890  107.7937  105.7348 H   0  0  0  0  0  0  0  0  0  0  0  0
  125.9184  105.7648  107.6090 H   0  0  0  0  0  0  0  0  0  0  0  0
  123.2327  105.3320  109.3085 H   0  0  0  0  0  0  0  0  0  0  0  0
  122.4212  104.4292  107.9844 H   0  0  0  0  0  0  0  0  0  0  0  0
  124.1265  104.0863  108.3711 H   0  0  0  0  0  0  0  0  0  0  0  0
  119.6855  103.7202  106.1795 H   0  0  0  0  0  0  0  0  0  0  0  0
  119.1557  105.2037  107.0030 H   0  0  0  0  0  0  0  0  0  0  0  0
  120.4969  104.2481  107.6703 H   0  0  0  0  0  0  0  0  0  0  0  0
  117.6136  110.1633  103.4431 H   0  0  0  0  0  0  0  0  0  0  0  0
  116.0216  109.5287  103.8609 H   0  0  0  0  0  0  0  0  0  0  0  0
  121.1200  106.5095  107.7049 H   0  0  0  0  0  0  0  0  0  0  0  0
  121.0074  107.4595  106.2227 H   0  0  0  0  0  0  0  0  0  0  0  0
  116.4915  110.8856  105.6687 H   0  0  0  0  0  0  0  0  0  0  0  0
  117.9831  110.0410  106.0087 H   0  0  0  0  0  0  0  0  0  0  0  0
  1  4  1  0  0  0  0
  1  5  2  0  0  0  0
  2  3  2  0  0  0  0
  2 12  1  0  0  0  0
  3 13  1  0  0  0  0
  4  6  2  0  0  0  0
  4 19  1  0  0  0  0
  5 10  1  0  0  0  0
  5 18  1  0  0  0  0
  6 18  1  0  0  0  0
  6 20  1  0  0  0  0
  7 11  1  0  0  0  0
  7 12  2  0  0  0  0
  7 13  1  0  0  0  0
  8 13  1  0  0  0  0
  9 15  1  0  0  0  0
 10 14  1  0  0  0  0
 11 15  1  0  0  0  0
 15 19  1  0  0  0  0
 16 19  2  0  0  0  0
 17 19  2  0  0  0  0
  1 21  1  0  0  0  0
  2 22  1  0  0  0  0
  3 23  1  0  0  0  0
  8 24  1  0  0  0  0
  8 25  1  0  0  0  0
  8 26  1  0  0  0  0
  9 27  1  0  0  0  0
  9 28  1  0  0  0  0
  9 29  1  0  0  0  0
 10 30  1  0  0  0  0
 10 31  1  0  0  0  0
 11 32  1  0  0  0  0
 11 33  1  0  0  0  0
 14 34  1  0  0  0  0
 14 35  1  0  0  0  0
M  END
> <FRED Chemgauss4 score>
-9.897702

$$$$
C67820544	P104133783
  -OEChem-05122015313D

 43 44  0     1  0  0  0  0  0999 V2000
  126.3002  107.6241  107.0429 C   0  0  0  0  0  0  0  0  0  0  0  0
  124.4682  105.7461  108.2742 C   0  0  0  0  0  0  0  0  0  0  0  0
  121.8333  110.2836  110.2576 C   0  0  0  0  0  0  0  0  0  0  0  0
  126.6805  106.1694  107.2145 C   0  0  0  0  0  0  0  0  0  0  0  0
  123.4896  107.8245  109.4073 C   0  0  0  0  0  0  0  0  0  0  0  0
  124.6337  109.2994  107.9021 C   0  0  0  0  0  0  0  0  0  0  0  0
  124.7325  107.1035  108.8980 C   0  0  2  0  0  0  0  0  0  0  0  0
  123.8496  109.2996  109.2112 C   0  0  1  0  0  0  0  0  0  0  0  0
  118.0313  107.5509  107.0981 C   0  0  0  0  0  0  0  0  0  0  0  0
  125.4152  104.0831  106.6952 C   0  0  0  0  0  0  0  0  0  0  0  0
  118.7211  108.8926  107.2555 C   0  0  0  0  0  0  0  0  0  0  0  0
  119.8227  110.8751  108.7957 C   0  0  0  0  0  0  0  0  0  0  0  0
  120.7075  111.2772  109.9783 C   0  0  2  0  0  0  0  0  0  0  0  0
  125.4544  105.3816  107.3466 N   0  0  0  0  0  0  0  0  0  0  0  0
  125.2409  107.9806  107.8549 N   0  0  0  0  0  0  0  0  0  0  0  0
  121.2748  112.5919  109.8168 N   0  0  0  0  0  0  0  0  0  0  0  0
  122.7002  110.1556  109.1812 N   0  0  0  0  0  0  0  0  0  0  0  0
  126.9437  108.3923  106.3335 O   0  0  0  0  0  0  0  0  0  0  0  0
  123.5485  105.0227  108.6510 O   0  0  0  0  0  0  0  0  0  0  0  0
  121.9535  109.6915  111.3283 O   0  0  0  0  0  0  0  0  0  0  0  0
  119.0144  109.2543  109.0008 S   0  0  0  0  0  0  0  0  0  0  0  0
  127.2366  105.8389  106.3282 H   0  0  0  0  0  0  0  0  0  0  0  0
  127.2962  106.0405  108.1134 H   0  0  0  0  0  0  0  0  0  0  0  0
  122.5690  107.5333  108.9077 H   0  0  0  0  0  0  0  0  0  0  0  0
  123.3837  107.6296  110.4763 H   0  0  0  0  0  0  0  0  0  0  0  0
  124.0278  109.4778  107.0045 H   0  0  0  0  0  0  0  0  0  0  0  0
  125.4520  110.0319  107.9268 H   0  0  0  0  0  0  0  0  0  0  0  0
  125.4714  106.9879  109.6906 H   0  0  0  0  0  0  0  0  0  0  0  0
  124.4881  109.6701  110.0496 H   0  0  0  0  0  0  0  0  0  0  0  0
  118.6328  106.7378  107.5183 H   0  0  0  0  0  0  0  0  0  0  0  0
  117.0490  107.5440  107.5826 H   0  0  0  0  0  0  0  0  0  0  0  0
  117.8777  107.3334  106.0358 H   0  0  0  0  0  0  0  0  0  0  0  0
  124.8388  104.1448  105.7685 H   0  0  0  0  0  0  0  0  0  0  0  0
  124.9475  103.3447  107.3521 H   0  0  0  0  0  0  0  0  0  0  0  0
  126.4287  103.7487  106.4577 H   0  0  0  0  0  0  0  0  0  0  0  0
  118.1033  109.6890  106.8295 H   0  0  0  0  0  0  0  0  0  0  0  0
  119.6810  108.8892  106.7304 H   0  0  0  0  0  0  0  0  0  0  0  0
  119.0333  111.6170  108.6366 H   0  0  0  0  0  0  0  0  0  0  0  0
  120.4221  110.8289  107.8800 H   0  0  0  0  0  0  0  0  0  0  0  0
  120.0846  111.3337  110.8797 H   0  0  0  0  0  0  0  0  0  0  0  0
  122.1030  112.8335  110.3347 H   0  0  0  0  0  0  0  0  0  0  0  0
  120.7326  113.3048  109.3581 H   0  0  0  0  0  0  0  0  0  0  0  0
  122.5001  110.6513  108.3173 H   0  0  0  0  0  0  0  0  0  0  0  0
  1  4  1  0  0  0  0
  1 15  1  0  0  0  0
  1 18  2  0  0  0  0
  2  7  1  0  0  0  0
  2 14  1  0  0  0  0
  2 19  2  0  0  0  0
  3 13  1  0  0  0  0
  3 17  1  0  0  0  0
  3 20  2  0  0  0  0
  4 14  1  0  0  0  0
  5  7  1  0  0  0  0
  5  8  1  0  0  0  0
  6  8  1  0  0  0  0
  6 15  1  0  0  0  0
  7 15  1  0  0  0  0
  8 17  1  0  0  0  0
  9 11  1  0  0  0  0
 10 14  1  0  0  0  0
 11 21  1  0  0  0  0
 12 13  1  0  0  0  0
 12 21  1  0  0  0  0
 13 16  1  0  0  0  0
  4 22  1  0  0  0  0
  4 23  1  0  0  0  0
  5 24  1  0  0  0  0
  5 25  1  0  0  0  0
  6 26  1  0  0  0  0
  6 27  1  0  0  0  0
  7 28  1  0  0  0  0
  8 29  1  0  0  0  0
  9 30  1  0  0  0  0
  9 31  1  0  0  0  0
  9 32  1  0  0  0  0
 10 33  1  0  0  0  0
 10 34  1  0  0  0  0
 10 35  1  0  0  0  0
 11 36  1  0  0  0  0
 11 37  1  0  0  0  0
 12 38  1  0  0  0  0
 12 39  1  0  0  0  0
 13 40  1  0  0  0  0
 16 41  1  0  0  0  0
 16 42  1  0  0  0  0
 17 43  1  0  0  0  0
M  END
> <FRED Chemgauss4 score>
-9.897524

$$$$
C00190830	P12690408
  -OEChem-05122015313D

 30 32  0     0  0  0  0  0  0999 V2000
  125.3933  105.0748  107.8436 C   0  0  0  0  0  0  0  0  0  0  0  0
  117.4776  108.1237  103.8340 C   0  0  0  0  0  0  0  0  0  0  0  0
  125.5590  106.4326  108.1167 C   0  0  0  0  0  0  0  0  0  0  0  0
  124.1355  104.4858  107.9729 C   0  0  0  0  0  0  0  0  0  0  0  0
  117.0716  106.8401  103.4692 C   0  0  0  0  0  0  0  0  0  0  0  0
  118.2764  108.3082  104.9626 C   0  0  0  0  0  0  0  0  0  0  0  0
  124.4669  107.2013  108.5193 C   0  0  0  0  0  0  0  0  0  0  0  0
  123.0434  105.2545  108.3754 C   0  0  0  0  0  0  0  0  0  0  0  0
  117.4643  105.7410  104.2329 C   0  0  0  0  0  0  0  0  0  0  0  0
  118.6691  107.2090  105.7263 C   0  0  0  0  0  0  0  0  0  0  0  0
  123.2091  106.6123  108.6486 C   0  0  0  0  0  0  0  0  0  0  0  0
  118.2631  105.9254  105.3615 C   0  0  0  0  0  0  0  0  0  0  0  0
  119.5038  107.4568  106.8957 C   0  0  0  0  0  0  0  0  0  0  0  0
  120.9652  107.5581  108.3558 C   0  0  0  0  0  0  0  0  0  0  0  0
  119.8345  108.3845  108.8276 C   0  0  0  0  0  0  0  0  0  0  0  0
  122.0855  107.4025  109.0626 C   0  0  0  0  0  0  0  0  0  0  0  0
  120.6833  107.0093  107.1368 N   0  0  0  0  0  0  0  0  0  0  0  0
  119.7222  109.0210  109.8551 O   0  0  0  0  0  0  0  0  0  0  0  0
  118.9278  108.2612  107.8152 O   0  0  0  0  0  0  0  0  0  0  0  0
  118.7662  104.3969  106.3671 Br  0  0  0  0  0  0  0  0  0  0  0  0
  126.2433  104.4765  107.5290 H   0  0  0  0  0  0  0  0  0  0  0  0
  117.1718  108.9793  103.2394 H   0  0  0  0  0  0  0  0  0  0  0  0
  126.5380  106.8917  108.0150 H   0  0  0  0  0  0  0  0  0  0  0  0
  124.0061  103.4289  107.7591 H   0  0  0  0  0  0  0  0  0  0  0  0
  116.4497  106.6967  102.5903 H   0  0  0  0  0  0  0  0  0  0  0  0
  118.5855  109.3138  105.2355 H   0  0  0  0  0  0  0  0  0  0  0  0
  124.6118  108.2585  108.7287 H   0  0  0  0  0  0  0  0  0  0  0  0
  122.0693  104.7809  108.4716 H   0  0  0  0  0  0  0  0  0  0  0  0
  117.1378  104.7483  103.9325 H   0  0  0  0  0  0  0  0  0  0  0  0
  122.1403  107.8893  110.0367 H   0  0  0  0  0  0  0  0  0  0  0  0
  1  3  1  0  0  0  0
  1  4  2  0  0  0  0
  2  5  1  0  0  0  0
  2  6  2  0  0  0  0
  3  7  2  0  0  0  0
  4  8  1  0  0  0  0
  5  9  2  0  0  0  0
  6 10  1  0  0  0  0
  7 11  1  0  0  0  0
  8 11  2  0  0  0  0
  9 12  1  0  0  0  0
 10 12  2  0  0  0  0
 10 13  1  0  0  0  0
 11 16  1  0  0  0  0
 12 20  1  0  0  0  0
 13 17  2  0  0  0  0
 13 19  1  0  0  0  0
 14 15  1  0  0  0  0
 14 16  2  0  0  0  0
 14 17  1  0  0  0  0
 15 18  2  0  0  0  0
 15 19  1  0  0  0  0
  1 21  1  0  0  0  0
  2 22  1  0  0  0  0
  3 23  1  0  0  0  0
  4 24  1  0  0  0  0
  5 25  1  0  0  0  0
  6 26  1  0  0  0  0
  7 27  1  0  0  0  0
  8 28  1  0  0  0  0
  9 29  1  0  0  0  0
 16 30  1  0  0  0  0
M  END
> <FRED Chemgauss4 score>
-9.897491

$$$$
C20546222	P30637893
  -OEChem-05122015313D

 37 38  0     1  0  0  0  0  0999 V2000
  124.6479  104.2721  108.1623 C   0  0  0  0  0  0  0  0  0  0  0  0
  123.6183  104.0654  107.2442 C   0  0  0  0  0  0  0  0  0  0  0  0
  125.4712  105.3921  108.0465 C   0  0  0  0  0  0  0  0  0  0  0  0
  124.2354  106.0987  106.0944 C   0  0  0  0  0  0  0  0  0  0  0  0
  123.4121  104.9786  106.2103 C   0  0  0  0  0  0  0  0  0  0  0  0
  125.2650  106.3054  107.0125 C   0  0  0  0  0  0  0  0  0  0  0  0
  118.6923  103.6157  104.8331 C   0  0  0  0  0  0  0  0  0  0  0  0
  119.6843  103.7300  105.9905 C   0  0  0  0  0  0  0  0  0  0  0  0
  117.4868  104.5185  105.0339 C   0  0  0  0  0  0  0  0  0  0  0  0
  118.8527  106.0854  106.4324 C   0  0  0  0  0  0  0  0  0  0  0  0
  120.0701  105.1780  106.3007 C   0  0  2  0  0  0  0  0  0  0  0  0
  122.4118  104.7766  105.3184 N   0  5  0  0  0  0  0  0  0  0  0  0
  125.6303  108.4601  105.4865 N   0  0  0  0  0  0  0  0  0  0  0  0
  117.9521  105.9195  105.2515 N   0  3  0  0  0  0  0  0  0  0  0  0
  126.0688  108.5643  108.0247 O   0  0  0  0  0  0  0  0  0  0  0  0
  127.6446  107.2600  106.5539 O   0  0  0  0  0  0  0  0  0  0  0  0
  120.5019  105.6953  103.8407 O   0  0  0  0  0  0  0  0  0  0  0  0
  121.4784  107.1732  105.5649 O   0  0  0  0  0  0  0  0  0  0  0  0
  126.2954  107.7079  106.8690 S   0  0  0  0  0  0  0  0  0  0  0  0
  121.2230  105.8092  105.1067 S   0  0  0  0  0  0  0  0  0  0  0  0
  124.8087  103.5608  108.9673 H   0  0  0  0  0  0  0  0  0  0  0  0
  122.9868  103.1859  107.3508 H   0  0  0  0  0  0  0  0  0  0  0  0
  126.2706  105.5433  108.7672 H   0  0  0  0  0  0  0  0  0  0  0  0
  124.0813  106.8157  105.2902 H   0  0  0  0  0  0  0  0  0  0  0  0
  119.1918  103.8713  103.8910 H   0  0  0  0  0  0  0  0  0  0  0  0
  118.3599  102.5758  104.7377 H   0  0  0  0  0  0  0  0  0  0  0  0
  119.2237  103.2919  106.8854 H   0  0  0  0  0  0  0  0  0  0  0  0
  120.5747  103.1300  105.7689 H   0  0  0  0  0  0  0  0  0  0  0  0
  116.8421  104.5291  104.1502 H   0  0  0  0  0  0  0  0  0  0  0  0
  116.8956  104.2302  105.9093 H   0  0  0  0  0  0  0  0  0  0  0  0
  118.2599  105.8324  107.3181 H   0  0  0  0  0  0  0  0  0  0  0  0
  119.1232  107.1449  106.4757 H   0  0  0  0  0  0  0  0  0  0  0  0
  120.6282  105.1994  107.2446 H   0  0  0  0  0  0  0  0  0  0  0  0
  125.7870  108.0154  104.5737 H   0  0  0  0  0  0  0  0  0  0  0  0
  124.7107  108.9088  105.5774 H   0  0  0  0  0  0  0  0  0  0  0  0
  118.4246  106.2609  104.4033 H   0  0  0  0  0  0  0  0  0  0  0  0
  117.1314  106.5292  105.3705 H   0  0  0  0  0  0  0  0  0  0  0  0
  1  2  1  0  0  0  0
  1  3  2  0  0  0  0
  2  5  2  0  0  0  0
  3  6  1  0  0  0  0
  4  5  1  0  0  0  0
  4  6  2  0  0  0  0
  5 12  1  0  0  0  0
  6 19  1  0  0  0  0
  7  8  1  0  0  0  0
  7  9  1  0  0  0  0
  8 11  1  0  0  0  0
  9 14  1  0  0  0  0
 10 11  1  0  0  0  0
 10 14  1  0  0  0  0
 11 20  1  0  0  0  0
 12 20  1  0  0  0  0
 13 19  1  0  0  0  0
 15 19  2  0  0  0  0
 16 19  2  0  0  0  0
 17 20  2  0  0  0  0
 18 20  2  0  0  0  0
  1 21  1  0  0  0  0
  2 22  1  0  0  0  0
  3 23  1  0  0  0  0
  4 24  1  0  0  0  0
  7 25  1  0  0  0  0
  7 26  1  0  0  0  0
  8 27  1  0  0  0  0
  8 28  1  0  0  0  0
  9 29  1  0  0  0  0
  9 30  1  0  0  0  0
 10 31  1  0  0  0  0
 10 32  1  0  0  0  0
 11 33  1  0  0  0  0
 13 34  1  0  0  0  0
 13 35  1  0  0  0  0
 14 36  1  0  0  0  0
 14 37  1  0  0  0  0
M  CHG  2  12  -1  14   1
M  END
> <FRED Chemgauss4 score>
-9.895752

$$$$
C97534945	P154539649
  -OEChem-05122015313D

 38 40  0     1  0  0  0  0  0999 V2000
  124.2492  108.0625  107.3950 C   0  0  0  0  0  0  0  0  0  0  0  0
  124.3139  109.2899  108.0521 C   0  0  0  0  0  0  0  0  0  0  0  0
  123.4090  107.0626  109.4118 C   0  0  0  0  0  0  0  0  0  0  0  0
  123.6195  110.6821  111.2851 C   0  0  0  0  0  0  0  0  0  0  0  0
  123.1707  109.5777  111.9592 C   0  0  0  0  0  0  0  0  0  0  0  0
  123.7950  106.9440  108.0778 C   0  0  0  0  0  0  0  0  0  0  0  0
  123.9306  109.4192  109.3851 C   0  0  0  0  0  0  0  0  0  0  0  0
  123.4697  108.2845  110.0777 C   0  0  0  0  0  0  0  0  0  0  0  0
  119.4298  106.1222  106.7848 C   0  0  0  0  0  0  0  0  0  0  0  0
  119.1081  104.9049  106.2220 C   0  0  0  0  0  0  0  0  0  0  0  0
  121.2387  105.0136  107.3406 C   0  0  0  0  0  0  0  0  0  0  0  0
  118.5920  107.3388  106.7620 C   0  0  0  0  0  0  0  0  0  0  0  0
  117.9028  104.4905  105.4761 C   0  0  0  0  0  0  0  0  0  0  0  0
  122.5943  104.6908  107.9265 C   0  0  0  0  0  0  0  0  0  0  0  0
  123.7193  105.6235  107.3905 C   0  0  2  0  0  0  0  0  0  0  0  0
  124.0021  110.6142  109.9973 N   0  0  0  0  0  0  0  0  0  0  0  0
  123.0918  108.3735  111.3650 N   0  0  0  0  0  0  0  0  0  0  0  0
  120.6510  106.1863  107.4270 N   0  0  0  0  0  0  0  0  0  0  0  0
  124.9858  103.9073  106.4316 N   0  0  0  0  0  0  0  0  0  0  0  0
  125.0070  104.8971  107.4504 N   0  0  0  0  0  0  0  0  0  0  0  0
  120.3797  103.7883  106.5004 S   0  0  0  0  0  0  0  0  0  0  0  0
  124.5558  107.9930  106.3551 H   0  0  0  0  0  0  0  0  0  0  0  0
  124.6721  110.1594  107.5045 H   0  0  0  0  0  0  0  0  0  0  0  0
  123.0529  106.1817  109.9440 H   0  0  0  0  0  0  0  0  0  0  0  0
  123.6874  111.6555  111.7538 H   0  0  0  0  0  0  0  0  0  0  0  0
  122.8608  109.6211  112.9956 H   0  0  0  0  0  0  0  0  0  0  0  0
  117.9229  107.3753  107.6366 H   0  0  0  0  0  0  0  0  0  0  0  0
  119.2004  108.2588  106.7656 H   0  0  0  0  0  0  0  0  0  0  0  0
  117.9647  107.3907  105.8562 H   0  0  0  0  0  0  0  0  0  0  0  0
  118.0245  104.6685  104.3953 H   0  0  0  0  0  0  0  0  0  0  0  0
  117.6778  103.4197  105.6167 H   0  0  0  0  0  0  0  0  0  0  0  0
  117.0037  105.0373  105.8073 H   0  0  0  0  0  0  0  0  0  0  0  0
  122.8151  103.6398  107.6928 H   0  0  0  0  0  0  0  0  0  0  0  0
  122.5436  104.7400  109.0222 H   0  0  0  0  0  0  0  0  0  0  0  0
  123.5284  105.7750  106.3108 H   0  0  0  0  0  0  0  0  0  0  0  0
  124.1518  104.0218  105.8561 H   0  0  0  0  0  0  0  0  0  0  0  0
  125.7770  104.0783  105.8123 H   0  0  0  0  0  0  0  0  0  0  0  0
  125.0832  104.4607  108.3601 H   0  0  0  0  0  0  0  0  0  0  0  0
  1  2  2  0  0  0  0
  1  6  1  0  0  0  0
  2  7  1  0  0  0  0
  3  6  2  0  0  0  0
  3  8  1  0  0  0  0
  4  5  2  0  0  0  0
  4 16  1  0  0  0  0
  5 17  1  0  0  0  0
  6 15  1  0  0  0  0
  7  8  1  0  0  0  0
  7 16  2  0  0  0  0
  8 17  2  0  0  0  0
  9 10  2  0  0  0  0
  9 12  1  0  0  0  0
  9 18  1  0  0  0  0
 10 13  1  0  0  0  0
 10 21  1  0  0  0  0
 11 14  1  0  0  0  0
 11 18  2  0  0  0  0
 11 21  1  0  0  0  0
 14 15  1  0  0  0  0
 15 20  1  0  0  0  0
 19 20  1  0  0  0  0
  1 22  1  0  0  0  0
  2 23  1  0  0  0  0
  3 24  1  0  0  0  0
  4 25  1  0  0  0  0
  5 26  1  0  0  0  0
 12 27  1  0  0  0  0
 12 28  1  0  0  0  0
 12 29  1  0  0  0  0
 13 30  1  0  0  0  0
 13 31  1  0  0  0  0
 13 32  1  0  0  0  0
 14 33  1  0  0  0  0
 14 34  1  0  0  0  0
 15 35  1  0  0  0  0
 19 36  1  0  0  0  0
 19 37  1  0  0  0  0
 20 38  1  0  0  0  0
M  END
> <FRED Chemgauss4 score>
-9.895701

$$$$
C41043428	P138194779
  -OEChem-05122015313D

 29 29  0     0  0  0  0  0  0999 V2000
  123.5548  108.5267  106.9445 C   0  0  0  0  0  0  0  0  0  0  0  0
  124.7762  107.9420  107.1743 C   0  0  0  0  0  0  0  0  0  0  0  0
  125.5058  108.9172  107.8804 C   0  0  0  0  0  0  0  0  0  0  0  0
  125.1639  106.5890  106.7450 C   0  0  0  0  0  0  0  0  0  0  0  0
  125.0686  104.2096  107.3802 C   0  0  0  0  0  0  0  0  0  0  0  0
  123.0053  105.5517  107.5812 C   0  0  0  0  0  0  0  0  0  0  0  0
  125.6489  104.1014  108.7785 C   0  0  0  0  0  0  0  0  0  0  0  0
  122.1575  105.2253  106.3654 C   0  0  0  0  0  0  0  0  0  0  0  0
  124.8064  110.0364  108.0855 N   0  0  0  0  0  0  0  0  0  0  0  0
  123.6245  109.7682  107.5048 N   0  0  0  0  0  0  0  0  0  0  0  0
  126.7830  108.6999  108.2906 N   0  0  0  0  0  0  0  0  0  0  0  0
  124.4203  105.5035  107.2193 N   0  0  0  0  0  0  0  0  0  0  0  0
  126.1225  106.5153  105.9770 O   0  0  0  0  0  0  0  0  0  0  0  0
  126.6291  105.1149  108.9627 O   0  0  0  0  0  0  0  0  0  0  0  0
  122.5077  103.9364  105.8776 O   0  0  0  0  0  0  0  0  0  0  0  0
  122.6609  108.1824  106.4437 H   0  0  0  0  0  0  0  0  0  0  0  0
  125.8496  104.1203  106.6184 H   0  0  0  0  0  0  0  0  0  0  0  0
  124.3186  103.4297  107.2177 H   0  0  0  0  0  0  0  0  0  0  0  0
  122.7829  106.5533  107.9628 H   0  0  0  0  0  0  0  0  0  0  0  0
  122.8310  104.8190  108.3749 H   0  0  0  0  0  0  0  0  0  0  0  0
  126.1382  103.1309  108.9070 H   0  0  0  0  0  0  0  0  0  0  0  0
  124.8757  104.2157  109.5452 H   0  0  0  0  0  0  0  0  0  0  0  0
  122.3490  105.9514  105.5691 H   0  0  0  0  0  0  0  0  0  0  0  0
  121.0893  105.2326  106.6057 H   0  0  0  0  0  0  0  0  0  0  0  0
  122.9059  110.4812  107.5275 H   0  0  0  0  0  0  0  0  0  0  0  0
  127.2508  107.7986  108.1434 H   0  0  0  0  0  0  0  0  0  0  0  0
  127.2963  109.3935  108.8457 H   0  0  0  0  0  0  0  0  0  0  0  0
  126.9729  105.0106  109.8644 H   0  0  0  0  0  0  0  0  0  0  0  0
  121.9454  103.7678  105.1046 H   0  0  0  0  0  0  0  0  0  0  0  0
  1  2  2  0  0  0  0
  1 10  1  0  0  0  0
  2  3  1  0  0  0  0
  2  4  1  0  0  0  0
  3  9  2  0  0  0  0
  3 11  1  0  0  0  0
  4 12  1  0  0  0  0
  4 13  2  0  0  0  0
  5  7  1  0  0  0  0
  5 12  1  0  0  0  0
  6  8  1  0  0  0  0
  6 12  1  0  0  0  0
  7 14  1  0  0  0  0
  8 15  1  0  0  0  0
  9 10  1  0  0  0  0
  1 16  1  0  0  0  0
  5 17  1  0  0  0  0
  5 18  1  0  0  0  0
  6 19  1  0  0  0  0
  6 20  1  0  0  0  0
  7 21  1  0  0  0  0
  7 22  1  0  0  0  0
  8 23  1  0  0  0  0
  8 24  1  0  0  0  0
 10 25  1  0  0  0  0
 11 26  1  0  0  0  0
 11 27  1  0  0  0  0
 14 28  1  0  0  0  0
 15 29  1  0  0  0  0
M  END
> <FRED Chemgauss4 score>
-9.891737

$$$$
C32444249	P47755223
  -OEChem-05122015313D

 34 36  0     1  0  0  0  0  0999 V2000
  117.0990  108.3633  106.7801 C   0  0  0  0  0  0  0  0  0  0  0  0
  118.4066  108.6843  107.1257 C   0  0  0  0  0  0  0  0  0  0  0  0
  116.7845  107.0707  106.3562 C   0  0  0  0  0  0  0  0  0  0  0  0
  119.4006  107.7116  107.0546 C   0  0  0  0  0  0  0  0  0  0  0  0
  123.0660  105.2053  107.7644 C   0  0  0  0  0  0  0  0  0  0  0  0
  124.3241  105.5950  108.3080 C   0  0  0  0  0  0  0  0  0  0  0  0
  117.7746  106.0780  106.2519 C   0  0  0  0  0  0  0  0  0  0  0  0
  119.0924  106.4109  106.6287 C   0  0  0  0  0  0  0  0  0  0  0  0
  122.7870  105.8595  106.5847 C   0  0  0  0  0  0  0  0  0  0  0  0
  124.9590  106.5322  107.5227 C   0  0  0  0  0  0  0  0  0  0  0  0
  118.6424  103.8047  105.5209 C   0  0  0  0  0  0  0  0  0  0  0  0
  119.7139  104.0050  106.5784 C   0  0  0  0  0  0  0  0  0  0  0  0
  117.4038  104.6628  105.8302 C   0  0  2  0  0  0  0  0  0  0  0  0
  116.4574  104.6059  104.6241 C   0  0  0  0  0  0  0  0  0  0  0  0
  120.1556  105.4260  106.5646 N   0  0  1  0  0  0  0  0  0  0  0  0
  121.2132  107.1465  104.9598 O   0  0  0  0  0  0  0  0  0  0  0  0
  121.6171  104.6899  104.5728 O   0  0  0  0  0  0  0  0  0  0  0  0
  124.0389  106.9386  106.1368 S   0  0  0  0  0  0  0  0  0  0  0  0
  121.4212  105.8086  105.4682 S   0  0  0  0  0  0  0  0  0  0  0  0
  126.4808  107.2724  107.7928 Cl  0  0  0  0  0  0  0  0  0  0  0  0
  116.3160  109.1151  106.8520 H   0  0  0  0  0  0  0  0  0  0  0  0
  118.6487  109.6872  107.4600 H   0  0  0  0  0  0  0  0  0  0  0  0
  115.7487  106.8391  106.1120 H   0  0  0  0  0  0  0  0  0  0  0  0
  120.4026  107.9991  107.3423 H   0  0  0  0  0  0  0  0  0  0  0  0
  122.4008  104.4821  108.2182 H   0  0  0  0  0  0  0  0  0  0  0  0
  124.7360  105.2043  109.2299 H   0  0  0  0  0  0  0  0  0  0  0  0
  119.0368  104.0491  104.5307 H   0  0  0  0  0  0  0  0  0  0  0  0
  118.3502  102.7486  105.5000 H   0  0  0  0  0  0  0  0  0  0  0  0
  119.2858  103.7767  107.5581 H   0  0  0  0  0  0  0  0  0  0  0  0
  120.5691  103.3460  106.4135 H   0  0  0  0  0  0  0  0  0  0  0  0
  116.8929  104.1578  106.6698 H   0  0  0  0  0  0  0  0  0  0  0  0
  116.9239  105.0941  103.7722 H   0  0  0  0  0  0  0  0  0  0  0  0
  115.5278  105.1144  104.8667 H   0  0  0  0  0  0  0  0  0  0  0  0
  116.2472  103.5688  104.3751 H   0  0  0  0  0  0  0  0  0  0  0  0
  1  2  2  0  0  0  0
  1  3  1  0  0  0  0
  2  4  1  0  0  0  0
  3  7  2  0  0  0  0
  4  8  2  0  0  0  0
  5  6  1  0  0  0  0
  5  9  2  0  0  0  0
  6 10  2  0  0  0  0
  7  8  1  0  0  0  0
  7 13  1  0  0  0  0
  8 15  1  0  0  0  0
  9 18  1  0  0  0  0
  9 19  1  0  0  0  0
 10 18  1  0  0  0  0
 10 20  1  0  0  0  0
 11 12  1  0  0  0  0
 11 13  1  0  0  0  0
 12 15  1  0  0  0  0
 13 14  1  0  0  0  0
 15 19  1  0  0  0  0
 16 19  2  0  0  0  0
 17 19  2  0  0  0  0
  1 21  1  0  0  0  0
  2 22  1  0  0  0  0
  3 23  1  0  0  0  0
  4 24  1  0  0  0  0
  5 25  1  0  0  0  0
  6 26  1  0  0  0  0
 11 27  1  0  0  0  0
 11 28  1  0  0  0  0
 12 29  1  0  0  0  0
 12 30  1  0  0  0  0
 13 31  1  0  0  0  0
 14 32  1  0  0  0  0
 14 33  1  0  0  0  0
 14 34  1  0  0  0  0
M  END
> <FRED Chemgauss4 score>
-9.891444

$$$$
C77257676	P120527372
  -OEChem-05122015313D

 62 63  0     1  0  0  0  0  0999 V2000
  126.3259  105.7601  108.5903 C   0  0  0  0  0  0  0  0  0  0  0  0
  126.1145  107.2387  108.2484 C   0  0  0  0  0  0  0  0  0  0  0  0
  123.3813  106.8532  109.7790 C   0  0  0  0  0  0  0  0  0  0  0  0
  123.6273  106.6068  108.2572 C   0  0  1  0  0  0  0  0  0  0  0  0
  125.4808  104.8040  107.7493 C   0  0  2  0  0  0  0  0  0  0  0  0
  123.0258  108.2915  110.1389 C   0  0  1  0  0  0  0  0  0  0  0  0
  124.0788  109.2608  109.6206 C   0  0  1  0  0  0  0  0  0  0  0  0
  124.7014  107.6216  107.7007 C   0  0  1  0  0  0  0  0  0  0  0  0
  123.9420  105.0682  107.9308 C   0  0  1  0  0  0  0  0  0  0  0  0
  124.3415  109.1241  108.1022 C   0  0  1  0  0  0  0  0  0  0  0  0
  125.9296  103.3581  108.0113 C   0  0  0  0  0  0  0  0  0  0  0  0
  124.7809  107.5726  106.1467 C   0  0  0  0  0  0  0  0  0  0  0  0
  123.3321  104.1234  109.0014 C   0  0  0  0  0  0  0  0  0  0  0  0
  123.1872  109.7160  107.2610 C   0  0  0  0  0  0  0  0  0  0  0  0
  119.4326  104.5598  105.6933 C   0  0  0  0  0  0  0  0  0  0  0  0
  123.2212  104.6710  106.6123 C   0  0  0  0  0  0  0  0  0  0  0  0
  121.7207  104.8233  106.7761 C   0  0  0  0  0  0  0  0  0  0  0  0
  121.4453  105.2812  104.3204 C   0  0  0  0  0  0  0  0  0  0  0  0
  120.8768  104.8669  102.9679 C   0  0  0  0  0  0  0  0  0  0  0  0
  120.9460  104.4238  105.5010 C   0  0  2  0  0  0  0  0  0  0  0  0
  121.7422  108.6174  109.6128 O   0  0  0  0  0  0  0  0  0  0  0  0
  123.6936  110.5995  109.9412 O   0  0  0  0  0  0  0  0  0  0  0  0
  125.4873  109.9489  107.8092 O   0  0  0  0  0  0  0  0  0  0  0  0
  121.2747  103.5281  102.6978 O   0  0  0  0  0  0  0  0  0  0  0  0
  127.4018  105.5386  108.4265 H   0  0  0  0  0  0  0  0  0  0  0  0
  126.1783  105.5678  109.6697 H   0  0  0  0  0  0  0  0  0  0  0  0
  126.3738  107.8398  109.1238 H   0  0  0  0  0  0  0  0  0  0  0  0
  126.8747  107.4950  107.4979 H   0  0  0  0  0  0  0  0  0  0  0  0
  122.5695  106.1960  110.1121 H   0  0  0  0  0  0  0  0  0  0  0  0
  124.2363  106.5344  110.3785 H   0  0  0  0  0  0  0  0  0  0  0  0
  122.7363  106.7960  107.7620 H   0  0  0  0  0  0  0  0  0  0  0  0
  125.7166  105.0061  106.6903 H   0  0  0  0  0  0  0  0  0  0  0  0
  122.9513  108.4014  111.2271 H   0  0  0  0  0  0  0  0  0  0  0  0
  125.0112  109.0789  110.1796 H   0  0  0  0  0  0  0  0  0  0  0  0
  125.7220  103.0990  109.0448 H   0  0  0  0  0  0  0  0  0  0  0  0
  126.9949  103.2725  107.8213 H   0  0  0  0  0  0  0  0  0  0  0  0
  125.3868  102.6882  107.3517 H   0  0  0  0  0  0  0  0  0  0  0  0
  123.8122  107.8349  105.7573 H   0  0  0  0  0  0  0  0  0  0  0  0
  125.0531  106.5712  105.8607 H   0  0  0  0  0  0  0  0  0  0  0  0
  125.5279  108.2805  105.8310 H   0  0  0  0  0  0  0  0  0  0  0  0
  123.5669  103.0966  108.7444 H   0  0  0  0  0  0  0  0  0  0  0  0
  122.2568  104.2597  109.0242 H   0  0  0  0  0  0  0  0  0  0  0  0
  123.7539  104.3653  109.9704 H   0  0  0  0  0  0  0  0  0  0  0  0
  123.4215  109.5945  106.2113 H   0  0  0  0  0  0  0  0  0  0  0  0
  123.0840  110.7667  107.4994 H   0  0  0  0  0  0  0  0  0  0  0  0
  122.2732  109.1886  107.5014 H   0  0  0  0  0  0  0  0  0  0  0  0
  119.1545  105.5948  105.9179 H   0  0  0  0  0  0  0  0  0  0  0  0
  118.8864  104.2478  104.7983 H   0  0  0  0  0  0  0  0  0  0  0  0
  119.0741  103.9264  106.5099 H   0  0  0  0  0  0  0  0  0  0  0  0
  123.6052  105.3167  105.8310 H   0  0  0  0  0  0  0  0  0  0  0  0
  123.5080  103.6479  106.4021 H   0  0  0  0  0  0  0  0  0  0  0  0
  121.4882  105.8687  107.0173 H   0  0  0  0  0  0  0  0  0  0  0  0
  121.3724  104.2211  107.6249 H   0  0  0  0  0  0  0  0  0  0  0  0
  121.2193  106.3410  104.4975 H   0  0  0  0  0  0  0  0  0  0  0  0
  122.5406  105.2241  104.2630 H   0  0  0  0  0  0  0  0  0  0  0  0
  121.2565  105.4999  102.1613 H   0  0  0  0  0  0  0  0  0  0  0  0
  119.7831  104.9085  102.9746 H   0  0  0  0  0  0  0  0  0  0  0  0
  121.1698  103.3722  105.2792 H   0  0  0  0  0  0  0  0  0  0  0  0
  121.1162  107.9966  110.0148 H   0  0  0  0  0  0  0  0  0  0  0  0
  123.6279  110.6447  110.9079 H   0  0  0  0  0  0  0  0  0  0  0  0
  125.6468  109.8596  106.8590 H   0  0  0  0  0  0  0  0  0  0  0  0
  120.8990  103.2944  101.8340 H   0  0  0  0  0  0  0  0  0  0  0  0
  1  2  1  0  0  0  0
  1  5  1  0  0  0  0
  2  8  1  0  0  0  0
  3  4  1  0  0  0  0
  3  6  1  0  0  0  0
  4  8  1  0  0  0  0
  4  9  1  0  0  0  0
  5  9  1  0  0  0  0
  5 11  1  0  0  0  0
  6  7  1  0  0  0  0
  6 21  1  0  0  0  0
  7 10  1  0  0  0  0
  7 22  1  0  0  0  0
  8 10  1  0  0  0  0
  8 12  1  0  0  0  0
  9 13  1  0  0  0  0
  9 16  1  0  0  0  0
 10 14  1  0  0  0  0
 10 23  1  0  0  0  0
 15 20  1  0  0  0  0
 16 17  1  0  0  0  0
 17 20  1  0  0  0  0
 18 19  1  0  0  0  0
 18 20  1  0  0  0  0
 19 24  1  0  0  0  0
  1 25  1  0  0  0  0
  1 26  1  0  0  0  0
  2 27  1  0  0  0  0
  2 28  1  0  0  0  0
  3 29  1  0  0  0  0
  3 30  1  0  0  0  0
  4 31  1  0  0  0  0
  5 32  1  0  0  0  0
  6 33  1  0  0  0  0
  7 34  1  0  0  0  0
 11 35  1  0  0  0  0
 11 36  1  0  0  0  0
 11 37  1  0  0  0  0
 12 38  1  0  0  0  0
 12 39  1  0  0  0  0
 12 40  1  0  0  0  0
 13 41  1  0  0  0  0
 13 42  1  0  0  0  0
 13 43  1  0  0  0  0
 14 44  1  0  0  0  0
 14 45  1  0  0  0  0
 14 46  1  0  0  0  0
 15 47  1  0  0  0  0
 15 48  1  0  0  0  0
 15 49  1  0  0  0  0
 16 50  1  0  0  0  0
 16 51  1  0  0  0  0
 17 52  1  0  0  0  0
 17 53  1  0  0  0  0
 18 54  1  0  0  0  0
 18 55  1  0  0  0  0
 19 56  1  0  0  0  0
 19 57  1  0  0  0  0
 20 58  1  0  0  0  0
 21 59  1  0  0  0  0
 22 60  1  0  0  0  0
 23 61  1  0  0  0  0
 24 62  1  0  0  0  0
M  END
> <FRED Chemgauss4 score>
-9.889319

$$$$
C94072275	P147433706
  -OEChem-05122015313D

 44 45  0     0  0  0  0  0  0999 V2000
  117.4868  104.3948  105.8394 C   0  0  0  0  0  0  0  0  0  0  0  0
  117.8121  105.6938  106.1726 C   0  0  0  0  0  0  0  0  0  0  0  0
  118.5268  103.4888  105.8835 C   0  0  0  0  0  0  0  0  0  0  0  0
  119.9806  105.1127  106.5290 C   0  0  0  0  0  0  0  0  0  0  0  0
  121.9206  106.3901  106.1820 C   0  0  0  0  0  0  0  0  0  0  0  0
  124.4563  109.5852  108.8313 C   0  0  0  0  0  0  0  0  0  0  0  0
  122.5237  108.4490  109.9453 C   0  0  0  0  0  0  0  0  0  0  0  0
  124.5518  108.3988  107.8727 C   0  0  0  0  0  0  0  0  0  0  0  0
  122.6788  107.2972  108.9529 C   0  0  0  0  0  0  0  0  0  0  0  0
  123.8495  109.1712  110.1682 C   0  0  0  0  0  0  0  0  0  0  0  0
  123.3350  106.6667  106.7222 C   0  0  0  0  0  0  0  0  0  0  0  0
  123.3246  111.2895  113.1344 C   0  0  0  0  0  0  0  0  0  0  0  0
  124.5056  112.2305  112.9687 C   0  0  0  0  0  0  0  0  0  0  0  0
  123.5220  110.0064  112.3402 C   0  0  0  0  0  0  0  0  0  0  0  0
  119.0534  106.0893  106.5236 N   0  0  0  0  0  0  0  0  0  0  0  0
  119.7907  103.8145  106.2252 N   0  0  0  0  0  0  0  0  0  0  0  0
  121.2882  105.4890  106.8907 N   0  0  0  0  0  0  0  0  0  0  0  0
  123.2376  107.7696  107.6780 N   0  0  0  0  0  0  0  0  0  0  0  0
  125.7271  111.5742  113.4934 N   0  3  0  0  0  0  0  0  0  0  0  0
  121.5711  107.0346  105.1669 O   0  5  0  0  0  0  0  0  0  0  0  0
  123.6434  110.3323  110.9625 O   0  0  0  0  0  0  0  0  0  0  0  0
  116.4822  104.1056  105.5616 H   0  0  0  0  0  0  0  0  0  0  0  0
  117.0608  106.4763  106.1664 H   0  0  0  0  0  0  0  0  0  0  0  0
  118.3678  102.4443  105.6379 H   0  0  0  0  0  0  0  0  0  0  0  0
  125.4502  110.0196  108.9942 H   0  0  0  0  0  0  0  0  0  0  0  0
  123.8534  110.3853  108.3811 H   0  0  0  0  0  0  0  0  0  0  0  0
  121.7695  109.1602  109.5826 H   0  0  0  0  0  0  0  0  0  0  0  0
  122.1409  108.0725  110.9015 H   0  0  0  0  0  0  0  0  0  0  0  0
  124.9342  108.7655  106.9124 H   0  0  0  0  0  0  0  0  0  0  0  0
  125.2797  107.6722  108.2570 H   0  0  0  0  0  0  0  0  0  0  0  0
  123.3130  106.5156  109.3918 H   0  0  0  0  0  0  0  0  0  0  0  0
  121.6885  106.8571  108.7835 H   0  0  0  0  0  0  0  0  0  0  0  0
  124.5487  108.5165  110.7019 H   0  0  0  0  0  0  0  0  0  0  0  0
  123.7598  105.7792  107.2051 H   0  0  0  0  0  0  0  0  0  0  0  0
  123.9923  106.9516  105.8930 H   0  0  0  0  0  0  0  0  0  0  0  0
  122.3962  111.7775  112.8110 H   0  0  0  0  0  0  0  0  0  0  0  0
  123.1762  111.0418  114.1932 H   0  0  0  0  0  0  0  0  0  0  0  0
  124.3745  113.1569  113.5356 H   0  0  0  0  0  0  0  0  0  0  0  0
  124.6981  112.4655  111.9177 H   0  0  0  0  0  0  0  0  0  0  0  0
  122.6670  109.3345  112.4652 H   0  0  0  0  0  0  0  0  0  0  0  0
  124.4325  109.4875  112.6567 H   0  0  0  0  0  0  0  0  0  0  0  0
  125.9942  110.7738  112.9100 H   0  0  0  0  0  0  0  0  0  0  0  0
  125.5783  111.2319  114.4492 H   0  0  0  0  0  0  0  0  0  0  0  0
  126.5171  112.2285  113.5121 H   0  0  0  0  0  0  0  0  0  0  0  0
  1  2  1  0  0  0  0
  1  3  2  0  0  0  0
  2 15  2  0  0  0  0
  3 16  1  0  0  0  0
  4 15  1  0  0  0  0
  4 16  2  0  0  0  0
  4 17  1  0  0  0  0
  5 11  1  0  0  0  0
  5 17  2  0  0  0  0
  5 20  1  0  0  0  0
  6  8  1  0  0  0  0
  6 10  1  0  0  0  0
  7  9  1  0  0  0  0
  7 10  1  0  0  0  0
  8 18  1  0  0  0  0
  9 18  1  0  0  0  0
 10 21  1  0  0  0  0
 11 18  1  0  0  0  0
 12 13  1  0  0  0  0
 12 14  1  0  0  0  0
 13 19  1  0  0  0  0
 14 21  1  0  0  0  0
  1 22  1  0  0  0  0
  2 23  1  0  0  0  0
  3 24  1  0  0  0  0
  6 25  1  0  0  0  0
  6 26  1  0  0  0  0
  7 27  1  0  0  0  0
  7 28  1  0  0  0  0
  8 29  1  0  0  0  0
  8 30  1  0  0  0  0
  9 31  1  0  0  0  0
  9 32  1  0  0  0  0
 10 33  1  0  0  0  0
 11 34  1  0  0  0  0
 11 35  1  0  0  0  0
 12 36  1  0  0  0  0
 12 37  1  0  0  0  0
 13 38  1  0  0  0  0
 13 39  1  0  0  0  0
 14 40  1  0  0  0  0
 14 41  1  0  0  0  0
 19 42  1  0  0  0  0
 19 43  1  0  0  0  0
 19 44  1  0  0  0  0
M  CHG  2  19   1  20  -1
M  END
> <FRED Chemgauss4 score>
-9.885394

$$$$
C97535031	P154539735
  -OEChem-05122015313D

 40 42  0     1  0  0  0  0  0999 V2000
  123.8289  107.9016  107.3032 C   0  0  0  0  0  0  0  0  0  0  0  0
  123.9354  109.0737  108.0497 C   0  0  0  0  0  0  0  0  0  0  0  0
  123.4842  106.6734  109.3393 C   0  0  0  0  0  0  0  0  0  0  0  0
  123.8046  110.1368  111.4739 C   0  0  0  0  0  0  0  0  0  0  0  0
  123.5807  108.9466  112.1133 C   0  0  0  0  0  0  0  0  0  0  0  0
  123.6026  106.6962  107.9507 C   0  0  0  0  0  0  0  0  0  0  0  0
  123.8188  109.0619  109.4377 C   0  0  0  0  0  0  0  0  0  0  0  0
  123.5890  107.8390  110.0946 C   0  0  0  0  0  0  0  0  0  0  0  0
  118.3830  104.4813  106.3408 C   0  0  0  0  0  0  0  0  0  0  0  0
  119.0843  105.7919  106.0864 C   0  0  0  0  0  0  0  0  0  0  0  0
  119.4043  103.4789  105.8469 C   0  0  0  0  0  0  0  0  0  0  0  0
  120.5202  105.4390  106.4337 C   0  0  2  0  0  0  0  0  0  0  0  0
  121.5441  106.3070  105.7283 C   0  0  0  0  0  0  0  0  0  0  0  0
  122.9318  105.6577  105.7411 C   0  0  0  0  0  0  0  0  0  0  0  0
  123.4860  105.4331  107.1679 C   0  0  1  0  0  0  0  0  0  0  0  0
  123.9253  110.2059  110.1359 N   0  0  0  0  0  0  0  0  0  0  0  0
  123.4713  107.7912  111.4331 N   0  0  0  0  0  0  0  0  0  0  0  0
  124.5594  103.3944  106.7710 N   0  0  0  0  0  0  0  0  0  0  0  0
  124.7745  104.7639  107.1175 N   0  0  0  0  0  0  0  0  0  0  0  0
  120.6987  104.0649  106.0509 O   0  0  0  0  0  0  0  0  0  0  0  0
  123.9252  107.9427  106.2219 H   0  0  0  0  0  0  0  0  0  0  0  0
  124.1131  110.0126  107.5288 H   0  0  0  0  0  0  0  0  0  0  0  0
  123.3064  105.7247  109.8435 H   0  0  0  0  0  0  0  0  0  0  0  0
  123.8948  111.0720  112.0116 H   0  0  0  0  0  0  0  0  0  0  0  0
  123.4825  108.8796  113.1894 H   0  0  0  0  0  0  0  0  0  0  0  0
  118.2192  104.3497  107.4169 H   0  0  0  0  0  0  0  0  0  0  0  0
  117.4181  104.3924  105.8350 H   0  0  0  0  0  0  0  0  0  0  0  0
  118.9893  106.0601  105.0271 H   0  0  0  0  0  0  0  0  0  0  0  0
  118.6924  106.6180  106.6861 H   0  0  0  0  0  0  0  0  0  0  0  0
  119.3446  102.5234  106.3757 H   0  0  0  0  0  0  0  0  0  0  0  0
  119.2892  103.2923  104.7739 H   0  0  0  0  0  0  0  0  0  0  0  0
  120.6716  105.4939  107.5189 H   0  0  0  0  0  0  0  0  0  0  0  0
  121.2149  106.4775  104.6971 H   0  0  0  0  0  0  0  0  0  0  0  0
  121.5865  107.2847  106.2226 H   0  0  0  0  0  0  0  0  0  0  0  0
  122.8742  104.6889  105.2274 H   0  0  0  0  0  0  0  0  0  0  0  0
  123.6239  106.2819  105.1610 H   0  0  0  0  0  0  0  0  0  0  0  0
  122.8171  104.7149  107.6776 H   0  0  0  0  0  0  0  0  0  0  0  0
  124.8785  102.7976  107.5337 H   0  0  0  0  0  0  0  0  0  0  0  0
  123.5573  103.2279  106.6880 H   0  0  0  0  0  0  0  0  0  0  0  0
  125.3608  105.1990  106.4044 H   0  0  0  0  0  0  0  0  0  0  0  0
  1  2  1  0  0  0  0
  1  6  2  0  0  0  0
  2  7  2  0  0  0  0
  3  6  1  0  0  0  0
  3  8  2  0  0  0  0
  4  5  1  0  0  0  0
  4 16  2  0  0  0  0
  5 17  2  0  0  0  0
  6 15  1  0  0  0  0
  7  8  1  0  0  0  0
  7 16  1  0  0  0  0
  8 17  1  0  0  0  0
  9 10  1  0  0  0  0
  9 11  1  0  0  0  0
 10 12  1  0  0  0  0
 11 20  1  0  0  0  0
 12 13  1  0  0  0  0
 12 20  1  0  0  0  0
 13 14  1  0  0  0  0
 14 15  1  0  0  0  0
 15 19  1  0  0  0  0
 18 19  1  0  0  0  0
  1 21  1  0  0  0  0
  2 22  1  0  0  0  0
  3 23  1  0  0  0  0
  4 24  1  0  0  0  0
  5 25  1  0  0  0  0
  9 26  1  0  0  0  0
  9 27  1  0  0  0  0
 10 28  1  0  0  0  0
 10 29  1  0  0  0  0
 11 30  1  0  0  0  0
 11 31  1  0  0  0  0
 12 32  1  0  0  0  0
 13 33  1  0  0  0  0
 13 34  1  0  0  0  0
 14 35  1  0  0  0  0
 14 36  1  0  0  0  0
 15 37  1  0  0  0  0
 18 38  1  0  0  0  0
 18 39  1  0  0  0  0
 19 40  1  0  0  0  0
M  END
> <FRED Chemgauss4 score>
-9.883870

$$$$
C72199958	P112158429
  -OEChem-05122015313D

 47 48  0     1  0  0  0  0  0999 V2000
  118.7497  107.9111  104.4465 C   0  0  0  0  0  0  0  0  0  0  0  0
  118.1796  107.7385  106.7880 C   0  0  0  0  0  0  0  0  0  0  0  0
  120.0286  107.4275  104.7222 C   0  0  0  0  0  0  0  0  0  0  0  0
  119.4585  107.2548  107.0637 C   0  0  0  0  0  0  0  0  0  0  0  0
  124.5180  108.9398  109.7630 C   0  0  0  0  0  0  0  0  0  0  0  0
  121.9768  108.7874  108.6222 C   0  0  0  0  0  0  0  0  0  0  0  0
  117.8252  108.0667  105.4794 C   0  0  0  0  0  0  0  0  0  0  0  0
  124.3552  108.3826  108.4947 C   0  0  0  0  0  0  0  0  0  0  0  0
  123.0847  108.3065  107.9243 C   0  0  0  0  0  0  0  0  0  0  0  0
  123.4102  109.4207  110.4610 C   0  0  0  0  0  0  0  0  0  0  0  0
  122.1396  109.3446  109.8905 C   0  0  0  0  0  0  0  0  0  0  0  0
  120.3830  107.0993  106.0308 C   0  0  0  0  0  0  0  0  0  0  0  0
  116.4579  108.5845  105.1851 C   0  0  0  0  0  0  0  0  0  0  0  0
  123.8302  111.3657  111.7635 C   0  0  0  0  0  0  0  0  0  0  0  0
  119.7875  109.6956  109.9090 C   0  0  0  0  0  0  0  0  0  0  0  0
  125.9075  106.4186  108.1198 C   0  0  0  0  0  0  0  0  0  0  0  0
  125.5706  107.8795  107.7813 C   0  0  2  0  0  0  0  0  0  0  0  0
  122.9036  107.7697  106.6931 N   0  5  0  0  0  0  0  0  0  0  0  0
  126.7960  108.7043  108.0635 N   0  3  0  0  0  0  0  0  0  0  0  0
  121.7996  105.5947  107.5319 O   0  0  0  0  0  0  0  0  0  0  0  0
  122.3768  105.7689  105.1522 O   0  0  0  0  0  0  0  0  0  0  0  0
  124.7909  105.5695  107.8778 O   0  0  0  0  0  0  0  0  0  0  0  0
  123.5817  109.9628  111.6991 O   0  0  0  0  0  0  0  0  0  0  0  0
  121.0500  109.8109  110.5624 O   0  0  0  0  0  0  0  0  0  0  0  0
  121.9830  106.4918  106.3758 S   0  0  0  0  0  0  0  0  0  0  0  0
  118.4826  108.1646  103.4241 H   0  0  0  0  0  0  0  0  0  0  0  0
  117.4660  107.8568  107.5991 H   0  0  0  0  0  0  0  0  0  0  0  0
  120.7415  107.3106  103.9103 H   0  0  0  0  0  0  0  0  0  0  0  0
  119.7242  107.0025  108.0869 H   0  0  0  0  0  0  0  0  0  0  0  0
  125.5069  109.0013  110.2112 H   0  0  0  0  0  0  0  0  0  0  0  0
  120.9795  108.7344  108.1890 H   0  0  0  0  0  0  0  0  0  0  0  0
  115.7763  107.7557  104.9578 H   0  0  0  0  0  0  0  0  0  0  0  0
  116.0521  109.1450  106.0372 H   0  0  0  0  0  0  0  0  0  0  0  0
  116.4679  109.2716  104.3289 H   0  0  0  0  0  0  0  0  0  0  0  0
  123.9479  111.6681  112.8069 H   0  0  0  0  0  0  0  0  0  0  0  0
  122.9960  111.9056  111.3083 H   0  0  0  0  0  0  0  0  0  0  0  0
  124.7487  111.5895  111.2158 H   0  0  0  0  0  0  0  0  0  0  0  0
  119.0047  110.1043  110.5525 H   0  0  0  0  0  0  0  0  0  0  0  0
  119.5834  108.6441  109.6917 H   0  0  0  0  0  0  0  0  0  0  0  0
  119.8185  110.2595  108.9737 H   0  0  0  0  0  0  0  0  0  0  0  0
  126.1766  106.3176  109.1773 H   0  0  0  0  0  0  0  0  0  0  0  0
  126.7501  106.0460  107.5271 H   0  0  0  0  0  0  0  0  0  0  0  0
  125.4485  107.9688  106.6901 H   0  0  0  0  0  0  0  0  0  0  0  0
  127.0239  109.2755  107.2516 H   0  0  0  0  0  0  0  0  0  0  0  0
  127.5840  108.0932  108.2717 H   0  0  0  0  0  0  0  0  0  0  0  0
  126.6274  109.3136  108.8621 H   0  0  0  0  0  0  0  0  0  0  0  0
  125.0703  104.6699  108.1102 H   0  0  0  0  0  0  0  0  0  0  0  0
  1  3  2  0  0  0  0
  1  7  1  0  0  0  0
  2  4  1  0  0  0  0
  2  7  2  0  0  0  0
  3 12  1  0  0  0  0
  4 12  2  0  0  0  0
  5  8  1  0  0  0  0
  5 10  2  0  0  0  0
  6  9  1  0  0  0  0
  6 11  2  0  0  0  0
  7 13  1  0  0  0  0
  8  9  2  0  0  0  0
  8 17  1  0  0  0  0
  9 18  1  0  0  0  0
 10 11  1  0  0  0  0
 10 23  1  0  0  0  0
 11 24  1  0  0  0  0
 12 25  1  0  0  0  0
 14 23  1  0  0  0  0
 15 24  1  0  0  0  0
 16 17  1  0  0  0  0
 16 22  1  0  0  0  0
 17 19  1  0  0  0  0
 18 25  1  0  0  0  0
 20 25  2  0  0  0  0
 21 25  2  0  0  0  0
  1 26  1  0  0  0  0
  2 27  1  0  0  0  0
  3 28  1  0  0  0  0
  4 29  1  0  0  0  0
  5 30  1  0  0  0  0
  6 31  1  0  0  0  0
 13 32  1  0  0  0  0
 13 33  1  0  0  0  0
 13 34  1  0  0  0  0
 14 35  1  0  0  0  0
 14 36  1  0  0  0  0
 14 37  1  0  0  0  0
 15 38  1  0  0  0  0
 15 39  1  0  0  0  0
 15 40  1  0  0  0  0
 16 41  1  0  0  0  0
 16 42  1  0  0  0  0
 17 43  1  0  0  0  0
 19 44  1  0  0  0  0
 19 45  1  0  0  0  0
 19 46  1  0  0  0  0
 22 47  1  0  0  0  0
M  CHG  2  18  -1  19   1
M  END
> <FRED Chemgauss4 score>
-9.880253

$$$$
C49753446	P74337722
  -OEChem-05122015313D

 38 38  0     1  0  0  0  0  0999 V2000
  123.1687  105.7809  106.3627 C   0  0  0  0  0  0  0  0  0  0  0  0
  120.5626  104.0317  104.6616 C   0  0  0  0  0  0  0  0  0  0  0  0
  119.1454  104.3001  104.1688 C   0  0  0  0  0  0  0  0  0  0  0  0
  119.6716  105.1517  106.6413 C   0  0  0  0  0  0  0  0  0  0  0  0
  120.8666  105.1248  105.6892 C   0  0  1  0  0  0  0  0  0  0  0  0
  124.3298  105.2686  107.1761 C   0  0  0  0  0  0  0  0  0  0  0  0
  125.7509  105.7305  109.0574 C   0  0  0  0  0  0  0  0  0  0  0  0
  123.4466  106.4096  109.0971 C   0  0  0  0  0  0  0  0  0  0  0  0
  127.0548  106.0808  108.3640 C   0  0  0  0  0  0  0  0  0  0  0  0
  123.5659  107.7227  109.8489 C   0  0  0  0  0  0  0  0  0  0  0  0
  122.1042  104.8892  106.3789 N   0  0  0  0  0  0  0  0  0  0  0  0
  124.6274  106.2149  108.2612 N   0  0  0  0  0  0  0  0  0  0  0  0
  123.1813  106.8563  105.7696 O   0  0  0  0  0  0  0  0  0  0  0  0
  117.6149  106.1208  105.3024 O   0  0  0  0  0  0  0  0  0  0  0  0
  117.5042  103.7338  106.1547 O   0  0  0  0  0  0  0  0  0  0  0  0
  127.1331  107.4898  108.1893 O   0  0  0  0  0  0  0  0  0  0  0  0
  122.3979  107.9251  110.6341 O   0  0  0  0  0  0  0  0  0  0  0  0
  118.2436  104.8529  105.6088 S   0  0  0  0  0  0  0  0  0  0  0  0
  120.6513  103.0266  105.0776 H   0  0  0  0  0  0  0  0  0  0  0  0
  121.2609  104.1190  103.8240 H   0  0  0  0  0  0  0  0  0  0  0  0
  119.1112  105.0695  103.3947 H   0  0  0  0  0  0  0  0  0  0  0  0
  118.6703  103.3845  103.8051 H   0  0  0  0  0  0  0  0  0  0  0  0
  119.7179  104.3962  107.4267 H   0  0  0  0  0  0  0  0  0  0  0  0
  119.5493  106.1458  107.0787 H   0  0  0  0  0  0  0  0  0  0  0  0
  120.9766  106.1040  105.1936 H   0  0  0  0  0  0  0  0  0  0  0  0
  124.0772  104.2950  107.6063 H   0  0  0  0  0  0  0  0  0  0  0  0
  125.2124  105.1647  106.5381 H   0  0  0  0  0  0  0  0  0  0  0  0
  125.6441  104.6479  109.1783 H   0  0  0  0  0  0  0  0  0  0  0  0
  125.7026  106.2074  110.0411 H   0  0  0  0  0  0  0  0  0  0  0  0
  123.3711  105.5629  109.7867 H   0  0  0  0  0  0  0  0  0  0  0  0
  122.5666  106.4216  108.4469 H   0  0  0  0  0  0  0  0  0  0  0  0
  127.0896  105.6152  107.3741 H   0  0  0  0  0  0  0  0  0  0  0  0
  127.9215  105.7493  108.9451 H   0  0  0  0  0  0  0  0  0  0  0  0
  123.6455  108.5538  109.1413 H   0  0  0  0  0  0  0  0  0  0  0  0
  124.4396  107.7308  110.5088 H   0  0  0  0  0  0  0  0  0  0  0  0
  122.2062  104.0256  106.9058 H   0  0  0  0  0  0  0  0  0  0  0  0
  127.9771  107.6698  107.7449 H   0  0  0  0  0  0  0  0  0  0  0  0
  122.5146  108.7709  111.0959 H   0  0  0  0  0  0  0  0  0  0  0  0
  1  6  1  0  0  0  0
  1 11  1  0  0  0  0
  1 13  2  0  0  0  0
  2  3  1  0  0  0  0
  2  5  1  0  0  0  0
  3 18  1  0  0  0  0
  4  5  1  0  0  0  0
  4 18  1  0  0  0  0
  5 11  1  0  0  0  0
  6 12  1  0  0  0  0
  7  9  1  0  0  0  0
  7 12  1  0  0  0  0
  8 10  1  0  0  0  0
  8 12  1  0  0  0  0
  9 16  1  0  0  0  0
 10 17  1  0  0  0  0
 14 18  2  0  0  0  0
 15 18  2  0  0  0  0
  2 19  1  0  0  0  0
  2 20  1  0  0  0  0
  3 21  1  0  0  0  0
  3 22  1  0  0  0  0
  4 23  1  0  0  0  0
  4 24  1  0  0  0  0
  5 25  1  0  0  0  0
  6 26  1  0  0  0  0
  6 27  1  0  0  0  0
  7 28  1  0  0  0  0
  7 29  1  0  0  0  0
  8 30  1  0  0  0  0
  8 31  1  0  0  0  0
  9 32  1  0  0  0  0
  9 33  1  0  0  0  0
 10 34  1  0  0  0  0
 10 35  1  0  0  0  0
 11 36  1  0  0  0  0
 16 37  1  0  0  0  0
 17 38  1  0  0  0  0
M  END
> <FRED Chemgauss4 score>
-9.878507

$$$$
C04962298	P07250663
  -OEChem-05122015313D

 41 42  0     1  0  0  0  0  0999 V2000
  124.5689  106.9226  107.0497 C   0  0  0  0  0  0  0  0  0  0  0  0
  122.6808  105.4367  107.3030 C   0  0  0  0  0  0  0  0  0  0  0  0
  120.9324  107.7581  105.1143 C   0  0  0  0  0  0  0  0  0  0  0  0
  119.8166  107.2579  107.1980 C   0  0  0  0  0  0  0  0  0  0  0  0
  125.4260  105.8237  106.9916 C   0  0  0  0  0  0  0  0  0  0  0  0
  123.5379  104.3377  107.2449 C   0  0  0  0  0  0  0  0  0  0  0  0
  119.7520  107.4955  104.4191 C   0  0  0  0  0  0  0  0  0  0  0  0
  118.6362  106.9954  106.5029 C   0  0  0  0  0  0  0  0  0  0  0  0
  123.1963  106.7291  107.2054 C   0  0  0  0  0  0  0  0  0  0  0  0
  120.9648  107.6393  106.5037 C   0  0  0  0  0  0  0  0  0  0  0  0
  124.9105  104.5313  107.0892 C   0  0  0  0  0  0  0  0  0  0  0  0
  118.6039  107.1142  105.1134 C   0  0  0  0  0  0  0  0  0  0  0  0
  124.2022  109.9985  111.6191 C   0  0  0  0  0  0  0  0  0  0  0  0
  122.2596  107.9290  107.2672 C   0  0  0  0  0  0  0  0  0  0  0  0
  123.0346  109.9324  110.6301 C   0  0  2  0  0  0  0  0  0  0  0  0
  122.0202  108.4762  108.7044 C   0  0  1  0  0  0  0  0  0  0  0  0
  123.2888  109.0203  109.4117 C   0  0  2  0  0  0  0  0  0  0  0  0
  123.7791  110.4739  112.8889 O   0  0  0  0  0  0  0  0  0  0  0  0
  122.7247  111.2592  110.2106 O   0  0  0  0  0  0  0  0  0  0  0  0
  121.0465  109.5244  108.6178 O   0  0  0  0  0  0  0  0  0  0  0  0
  124.0723  107.8949  109.8219 O   0  0  0  0  0  0  0  0  0  0  0  0
  125.9680  103.1758  107.0174 Cl  0  0  0  0  0  0  0  0  0  0  0  0
  117.1478  106.7905  104.2557 Cl  0  0  0  0  0  0  0  0  0  0  0  0
  124.9783  107.9265  106.9731 H   0  0  0  0  0  0  0  0  0  0  0  0
  121.6126  105.2773  107.4242 H   0  0  0  0  0  0  0  0  0  0  0  0
  121.8229  108.0545  104.5661 H   0  0  0  0  0  0  0  0  0  0  0  0
  119.8335  107.1633  108.2806 H   0  0  0  0  0  0  0  0  0  0  0  0
  126.4932  105.9899  106.8697 H   0  0  0  0  0  0  0  0  0  0  0  0
  123.1220  103.3365  107.3223 H   0  0  0  0  0  0  0  0  0  0  0  0
  119.7417  107.5925  103.3365 H   0  0  0  0  0  0  0  0  0  0  0  0
  117.7494  106.6991  107.0572 H   0  0  0  0  0  0  0  0  0  0  0  0
  124.9669  110.6894  111.2487 H   0  0  0  0  0  0  0  0  0  0  0  0
  124.6508  109.0085  111.7497 H   0  0  0  0  0  0  0  0  0  0  0  0
  122.7376  108.7562  106.7227 H   0  0  0  0  0  0  0  0  0  0  0  0
  122.1654  109.5653  111.1847 H   0  0  0  0  0  0  0  0  0  0  0  0
  121.5768  107.7060  109.3460 H   0  0  0  0  0  0  0  0  0  0  0  0
  123.9001  109.5734  108.6902 H   0  0  0  0  0  0  0  0  0  0  0  0
  124.5649  110.4892  113.4594 H   0  0  0  0  0  0  0  0  0  0  0  0
  122.4840  111.7521  111.0102 H   0  0  0  0  0  0  0  0  0  0  0  0
  121.4269  110.1963  108.0349 H   0  0  0  0  0  0  0  0  0  0  0  0
  124.2052  107.3551  109.0294 H   0  0  0  0  0  0  0  0  0  0  0  0
  1  5  1  0  0  0  0
  1  9  2  0  0  0  0
  2  6  2  0  0  0  0
  2  9  1  0  0  0  0
  3  7  2  0  0  0  0
  3 10  1  0  0  0  0
  4  8  1  0  0  0  0
  4 10  2  0  0  0  0
  5 11  2  0  0  0  0
  6 11  1  0  0  0  0
  7 12  1  0  0  0  0
  8 12  2  0  0  0  0
  9 14  1  0  0  0  0
 10 14  1  0  0  0  0
 11 22  1  0  0  0  0
 12 23  1  0  0  0  0
 13 15  1  0  0  0  0
 13 18  1  0  0  0  0
 14 16  1  0  0  0  0
 15 17  1  0  0  0  0
 15 19  1  0  0  0  0
 16 17  1  0  0  0  0
 16 20  1  0  0  0  0
 17 21  1  0  0  0  0
  1 24  1  0  0  0  0
  2 25  1  0  0  0  0
  3 26  1  0  0  0  0
  4 27  1  0  0  0  0
  5 28  1  0  0  0  0
  6 29  1  0  0  0  0
  7 30  1  0  0  0  0
  8 31  1  0  0  0  0
 13 32  1  0  0  0  0
 13 33  1  0  0  0  0
 14 34  1  0  0  0  0
 15 35  1  0  0  0  0
 16 36  1  0  0  0  0
 17 37  1  0  0  0  0
 18 38  1  0  0  0  0
 19 39  1  0  0  0  0
 20 40  1  0  0  0  0
 21 41  1  0  0  0  0
M  END
> <FRED Chemgauss4 score>
-9.878352

$$$$
C13640670	P155893162
  -OEChem-05122015313D

 32 35  0     0  0  0  0  0  0999 V2000
  127.4373  105.4882  108.9862 C   0  0  0  0  0  0  0  0  0  0  0  0
  127.4612  106.6775  108.2547 C   0  0  0  0  0  0  0  0  0  0  0  0
  118.8021  105.0911  106.5999 C   0  0  0  0  0  0  0  0  0  0  0  0
  119.6981  103.8439  104.7348 C   0  0  0  0  0  0  0  0  0  0  0  0
  126.3153  104.6507  108.9666 C   0  0  0  0  0  0  0  0  0  0  0  0
  126.3683  107.0755  107.4777 C   0  0  0  0  0  0  0  0  0  0  0  0
  117.5638  105.1566  105.9613 C   0  0  0  0  0  0  0  0  0  0  0  0
  118.4598  103.9093  104.0961 C   0  0  0  0  0  0  0  0  0  0  0  0
  119.8693  104.4348  105.9867 C   0  0  0  0  0  0  0  0  0  0  0  0
  125.2047  105.0298  108.1929 C   0  0  0  0  0  0  0  0  0  0  0  0
  125.2576  106.2293  107.4695 C   0  0  0  0  0  0  0  0  0  0  0  0
  117.3926  104.5657  104.7094 C   0  0  0  0  0  0  0  0  0  0  0  0
  123.3338  105.1676  107.2029 C   0  0  0  0  0  0  0  0  0  0  0  0
  122.1029  105.2874  106.5337 C   0  0  0  0  0  0  0  0  0  0  0  0
  123.3928  107.1506  105.9940 C   0  0  0  0  0  0  0  0  0  0  0  0
  121.1412  104.3663  106.6438 C   0  0  0  0  0  0  0  0  0  0  0  0
  122.0195  106.5552  105.7023 C   0  0  0  0  0  0  0  0  0  0  0  0
  123.9937  104.3811  108.0125 N   0  0  0  0  0  0  0  0  0  0  0  0
  124.0404  106.2768  106.8521 N   0  0  0  0  0  0  0  0  0  0  0  0
  123.9089  108.1776  105.6021 O   0  0  0  0  0  0  0  0  0  0  0  0
  115.7144  104.6542  103.8440 Br  0  0  0  0  0  0  0  0  0  0  0  0
  128.3028  105.2074  109.5812 H   0  0  0  0  0  0  0  0  0  0  0  0
  128.3471  107.3069  108.2899 H   0  0  0  0  0  0  0  0  0  0  0  0
  118.9207  105.5558  107.5758 H   0  0  0  0  0  0  0  0  0  0  0  0
  120.5210  103.3286  104.2451 H   0  0  0  0  0  0  0  0  0  0  0  0
  126.3087  103.7282  109.5384 H   0  0  0  0  0  0  0  0  0  0  0  0
  126.3905  107.9993  106.9109 H   0  0  0  0  0  0  0  0  0  0  0  0
  116.7429  105.6724  106.4529 H   0  0  0  0  0  0  0  0  0  0  0  0
  118.3435  103.4438  103.1207 H   0  0  0  0  0  0  0  0  0  0  0  0
  121.3297  103.5182  107.3007 H   0  0  0  0  0  0  0  0  0  0  0  0
  121.9283  106.3410  104.6348 H   0  0  0  0  0  0  0  0  0  0  0  0
  121.2395  107.2310  106.0613 H   0  0  0  0  0  0  0  0  0  0  0  0
  1  2  1  0  0  0  0
  1  5  2  0  0  0  0
  2  6  2  0  0  0  0
  3  7  2  0  0  0  0
  3  9  1  0  0  0  0
  4  8  1  0  0  0  0
  4  9  2  0  0  0  0
  5 10  1  0  0  0  0
  6 11  1  0  0  0  0
  7 12  1  0  0  0  0
  8 12  2  0  0  0  0
  9 16  1  0  0  0  0
 10 11  2  0  0  0  0
 10 18  1  0  0  0  0
 11 19  1  0  0  0  0
 12 21  1  0  0  0  0
 13 14  1  0  0  0  0
 13 18  2  0  0  0  0
 13 19  1  0  0  0  0
 14 16  2  0  0  0  0
 14 17  1  0  0  0  0
 15 17  1  0  0  0  0
 15 19  1  0  0  0  0
 15 20  2  0  0  0  0
  1 22  1  0  0  0  0
  2 23  1  0  0  0  0
  3 24  1  0  0  0  0
  4 25  1  0  0  0  0
  5 26  1  0  0  0  0
  6 27  1  0  0  0  0
  7 28  1  0  0  0  0
  8 29  1  0  0  0  0
 16 30  1  0  0  0  0
 17 31  1  0  0  0  0
 17 32  1  0  0  0  0
M  END
> <FRED Chemgauss4 score>
-9.875682

$$$$
C79970268	P124969563
  -OEChem-05122015313D

 43 44  0     1  0  0  0  0  0999 V2000
  123.8226  106.8782  108.5104 C   0  0  0  0  0  0  0  0  0  0  0  0
  123.8271  107.7994  107.4840 C   0  0  0  0  0  0  0  0  0  0  0  0
  122.3781  106.3812  106.6479 C   0  0  0  0  0  0  0  0  0  0  0  0
  120.0822  103.9049  106.5300 C   0  0  0  0  0  0  0  0  0  0  0  0
  118.7583  104.0903  105.7894 C   0  0  0  0  0  0  0  0  0  0  0  0
  119.4492  106.0119  104.2528 C   0  0  0  0  0  0  0  0  0  0  0  0
  121.3042  104.3373  105.7251 C   0  0  0  0  0  0  0  0  0  0  0  0
  120.7326  106.6290  104.8156 C   0  0  0  0  0  0  0  0  0  0  0  0
  118.4592  105.5274  105.3280 C   0  0  1  0  0  0  0  0  0  0  0  0
  116.6967  107.0158  104.3458 C   0  0  0  0  0  0  0  0  0  0  0  0
  116.0409  105.1188  105.8484 C   0  0  0  0  0  0  0  0  0  0  0  0
  116.9253  104.6492  103.5498 C   0  0  0  0  0  0  0  0  0  0  0  0
  124.6279  109.0390  107.4414 C   0  0  0  0  0  0  0  0  0  0  0  0
  117.0317  105.5778  104.7684 C   0  0  0  0  0  0  0  0  0  0  0  0
  122.9997  107.5159  106.4150 N   0  0  0  0  0  0  0  0  0  0  0  0
  121.4602  105.7905  105.7711 N   0  0  0  0  0  0  0  0  0  0  0  0
  124.1002  110.0796  108.2967 N   0  0  0  0  0  0  0  0  0  0  0  0
  122.7407  105.6020  108.1333 S   0  0  0  0  0  0  0  0  0  0  0  0
  124.3805  106.8923  109.4361 H   0  0  0  0  0  0  0  0  0  0  0  0
  120.0452  104.4398  107.4871 H   0  0  0  0  0  0  0  0  0  0  0  0
  120.1829  102.8390  106.7696 H   0  0  0  0  0  0  0  0  0  0  0  0
  118.7367  103.4148  104.9243 H   0  0  0  0  0  0  0  0  0  0  0  0
  117.9552  103.7531  106.4578 H   0  0  0  0  0  0  0  0  0  0  0  0
  118.9733  106.7878  103.6385 H   0  0  0  0  0  0  0  0  0  0  0  0
  119.6885  105.1955  103.5603 H   0  0  0  0  0  0  0  0  0  0  0  0
  122.1901  103.8612  106.1668 H   0  0  0  0  0  0  0  0  0  0  0  0
  121.2589  103.9732  104.6921 H   0  0  0  0  0  0  0  0  0  0  0  0
  121.3985  106.8723  103.9781 H   0  0  0  0  0  0  0  0  0  0  0  0
  120.4730  107.5798  105.2998 H   0  0  0  0  0  0  0  0  0  0  0  0
  118.4968  106.2004  106.1940 H   0  0  0  0  0  0  0  0  0  0  0  0
  115.6807  107.0838  103.9409 H   0  0  0  0  0  0  0  0  0  0  0  0
  117.3877  107.3724  103.5736 H   0  0  0  0  0  0  0  0  0  0  0  0
  116.7634  107.7036  105.1961 H   0  0  0  0  0  0  0  0  0  0  0  0
  115.0104  105.1443  105.4765 H   0  0  0  0  0  0  0  0  0  0  0  0
  116.2537  104.0932  106.1702 H   0  0  0  0  0  0  0  0  0  0  0  0
  116.0920  105.7632  106.7332 H   0  0  0  0  0  0  0  0  0  0  0  0
  115.9141  104.6645  103.1278 H   0  0  0  0  0  0  0  0  0  0  0  0
  117.1584  103.6129  103.8192 H   0  0  0  0  0  0  0  0  0  0  0  0
  117.6210  104.9527  102.7593 H   0  0  0  0  0  0  0  0  0  0  0  0
  125.6717  108.8651  107.7580 H   0  0  0  0  0  0  0  0  0  0  0  0
  124.6853  109.4647  106.4241 H   0  0  0  0  0  0  0  0  0  0  0  0
  124.2872  111.0374  108.0633 H   0  0  0  0  0  0  0  0  0  0  0  0
  123.7411  109.8268  109.1990 H   0  0  0  0  0  0  0  0  0  0  0  0
  1  2  2  0  0  0  0
  1 18  1  0  0  0  0
  2 13  1  0  0  0  0
  2 15  1  0  0  0  0
  3 15  2  0  0  0  0
  3 16  1  0  0  0  0
  3 18  1  0  0  0  0
  4  5  1  0  0  0  0
  4  7  1  0  0  0  0
  5  9  1  0  0  0  0
  6  8  1  0  0  0  0
  6  9  1  0  0  0  0
  7 16  1  0  0  0  0
  8 16  1  0  0  0  0
  9 14  1  0  0  0  0
 10 14  1  0  0  0  0
 11 14  1  0  0  0  0
 12 14  1  0  0  0  0
 13 17  1  0  0  0  0
  1 19  1  0  0  0  0
  4 20  1  0  0  0  0
  4 21  1  0  0  0  0
  5 22  1  0  0  0  0
  5 23  1  0  0  0  0
  6 24  1  0  0  0  0
  6 25  1  0  0  0  0
  7 26  1  0  0  0  0
  7 27  1  0  0  0  0
  8 28  1  0  0  0  0
  8 29  1  0  0  0  0
  9 30  1  0  0  0  0
 10 31  1  0  0  0  0
 10 32  1  0  0  0  0
 10 33  1  0  0  0  0
 11 34  1  0  0  0  0
 11 35  1  0  0  0  0
 11 36  1  0  0  0  0
 12 37  1  0  0  0  0
 12 38  1  0  0  0  0
 12 39  1  0  0  0  0
 13 40  1  0  0  0  0
 13 41  1  0  0  0  0
 17 42  1  0  0  0  0
 17 43  1  0  0  0  0
M  END
> <FRED Chemgauss4 score>
-9.874449

$$$$
C68645088	P105396542
  -OEChem-05122015313D

 50 51  0     1  0  0  0  0  0999 V2000
  125.2223  107.8168  107.5262 C   0  0  0  0  0  0  0  0  0  0  0  0
  117.9949  107.7225  103.8605 C   0  0  0  0  0  0  0  0  0  0  0  0
  118.5585  108.2059  105.1897 C   0  0  0  0  0  0  0  0  0  0  0  0
  119.4905  104.2973  106.8965 C   0  0  0  0  0  0  0  0  0  0  0  0
  118.1379  106.2075  103.8934 C   0  0  0  0  0  0  0  0  0  0  0  0
  118.9247  104.5574  105.4978 C   0  0  0  0  0  0  0  0  0  0  0  0
  120.8338  104.9758  107.2046 C   0  0  0  0  0  0  0  0  0  0  0  0
  119.6430  107.1266  107.2209 C   0  0  0  0  0  0  0  0  0  0  0  0
  118.6236  106.9551  106.0696 C   0  0  2  0  0  0  0  0  0  0  0  0
  122.3058  108.3969  107.1088 C   0  0  0  0  0  0  0  0  0  0  0  0
  124.1697  107.2785  109.7490 C   0  0  0  0  0  0  0  0  0  0  0  0
  126.0009  105.1262  107.3065 C   0  0  0  0  0  0  0  0  0  0  0  0
  123.2917  106.1434  107.6689 C   0  0  0  0  0  0  0  0  0  0  0  0
  122.0162  107.0168  107.7018 C   0  0  2  0  0  0  0  0  0  0  0  0
  124.5517  106.7177  108.3684 C   0  0  1  0  0  0  0  0  0  0  0  0
  118.9758  105.9483  105.0633 N   0  0  2  0  0  0  0  0  0  0  0  0
  120.9065  106.4268  106.9553 N   0  0  1  0  0  0  0  0  0  0  0  0
  126.3755  108.3347  108.0771 N   0  0  0  0  0  0  0  0  0  0  0  0
  125.5520  105.6633  108.5791 N   0  0  0  0  0  0  0  0  0  0  0  0
  124.7794  108.2089  106.4469 O   0  0  0  0  0  0  0  0  0  0  0  0
  116.9427  108.0100  103.7486 H   0  0  0  0  0  0  0  0  0  0  0  0
  118.5549  108.1637  103.0272 H   0  0  0  0  0  0  0  0  0  0  0  0
  119.5601  108.6352  105.0349 H   0  0  0  0  0  0  0  0  0  0  0  0
  117.9314  108.9888  105.6367 H   0  0  0  0  0  0  0  0  0  0  0  0
  118.7630  104.6506  107.6342 H   0  0  0  0  0  0  0  0  0  0  0  0
  119.5827  103.2183  107.0596 H   0  0  0  0  0  0  0  0  0  0  0  0
  117.1455  105.7417  103.9952 H   0  0  0  0  0  0  0  0  0  0  0  0
  118.5972  105.8282  102.9709 H   0  0  0  0  0  0  0  0  0  0  0  0
  119.5366  103.9506  104.7887 H   0  0  0  0  0  0  0  0  0  0  0  0
  117.8934  104.1325  105.4026 H   0  0  0  0  0  0  0  0  0  0  0  0
  121.0530  104.8174  108.2566 H   0  0  0  0  0  0  0  0  0  0  0  0
  121.5912  104.4537  106.6264 H   0  0  0  0  0  0  0  0  0  0  0  0
  119.8089  108.1943  107.4706 H   0  0  0  0  0  0  0  0  0  0  0  0
  119.1653  106.6993  108.1247 H   0  0  0  0  0  0  0  0  0  0  0  0
  117.6251  106.7725  106.4828 H   0  0  0  0  0  0  0  0  0  0  0  0
  122.6331  108.3089  106.0672 H   0  0  0  0  0  0  0  0  0  0  0  0
  123.1043  108.9033  107.6629 H   0  0  0  0  0  0  0  0  0  0  0  0
  121.4183  109.0397  107.1297 H   0  0  0  0  0  0  0  0  0  0  0  0
  123.6887  106.5144  110.3714 H   0  0  0  0  0  0  0  0  0  0  0  0
  125.0498  107.6481  110.2883 H   0  0  0  0  0  0  0  0  0  0  0  0
  123.4662  108.1144  109.6663 H   0  0  0  0  0  0  0  0  0  0  0  0
  126.4550  105.9172  106.7040 H   0  0  0  0  0  0  0  0  0  0  0  0
  125.1561  104.7048  106.7550 H   0  0  0  0  0  0  0  0  0  0  0  0
  126.7414  104.3384  107.4689 H   0  0  0  0  0  0  0  0  0  0  0  0
  123.0604  105.1578  108.0992 H   0  0  0  0  0  0  0  0  0  0  0  0
  123.5347  105.9465  106.6155 H   0  0  0  0  0  0  0  0  0  0  0  0
  121.6944  107.1605  108.7389 H   0  0  0  0  0  0  0  0  0  0  0  0
  126.7538  108.0182  108.9635 H   0  0  0  0  0  0  0  0  0  0  0  0
  126.8949  109.0640  107.5999 H   0  0  0  0  0  0  0  0  0  0  0  0
  125.1311  104.9243  109.1345 H   0  0  0  0  0  0  0  0  0  0  0  0
  1 15  1  0  0  0  0
  1 18  1  0  0  0  0
  1 20  2  0  0  0  0
  2  3  1  0  0  0  0
  2  5  1  0  0  0  0
  3  9  1  0  0  0  0
  4  6  1  0  0  0  0
  4  7  1  0  0  0  0
  5 16  1  0  0  0  0
  6 16  1  0  0  0  0
  7 17  1  0  0  0  0
  8  9  1  0  0  0  0
  8 17  1  0  0  0  0
  9 16  1  0  0  0  0
 10 14  1  0  0  0  0
 11 15  1  0  0  0  0
 12 19  1  0  0  0  0
 13 14  1  0  0  0  0
 13 15  1  0  0  0  0
 14 17  1  0  0  0  0
 15 19  1  0  0  0  0
  2 21  1  0  0  0  0
  2 22  1  0  0  0  0
  3 23  1  0  0  0  0
  3 24  1  0  0  0  0
  4 25  1  0  0  0  0
  4 26  1  0  0  0  0
  5 27  1  0  0  0  0
  5 28  1  0  0  0  0
  6 29  1  0  0  0  0
  6 30  1  0  0  0  0
  7 31  1  0  0  0  0
  7 32  1  0  0  0  0
  8 33  1  0  0  0  0
  8 34  1  0  0  0  0
  9 35  1  0  0  0  0
 10 36  1  0  0  0  0
 10 37  1  0  0  0  0
 10 38  1  0  0  0  0
 11 39  1  0  0  0  0
 11 40  1  0  0  0  0
 11 41  1  0  0  0  0
 12 42  1  0  0  0  0
 12 43  1  0  0  0  0
 12 44  1  0  0  0  0
 13 45  1  0  0  0  0
 13 46  1  0  0  0  0
 14 47  1  0  0  0  0
 18 48  1  0  0  0  0
 18 49  1  0  0  0  0
 19 50  1  0  0  0  0
M  END
> <FRED Chemgauss4 score>
-9.870236

$$$$
C88628307	P138624546
  -OEChem-05122015313D

 27 27  0     0  0  0  0  0  0999 V2000
  119.8750  108.4449  108.5871 C   0  0  0  0  0  0  0  0  0  0  0  0
  123.7585  109.5181  109.3405 C   0  0  0  0  0  0  0  0  0  0  0  0
  125.3739  106.7397  108.1457 C   0  0  0  0  0  0  0  0  0  0  0  0
  124.5390  104.0858  107.9393 C   0  0  0  0  0  0  0  0  0  0  0  0
  126.1251  105.7242  108.7373 C   0  0  0  0  0  0  0  0  0  0  0  0
  125.7077  104.3973  108.6341 C   0  0  0  0  0  0  0  0  0  0  0  0
  124.2051  106.4282  107.4510 C   0  0  0  0  0  0  0  0  0  0  0  0
  123.7876  105.1013  107.3478 C   0  0  0  0  0  0  0  0  0  0  0  0
  120.8924  107.5463  108.0446 C   0  0  0  0  0  0  0  0  0  0  0  0
  122.7864  108.4265  109.3478 C   0  0  0  0  0  0  0  0  0  0  0  0
  119.0649  109.1558  109.0169 N   0  0  0  0  0  0  0  0  0  0  0  0
  124.5305  110.3845  109.3382 N   0  0  0  0  0  0  0  0  0  0  0  0
  127.3076  106.0414  109.4378 N   0  0  0  0  0  0  0  0  0  0  0  0
  122.2167  108.2161  107.9926 N   0  0  0  0  0  0  0  0  0  0  0  0
  124.2383  108.8449  106.4880 O   0  0  0  0  0  0  0  0  0  0  0  0
  122.5404  107.2201  105.6154 O   0  0  0  0  0  0  0  0  0  0  0  0
  126.4223  103.4134  109.1987 F   0  0  0  0  0  0  0  0  0  0  0  0
  123.2977  107.7657  106.7268 S   0  0  0  0  0  0  0  0  0  0  0  0
  122.2109  104.6061  106.4143 Br  0  0  0  0  0  0  0  0  0  0  0  0
  125.7004  107.7740  108.2287 H   0  0  0  0  0  0  0  0  0  0  0  0
  124.2311  103.0455  107.8718 H   0  0  0  0  0  0  0  0  0  0  0  0
  120.9985  106.6512  108.6642 H   0  0  0  0  0  0  0  0  0  0  0  0
  120.6399  107.2336  107.0274 H   0  0  0  0  0  0  0  0  0  0  0  0
  123.2509  107.4871  109.6608 H   0  0  0  0  0  0  0  0  0  0  0  0
  121.9559  108.6431  110.0257 H   0  0  0  0  0  0  0  0  0  0  0  0
  127.6202  106.9909  109.4623 H   0  0  0  0  0  0  0  0  0  0  0  0
  127.8629  105.3015  109.8173 H   0  0  0  0  0  0  0  0  0  0  0  0
  1  9  1  0  0  0  0
  1 11  3  0  0  0  0
  2 10  1  0  0  0  0
  2 12  3  0  0  0  0
  3  5  1  0  0  0  0
  3  7  2  0  0  0  0
  4  6  1  0  0  0  0
  4  8  2  0  0  0  0
  5  6  2  0  0  0  0
  5 13  1  0  0  0  0
  6 17  1  0  0  0  0
  7  8  1  0  0  0  0
  7 18  1  0  0  0  0
  8 19  1  0  0  0  0
  9 14  1  0  0  0  0
 10 14  1  0  0  0  0
 14 18  1  0  0  0  0
 15 18  2  0  0  0  0
 16 18  2  0  0  0  0
  3 20  1  0  0  0  0
  4 21  1  0  0  0  0
  9 22  1  0  0  0  0
  9 23  1  0  0  0  0
 10 24  1  0  0  0  0
 10 25  1  0  0  0  0
 13 26  1  0  0  0  0
 13 27  1  0  0  0  0
M  END
> <FRED Chemgauss4 score>
-9.862293

$$$$
C83551924	P130695650
  -OEChem-05122015313D

 40 42  0     1  0  0  0  0  0999 V2000
  125.7530  107.7583  107.5297 C   0  0  0  0  0  0  0  0  0  0  0  0
  124.6482  108.2691  106.8485 C   0  0  0  0  0  0  0  0  0  0  0  0
  125.9217  106.3788  107.6499 C   0  0  0  0  0  0  0  0  0  0  0  0
  123.8806  106.0210  106.4078 C   0  0  0  0  0  0  0  0  0  0  0  0
  123.7120  107.4005  106.2876 C   0  0  0  0  0  0  0  0  0  0  0  0
  124.9854  105.5102  107.0890 C   0  0  0  0  0  0  0  0  0  0  0  0
  118.2150  104.6690  102.9763 C   0  0  0  0  0  0  0  0  0  0  0  0
  117.1286  105.2727  103.8591 C   0  0  0  0  0  0  0  0  0  0  0  0
  119.2627  103.9688  103.8343 C   0  0  0  0  0  0  0  0  0  0  0  0
  119.5951  103.7427  106.9880 C   0  0  0  0  0  0  0  0  0  0  0  0
  117.7290  106.1825  104.9321 C   0  0  0  0  0  0  0  0  0  0  0  0
  118.3665  104.6097  106.7138 C   0  0  0  0  0  0  0  0  0  0  0  0
  119.8401  104.9228  104.8959 C   0  0  2  0  0  0  0  0  0  0  0  0
  120.6474  104.1671  105.9585 C   0  0  1  0  0  0  0  0  0  0  0  0
  122.8604  105.1048  105.7963 C   0  0  0  0  0  0  0  0  0  0  0  0
  118.8054  105.5757  105.7093 N   0  0  1  0  0  0  0  0  0  0  0  0
  121.6327  105.0549  106.5800 N   0  0  0  0  0  0  0  0  0  0  0  0
  122.6395  107.9195  105.6261 O   0  0  0  0  0  0  0  0  0  0  0  0
  125.2300  103.8098  107.2596 Cl  0  0  0  0  0  0  0  0  0  0  0  0
  126.4819  108.4347  107.9664 H   0  0  0  0  0  0  0  0  0  0  0  0
  124.5231  109.3447  106.7585 H   0  0  0  0  0  0  0  0  0  0  0  0
  126.7882  105.9971  108.1839 H   0  0  0  0  0  0  0  0  0  0  0  0
  117.7757  103.9628  102.2683 H   0  0  0  0  0  0  0  0  0  0  0  0
  118.6926  105.4633  102.3955 H   0  0  0  0  0  0  0  0  0  0  0  0
  116.4248  105.8400  103.2453 H   0  0  0  0  0  0  0  0  0  0  0  0
  116.5654  104.4664  104.3397 H   0  0  0  0  0  0  0  0  0  0  0  0
  118.8109  103.0900  104.3250 H   0  0  0  0  0  0  0  0  0  0  0  0
  120.0737  103.5825  103.1972 H   0  0  0  0  0  0  0  0  0  0  0  0
  119.9415  103.9098  108.0206 H   0  0  0  0  0  0  0  0  0  0  0  0
  119.3697  102.6696  106.8920 H   0  0  0  0  0  0  0  0  0  0  0  0
  118.0799  107.1352  104.4569 H   0  0  0  0  0  0  0  0  0  0  0  0
  116.9101  106.5021  105.6233 H   0  0  0  0  0  0  0  0  0  0  0  0
  117.5231  104.0103  106.3452 H   0  0  0  0  0  0  0  0  0  0  0  0
  118.0494  105.1026  107.6457 H   0  0  0  0  0  0  0  0  0  0  0  0
  120.4880  105.6567  104.3946 H   0  0  0  0  0  0  0  0  0  0  0  0
  121.1507  103.3188  105.5529 H   0  0  0  0  0  0  0  0  0  0  0  0
  122.6015  105.4356  104.7845 H   0  0  0  0  0  0  0  0  0  0  0  0
  123.2477  104.0837  105.7154 H   0  0  0  0  0  0  0  0  0  0  0  0
  121.8486  104.7161  107.5181 H   0  0  0  0  0  0  0  0  0  0  0  0
  122.6767  108.8886  105.6366 H   0  0  0  0  0  0  0  0  0  0  0  0
  1  2  1  0  0  0  0
  1  3  2  0  0  0  0
  2  5  2  0  0  0  0
  3  6  1  0  0  0  0
  4  5  1  0  0  0  0
  4  6  2  0  0  0  0
  4 15  1  0  0  0  0
  5 18  1  0  0  0  0
  6 19  1  0  0  0  0
  7  8  1  0  0  0  0
  7  9  1  0  0  0  0
  8 11  1  0  0  0  0
  9 13  1  0  0  0  0
 10 12  1  0  0  0  0
 10 14  1  0  0  0  0
 11 16  1  0  0  0  0
 12 16  1  0  0  0  0
 13 14  1  0  0  0  0
 13 16  1  0  0  0  0
 14 17  1  0  0  0  0
 15 17  1  0  0  0  0
  1 20  1  0  0  0  0
  2 21  1  0  0  0  0
  3 22  1  0  0  0  0
  7 23  1  0  0  0  0
  7 24  1  0  0  0  0
  8 25  1  0  0  0  0
  8 26  1  0  0  0  0
  9 27  1  0  0  0  0
  9 28  1  0  0  0  0
 10 29  1  0  0  0  0
 10 30  1  0  0  0  0
 11 31  1  0  0  0  0
 11 32  1  0  0  0  0
 12 33  1  0  0  0  0
 12 34  1  0  0  0  0
 13 35  1  0  0  0  0
 14 36  1  0  0  0  0
 15 37  1  0  0  0  0
 15 38  1  0  0  0  0
 17 39  1  0  0  0  0
 18 40  1  0  0  0  0
M  END
> <FRED Chemgauss4 score>
-9.861826

$$$$
C87600283	P137027686
  -OEChem-05122015313D

 26 27  0     1  0  0  0  0  0999 V2000
  124.2590  106.6513  106.0375 C   0  0  0  0  0  0  0  0  0  0  0  0
  124.1474  107.9219  110.1839 C   0  0  0  0  0  0  0  0  0  0  0  0
  122.6744  105.3277  106.7940 C   0  0  0  0  0  0  0  0  0  0  0  0
  123.9425  105.7671  107.0863 C   0  0  0  0  0  0  0  0  0  0  0  0
  125.0635  107.7592  109.1784 C   0  0  0  0  0  0  0  0  0  0  0  0
  121.0714  105.8047  104.9282 C   0  0  0  0  0  0  0  0  0  0  0  0
  124.8034  105.3837  108.2674 C   0  0  0  0  0  0  0  0  0  0  0  0
  125.7658  106.5059  108.6995 C   0  0  2  0  0  0  0  0  0  0  0  0
  124.5126  109.8243  109.2757 N   0  5  0  0  0  0  0  0  0  0  0  0
  123.7894  109.2155  110.2591 N   0  0  0  0  0  0  0  0  0  0  0  0
  123.2716  106.7677  105.1456 N   0  0  0  0  0  0  0  0  0  0  0  0
  125.3053  108.9464  108.5959 N   0  0  0  0  0  0  0  0  0  0  0  0
  122.3223  105.9508  105.6330 N   0  0  0  0  0  0  0  0  0  0  0  0
  126.6718  105.9251  109.7437 N   0  3  0  0  0  0  0  0  0  0  0  0
  125.1675  107.2161  105.8834 H   0  0  0  0  0  0  0  0  0  0  0  0
  123.7427  107.1646  110.8417 H   0  0  0  0  0  0  0  0  0  0  0  0
  122.0097  104.6407  107.3000 H   0  0  0  0  0  0  0  0  0  0  0  0
  120.3795  106.5607  105.3087 H   0  0  0  0  0  0  0  0  0  0  0  0
  121.2388  105.9445  103.8566 H   0  0  0  0  0  0  0  0  0  0  0  0
  120.6746  104.8003  105.1006 H   0  0  0  0  0  0  0  0  0  0  0  0
  125.3548  104.4621  108.0387 H   0  0  0  0  0  0  0  0  0  0  0  0
  124.1339  105.1233  109.0988 H   0  0  0  0  0  0  0  0  0  0  0  0
  126.4359  106.7570  107.8682 H   0  0  0  0  0  0  0  0  0  0  0  0
  126.1573  105.7773  110.6119 H   0  0  0  0  0  0  0  0  0  0  0  0
  127.4490  106.5604  109.9260 H   0  0  0  0  0  0  0  0  0  0  0  0
  127.0454  105.0307  109.4261 H   0  0  0  0  0  0  0  0  0  0  0  0
  1  4  1  0  0  0  0
  1 11  2  0  0  0  0
  2  5  1  0  0  0  0
  2 10  2  0  0  0  0
  3  4  2  0  0  0  0
  3 13  1  0  0  0  0
  4  7  1  0  0  0  0
  5  8  1  0  0  0  0
  5 12  2  0  0  0  0
  6 13  1  0  0  0  0
  7  8  1  0  0  0  0
  8 14  1  0  0  0  0
  9 10  1  0  0  0  0
  9 12  1  0  0  0  0
 11 13  1  0  0  0  0
  1 15  1  0  0  0  0
  2 16  1  0  0  0  0
  3 17  1  0  0  0  0
  6 18  1  0  0  0  0
  6 19  1  0  0  0  0
  6 20  1  0  0  0  0
  7 21  1  0  0  0  0
  7 22  1  0  0  0  0
  8 23  1  0  0  0  0
 14 24  1  0  0  0  0
 14 25  1  0  0  0  0
 14 26  1  0  0  0  0
M  CHG  2   9  -1  14   1
M  END
> <FRED Chemgauss4 score>
-9.860965

$$$$
C87588301	P137003099
  -OEChem-05122015313D

 27 28  0     1  0  0  0  0  0999 V2000
  122.2818  105.2355  107.0152 C   0  0  0  0  0  0  0  0  0  0  0  0
  120.3932  104.2756  106.4083 C   0  0  0  0  0  0  0  0  0  0  0  0
  121.3702  106.1602  106.5630 C   0  0  0  0  0  0  0  0  0  0  0  0
  123.9582  108.0744  107.1537 C   0  0  0  0  0  0  0  0  0  0  0  0
  126.1022  107.8177  107.3689 C   0  0  0  0  0  0  0  0  0  0  0  0
  121.5335  107.6591  106.4538 C   0  0  0  0  0  0  0  0  0  0  0  0
  122.4923  108.2456  107.5140 C   0  0  2  0  0  0  0  0  0  0  0  0
  120.1965  105.5563  106.1870 N   0  0  0  0  0  0  0  0  0  0  0  0
  124.4732  108.0263  105.9458 N   0  0  0  0  0  0  0  0  0  0  0  0
  125.8373  107.8630  106.0828 N   0  0  0  0  0  0  0  0  0  0  0  0
  121.6414  104.0329  106.9106 N   0  0  0  0  0  0  0  0  0  0  0  0
  124.9481  107.9470  108.0803 N   0  0  0  0  0  0  0  0  0  0  0  0
  127.2900  107.6697  107.9987 N   0  0  0  0  0  0  0  0  0  0  0  0
  122.1741  109.6608  107.7471 N   0  0  0  0  0  0  0  0  0  0  0  0
  124.7972  107.9490  109.4863 N   0  0  0  0  0  0  0  0  0  0  0  0
  123.2921  105.3169  107.3897 H   0  0  0  0  0  0  0  0  0  0  0  0
  119.6819  103.4817  106.2287 H   0  0  0  0  0  0  0  0  0  0  0  0
  120.5372  108.1103  106.5626 H   0  0  0  0  0  0  0  0  0  0  0  0
  121.8616  107.9213  105.4392 H   0  0  0  0  0  0  0  0  0  0  0  0
  122.3093  107.7322  108.4666 H   0  0  0  0  0  0  0  0  0  0  0  0
  122.0212  103.1290  107.1582 H   0  0  0  0  0  0  0  0  0  0  0  0
  128.1676  107.5229  107.4811 H   0  0  0  0  0  0  0  0  0  0  0  0
  127.3594  107.6024  109.0236 H   0  0  0  0  0  0  0  0  0  0  0  0
  122.8778  110.2295  108.1559 H   0  0  0  0  0  0  0  0  0  0  0  0
  121.2224  109.9356  107.6794 H   0  0  0  0  0  0  0  0  0  0  0  0
  124.0133  108.5263  109.8077 H   0  0  0  0  0  0  0  0  0  0  0  0
  125.6159  108.3276  109.9739 H   0  0  0  0  0  0  0  0  0  0  0  0
  1  3  2  0  0  0  0
  1 11  1  0  0  0  0
  2  8  2  0  0  0  0
  2 11  1  0  0  0  0
  3  6  1  0  0  0  0
  3  8  1  0  0  0  0
  4  7  1  0  0  0  0
  4  9  2  0  0  0  0
  4 12  1  0  0  0  0
  5 10  2  0  0  0  0
  5 12  1  0  0  0  0
  5 13  1  0  0  0  0
  6  7  1  0  0  0  0
  7 14  1  0  0  0  0
  9 10  1  0  0  0  0
 12 15  1  0  0  0  0
  1 16  1  0  0  0  0
  2 17  1  0  0  0  0
  6 18  1  0  0  0  0
  6 19  1  0  0  0  0
  7 20  1  0  0  0  0
 11 21  1  0  0  0  0
 13 22  1  0  0  0  0
 13 23  1  0  0  0  0
 14 24  1  0  0  0  0
 14 25  1  0  0  0  0
 15 26  1  0  0  0  0
 15 27  1  0  0  0  0
M  END
> <FRED Chemgauss4 score>
-9.858150

$$$$
C04280713	P60311314
  -OEChem-05122015313D

 59 64  0     1  0  0  0  0  0999 V2000
  121.7101  105.0493  108.4211 C   0  0  0  0  0  0  0  0  0  0  0  0
  121.5212  106.9611  105.0556 C   0  0  0  0  0  0  0  0  0  0  0  0
  119.3212  103.8036  106.9783 C   0  0  0  0  0  0  0  0  0  0  0  0
  123.1510  105.3650  108.8467 C   0  0  0  0  0  0  0  0  0  0  0  0
  119.9833  106.8986  104.8729 C   0  0  0  0  0  0  0  0  0  0  0  0
  117.9751  103.9039  106.2320 C   0  0  0  0  0  0  0  0  0  0  0  0
  125.1071  106.9729  108.9144 C   0  0  0  0  0  0  0  0  0  0  0  0
  124.4202  106.2123  106.0339 C   0  0  0  0  0  0  0  0  0  0  0  0
  116.6206  105.9433  103.7687 C   0  0  0  0  0  0  0  0  0  0  0  0
  117.2732  104.7236  103.1816 C   0  0  0  0  0  0  0  0  0  0  0  0
  121.5488  105.2580  106.9196 C   0  0  2  0  0  0  0  0  0  0  0  0
  121.9446  106.7098  106.5148 C   0  0  1  0  0  0  0  0  0  0  0  0
  120.2177  104.8228  106.2812 C   0  0  2  0  0  0  0  0  0  0  0  0
  126.1027  106.3285  108.0143 C   0  0  1  0  0  0  0  0  0  0  0  0
  125.7872  106.0058  106.5891 C   0  0  2  0  0  0  0  0  0  0  0  0
  123.6272  106.7986  108.4681 C   0  0  1  0  0  0  0  0  0  0  0  0
  119.2577  105.9541  105.8662 C   0  0  2  0  0  0  0  0  0  0  0  0
  123.4368  107.0598  106.9030 C   0  0  1  0  0  0  0  0  0  0  0  0
  118.1048  105.0992  105.2577 C   0  0  0  0  0  0  0  0  0  0  0  0
  122.8198  107.8019  109.3439 C   0  0  0  0  0  0  0  0  0  0  0  0
  118.6919  106.7703  107.0601 C   0  0  0  0  0  0  0  0  0  0  0  0
  123.6919  108.5585  106.5733 C   0  0  0  0  0  0  0  0  0  0  0  0
  116.8659  105.8075  105.1665 O   0  0  0  0  0  0  0  0  0  0  0  0
  118.4604  104.5860  103.9597 O   0  0  0  0  0  0  0  0  0  0  0  0
  126.5196  107.1814  106.9283 O   0  0  0  0  0  0  0  0  0  0  0  0
  121.5007  104.0054  108.6828 H   0  0  0  0  0  0  0  0  0  0  0  0
  120.9950  105.6629  108.9785 H   0  0  0  0  0  0  0  0  0  0  0  0
  121.9898  106.2137  104.4032 H   0  0  0  0  0  0  0  0  0  0  0  0
  121.8588  107.9384  104.6978 H   0  0  0  0  0  0  0  0  0  0  0  0
  119.1712  104.0435  108.0361 H   0  0  0  0  0  0  0  0  0  0  0  0
  119.7361  102.7920  106.9221 H   0  0  0  0  0  0  0  0  0  0  0  0
  123.2308  105.2164  109.9315 H   0  0  0  0  0  0  0  0  0  0  0  0
  123.8187  104.6206  108.3944 H   0  0  0  0  0  0  0  0  0  0  0  0
  119.5780  107.9139  104.9705 H   0  0  0  0  0  0  0  0  0  0  0  0
  119.7895  106.6157  103.8323 H   0  0  0  0  0  0  0  0  0  0  0  0
  117.7729  102.9703  105.6947 H   0  0  0  0  0  0  0  0  0  0  0  0
  117.1599  104.0508  106.9496 H   0  0  0  0  0  0  0  0  0  0  0  0
  125.2350  106.5651  109.9260 H   0  0  0  0  0  0  0  0  0  0  0  0
  125.3605  108.0376  109.0004 H   0  0  0  0  0  0  0  0  0  0  0  0
  124.5116  106.6468  105.0303 H   0  0  0  0  0  0  0  0  0  0  0  0
  124.0262  105.2083  105.8650 H   0  0  0  0  0  0  0  0  0  0  0  0
  117.1043  106.8643  103.4261 H   0  0  0  0  0  0  0  0  0  0  0  0
  115.5483  106.0019  103.5670 H   0  0  0  0  0  0  0  0  0  0  0  0
  116.6617  103.8270  103.3293 H   0  0  0  0  0  0  0  0  0  0  0  0
  117.5148  104.8274  102.1210 H   0  0  0  0  0  0  0  0  0  0  0  0
  122.2709  104.5647  106.4715 H   0  0  0  0  0  0  0  0  0  0  0  0
  121.3419  107.4073  107.0993 H   0  0  0  0  0  0  0  0  0  0  0  0
  120.5310  104.3272  105.3452 H   0  0  0  0  0  0  0  0  0  0  0  0
  126.8741  105.7765  108.5321 H   0  0  0  0  0  0  0  0  0  0  0  0
  126.3289  105.2081  106.0985 H   0  0  0  0  0  0  0  0  0  0  0  0
  123.1378  108.8021  109.0940 H   0  0  0  0  0  0  0  0  0  0  0  0
  123.0238  107.5867  110.3812 H   0  0  0  0  0  0  0  0  0  0  0  0
  121.7706  107.6719  109.1282 H   0  0  0  0  0  0  0  0  0  0  0  0
  118.1928  106.0904  107.7352 H   0  0  0  0  0  0  0  0  0  0  0  0
  117.9937  107.5002  106.6769 H   0  0  0  0  0  0  0  0  0  0  0  0
  119.5138  107.2618  107.5603 H   0  0  0  0  0  0  0  0  0  0  0  0
  123.0184  109.1576  107.1674 H   0  0  0  0  0  0  0  0  0  0  0  0
  123.5068  108.7123  105.5210 H   0  0  0  0  0  0  0  0  0  0  0  0
  124.7181  108.7907  106.8150 H   0  0  0  0  0  0  0  0  0  0  0  0
  1  4  1  0  0  0  0
  1 11  1  0  0  0  0
  2  5  1  0  0  0  0
  2 12  1  0  0  0  0
  3  6  1  0  0  0  0
  3 13  1  0  0  0  0
  4 16  1  0  0  0  0
  5 17  1  0  0  0  0
  6 19  1  0  0  0  0
  7 14  1  0  0  0  0
  7 16  1  0  0  0  0
  8 15  1  0  0  0  0
  8 18  1  0  0  0  0
  9 10  1  0  0  0  0
  9 23  1  0  0  0  0
 10 24  1  0  0  0  0
 11 12  1  0  0  0  0
 11 13  1  0  0  0  0
 12 18  1  0  0  0  0
 13 17  1  0  0  0  0
 14 15  1  0  0  0  0
 14 25  1  0  0  0  0
 15 25  1  0  0  0  0
 16 18  1  0  0  0  0
 16 20  1  0  0  0  0
 17 19  1  0  0  0  0
 17 21  1  0  0  0  0
 18 22  1  0  0  0  0
 19 23  1  0  0  0  0
 19 24  1  0  0  0  0
  1 26  1  0  0  0  0
  1 27  1  0  0  0  0
  2 28  1  0  0  0  0
  2 29  1  0  0  0  0
  3 30  1  0  0  0  0
  3 31  1  0  0  0  0
  4 32  1  0  0  0  0
  4 33  1  0  0  0  0
  5 34  1  0  0  0  0
  5 35  1  0  0  0  0
  6 36  1  0  0  0  0
  6 37  1  0  0  0  0
  7 38  1  0  0  0  0
  7 39  1  0  0  0  0
  8 40  1  0  0  0  0
  8 41  1  0  0  0  0
  9 42  1  0  0  0  0
  9 43  1  0  0  0  0
 10 44  1  0  0  0  0
 10 45  1  0  0  0  0
 11 46  1  0  0  0  0
 12 47  1  0  0  0  0
 13 48  1  0  0  0  0
 14 49  1  0  0  0  0
 15 50  1  0  0  0  0
 20 51  1  0  0  0  0
 20 52  1  0  0  0  0
 20 53  1  0  0  0  0
 21 54  1  0  0  0  0
 21 55  1  0  0  0  0
 21 56  1  0  0  0  0
 22 57  1  0  0  0  0
 22 58  1  0  0  0  0
 22 59  1  0  0  0  0
M  END
> <FRED Chemgauss4 score>
-9.852049

$$$$
C95922757	P151023630
  -OEChem-05122015313D

 17 17  0     0  0  0  0  0  0999 V2000
  125.1164  106.1687  106.2961 C   0  0  0  0  0  0  0  0  0  0  0  0
  126.0551  105.9430  108.4951 C   0  0  0  0  0  0  0  0  0  0  0  0
  125.4039  105.3708  107.4717 C   0  0  0  0  0  0  0  0  0  0  0  0
  125.4856  107.4553  106.2132 C   0  0  0  0  0  0  0  0  0  0  0  0
  126.2124  108.0874  107.3589 C   0  0  0  0  0  0  0  0  0  0  0  0
  124.9541  103.9445  107.4749 C   0  0  0  0  0  0  0  0  0  0  0  0
  126.4473  107.2574  108.4430 N   0  0  0  0  0  0  0  0  0  0  0  0
  126.5627  109.2639  107.3094 O   0  0  0  0  0  0  0  0  0  0  0  0
  125.2134  108.2146  105.0975 O   0  0  0  0  0  0  0  0  0  0  0  0
  123.5471  103.8824  107.3211 O   0  0  0  0  0  0  0  0  0  0  0  0
  124.5887  105.6955  105.4736 H   0  0  0  0  0  0  0  0  0  0  0  0
  126.3068  105.4155  109.4070 H   0  0  0  0  0  0  0  0  0  0  0  0
  125.2323  103.4624  108.4125 H   0  0  0  0  0  0  0  0  0  0  0  0
  125.4205  103.4113  106.6463 H   0  0  0  0  0  0  0  0  0  0  0  0
  126.9375  107.6433  109.2447 H   0  0  0  0  0  0  0  0  0  0  0  0
  125.5514  109.1091  105.2168 H   0  0  0  0  0  0  0  0  0  0  0  0
  123.3012  102.9418  107.3289 H   0  0  0  0  0  0  0  0  0  0  0  0
  1  3  1  0  0  0  0
  1  4  2  0  0  0  0
  2  3  2  0  0  0  0
  2  7  1  0  0  0  0
  3  6  1  0  0  0  0
  4  5  1  0  0  0  0
  4  9  1  0  0  0  0
  5  7  1  0  0  0  0
  5  8  2  0  0  0  0
  6 10  1  0  0  0  0
  1 11  1  0  0  0  0
  2 12  1  0  0  0  0
  6 13  1  0  0  0  0
  6 14  1  0  0  0  0
  7 15  1  0  0  0  0
  9 16  1  0  0  0  0
 10 17  1  0  0  0  0
M  END
> <FRED Chemgauss4 score>
-9.846645

$$$$
C40306071	P61188732
  -OEChem-05122015313D

 34 34  0     0  0  0  0  0  0999 V2000
  123.0183  104.6779  107.1775 C   0  0  0  0  0  0  0  0  0  0  0  0
  122.4336  106.7037  108.3569 C   0  0  0  0  0  0  0  0  0  0  0  0
  122.0550  105.5917  107.6048 C   0  0  0  0  0  0  0  0  0  0  0  0
  124.3603  104.8762  107.5024 C   0  0  0  0  0  0  0  0  0  0  0  0
  123.7755  106.9021  108.6817 C   0  0  0  0  0  0  0  0  0  0  0  0
  124.7389  105.9883  108.2544 C   0  0  0  0  0  0  0  0  0  0  0  0
  120.6257  105.3799  107.2593 C   0  0  0  0  0  0  0  0  0  0  0  0
  118.9903  105.0040  104.4943 C   0  0  0  0  0  0  0  0  0  0  0  0
  118.0312  107.1900  103.7376 C   0  0  0  0  0  0  0  0  0  0  0  0
  116.5712  105.5522  104.8586 C   0  0  0  0  0  0  0  0  0  0  0  0
  118.6982  103.6700  105.1740 C   0  0  0  0  0  0  0  0  0  0  0  0
  118.8932  103.6988  106.6861 C   0  0  0  0  0  0  0  0  0  0  0  0
  125.3086  103.9291  107.0520 N   0  0  0  0  0  0  0  0  0  0  0  0
  120.2360  104.0624  107.0507 N   0  0  0  0  0  0  0  0  0  0  0  0
  117.9075  105.8814  104.3681 N   0  0  0  0  0  0  0  0  0  0  0  0
  119.8826  106.3525  107.1571 O   0  0  0  0  0  0  0  0  0  0  0  0
  120.1250  105.2650  104.0863 O   0  0  0  0  0  0  0  0  0  0  0  0
  124.1735  108.3017  109.6168 Cl  0  0  0  0  0  0  0  0  0  0  0  0
  126.4150  106.2187  108.6477 Cl  0  0  0  0  0  0  0  0  0  0  0  0
  122.7212  103.8113  106.5905 H   0  0  0  0  0  0  0  0  0  0  0  0
  121.6763  107.4117  108.6871 H   0  0  0  0  0  0  0  0  0  0  0  0
  117.8318  107.1110  102.6658 H   0  0  0  0  0  0  0  0  0  0  0  0
  119.0413  107.5839  103.8796 H   0  0  0  0  0  0  0  0  0  0  0  0
  117.3167  107.8907  104.1778 H   0  0  0  0  0  0  0  0  0  0  0  0
  116.4588  105.8838  105.8941 H   0  0  0  0  0  0  0  0  0  0  0  0
  116.4081  104.4719  104.8154 H   0  0  0  0  0  0  0  0  0  0  0  0
  115.8116  106.0460  104.2466 H   0  0  0  0  0  0  0  0  0  0  0  0
  117.6680  103.3741  104.9448 H   0  0  0  0  0  0  0  0  0  0  0  0
  119.3859  102.9265  104.7545 H   0  0  0  0  0  0  0  0  0  0  0  0
  118.6758  102.7278  107.1418 H   0  0  0  0  0  0  0  0  0  0  0  0
  118.2291  104.4439  107.1355 H   0  0  0  0  0  0  0  0  0  0  0  0
  124.9903  103.1228  106.5569 H   0  0  0  0  0  0  0  0  0  0  0  0
  126.2645  104.0365  107.3189 H   0  0  0  0  0  0  0  0  0  0  0  0
  120.9282  103.3171  107.0933 H   0  0  0  0  0  0  0  0  0  0  0  0
  1  3  1  0  0  0  0
  1  4  2  0  0  0  0
  2  3  2  0  0  0  0
  2  5  1  0  0  0  0
  3  7  1  0  0  0  0
  4  6  1  0  0  0  0
  4 13  1  0  0  0  0
  5  6  2  0  0  0  0
  5 18  1  0  0  0  0
  6 19  1  0  0  0  0
  7 14  1  0  0  0  0
  7 16  2  0  0  0  0
  8 11  1  0  0  0  0
  8 15  1  0  0  0  0
  8 17  2  0  0  0  0
  9 15  1  0  0  0  0
 10 15  1  0  0  0  0
 11 12  1  0  0  0  0
 12 14  1  0  0  0  0
  1 20  1  0  0  0  0
  2 21  1  0  0  0  0
  9 22  1  0  0  0  0
  9 23  1  0  0  0  0
  9 24  1  0  0  0  0
 10 25  1  0  0  0  0
 10 26  1  0  0  0  0
 10 27  1  0  0  0  0
 11 28  1  0  0  0  0
 11 29  1  0  0  0  0
 12 30  1  0  0  0  0
 12 31  1  0  0  0  0
 13 32  1  0  0  0  0
 13 33  1  0  0  0  0
 14 34  1  0  0  0  0
M  END
> <FRED Chemgauss4 score>
-9.843777

$$$$
C50674474	P80478612
  -OEChem-05122015313D

 31 31  0     1  0  0  0  0  0999 V2000
  124.2914  105.1770  107.1934 C   0  0  0  0  0  0  0  0  0  0  0  0
  125.9900  106.7220  107.9222 C   0  0  0  0  0  0  0  0  0  0  0  0
  124.7887  104.2508  108.0992 C   0  0  0  0  0  0  0  0  0  0  0  0
  124.9017  106.4246  107.1074 C   0  0  0  0  0  0  0  0  0  0  0  0
  126.4441  105.7567  108.8096 C   0  0  0  0  0  0  0  0  0  0  0  0
  121.4645  108.4182  108.3567 C   0  0  0  0  0  0  0  0  0  0  0  0
  121.1044  107.3512  106.1046 C   0  0  0  0  0  0  0  0  0  0  0  0
  121.9983  109.4553  110.5553 C   0  0  0  0  0  0  0  0  0  0  0  0
  122.1017  107.6230  107.2251 C   0  0  1  0  0  0  0  0  0  0  0  0
  123.1850  108.4759  106.7573 N   0  5  0  0  0  0  0  0  0  0  0  0
  125.8379  104.5633  108.8719 N   0  3  0  0  0  0  0  0  0  0  0  0
  127.5355  105.9984  109.6552 N   0  0  0  0  0  0  0  0  0  0  0  0
  122.3618  108.7007  109.3781 N   0  0  0  0  0  0  0  0  0  0  0  0
  120.2866  108.7711  108.3409 O   0  0  0  0  0  0  0  0  0  0  0  0
  123.7613  106.8273  104.8563 O   0  0  0  0  0  0  0  0  0  0  0  0
  125.4905  108.4008  105.5985 O   0  0  0  0  0  0  0  0  0  0  0  0
  124.2835  107.6527  105.9429 S   0  0  0  0  0  0  0  0  0  0  0  0
  123.4423  104.9219  106.5675 H   0  0  0  0  0  0  0  0  0  0  0  0
  126.4759  107.6919  107.8643 H   0  0  0  0  0  0  0  0  0  0  0  0
  124.3787  103.2594  108.2339 H   0  0  0  0  0  0  0  0  0  0  0  0
  120.7143  108.2885  105.6923 H   0  0  0  0  0  0  0  0  0  0  0  0
  120.2473  106.7607  106.4501 H   0  0  0  0  0  0  0  0  0  0  0  0
  121.5814  106.7946  105.2904 H   0  0  0  0  0  0  0  0  0  0  0  0
  122.1708  110.5214  110.3863 H   0  0  0  0  0  0  0  0  0  0  0  0
  122.5980  109.1331  111.4109 H   0  0  0  0  0  0  0  0  0  0  0  0
  120.9416  109.3027  110.7907 H   0  0  0  0  0  0  0  0  0  0  0  0
  122.4700  106.6662  107.6126 H   0  0  0  0  0  0  0  0  0  0  0  0
  126.1887  103.8708  109.5322 H   0  0  0  0  0  0  0  0  0  0  0  0
  128.0317  106.8691  109.5892 H   0  0  0  0  0  0  0  0  0  0  0  0
  127.8718  105.2653  110.2535 H   0  0  0  0  0  0  0  0  0  0  0  0
  123.3157  108.3620  109.2940 H   0  0  0  0  0  0  0  0  0  0  0  0
  1  3  2  0  0  0  0
  1  4  1  0  0  0  0
  2  4  2  0  0  0  0
  2  5  1  0  0  0  0
  3 11  1  0  0  0  0
  4 17  1  0  0  0  0
  5 11  2  0  0  0  0
  5 12  1  0  0  0  0
  6  9  1  0  0  0  0
  6 13  1  0  0  0  0
  6 14  2  0  0  0  0
  7  9  1  0  0  0  0
  8 13  1  0  0  0  0
  9 10  1  0  0  0  0
 10 17  1  0  0  0  0
 15 17  2  0  0  0  0
 16 17  2  0  0  0  0
  1 18  1  0  0  0  0
  2 19  1  0  0  0  0
  3 20  1  0  0  0  0
  7 21  1  0  0  0  0
  7 22  1  0  0  0  0
  7 23  1  0  0  0  0
  8 24  1  0  0  0  0
  8 25  1  0  0  0  0
  8 26  1  0  0  0  0
  9 27  1  0  0  0  0
 11 28  1  0  0  0  0
 12 29  1  0  0  0  0
 12 30  1  0  0  0  0
 13 31  1  0  0  0  0
M  CHG  2  10  -1  11   1
M  END
> <FRED Chemgauss4 score>
-9.841851

$$$$
C44686306	P67425244
  -OEChem-05122015313D

 41 43  0     1  0  0  0  0  0999 V2000
  125.7608  104.9961  108.1791 C   0  0  0  0  0  0  0  0  0  0  0  0
  124.8186  104.1899  108.8177 C   0  0  0  0  0  0  0  0  0  0  0  0
  123.0964  105.8106  108.3230 C   0  0  0  0  0  0  0  0  0  0  0  0
  125.3708  106.2097  107.6125 C   0  0  0  0  0  0  0  0  0  0  0  0
  123.4865  104.5971  108.8897 C   0  0  0  0  0  0  0  0  0  0  0  0
  124.0387  106.6168  107.6844 C   0  0  0  0  0  0  0  0  0  0  0  0
  124.9462  112.2488  112.2025 C   0  0  0  0  0  0  0  0  0  0  0  0
  123.7315  113.1209  112.0703 C   0  0  0  0  0  0  0  0  0  0  0  0
  121.6636  109.7526  109.5129 C   0  0  0  0  0  0  0  0  0  0  0  0
  121.8018  110.8352  110.5794 C   0  0  0  0  0  0  0  0  0  0  0  0
  123.7664  109.5940  110.6963 C   0  0  0  0  0  0  0  0  0  0  0  0
  123.5903  111.6243  112.0165 C   0  0  0  0  0  0  0  0  0  0  0  0
  123.0040  109.0143  109.5099 C   0  0  2  0  0  0  0  0  0  0  0  0
  126.4044  107.0494  106.9357 C   0  0  0  0  0  0  0  0  0  0  0  0
  123.2467  110.9618  110.7672 N   0  0  2  0  0  0  0  0  0  0  0  0
  122.5340  103.7807  109.5343 N   0  0  0  0  0  0  0  0  0  0  0  0
  123.7200  109.2249  108.2741 N   0  0  0  0  0  0  0  0  0  0  0  0
  124.4340  108.4905  105.9115 O   0  0  0  0  0  0  0  0  0  0  0  0
  122.0923  108.0164  106.6964 O   0  0  0  0  0  0  0  0  0  0  0  0
  123.5096  108.1472  106.9752 S   0  0  0  0  0  0  0  0  0  0  0  0
  126.7962  104.6694  108.1291 H   0  0  0  0  0  0  0  0  0  0  0  0
  125.1342  103.2464  109.2557 H   0  0  0  0  0  0  0  0  0  0  0  0
  122.0573  106.1269  108.3800 H   0  0  0  0  0  0  0  0  0  0  0  0
  125.6453  112.2321  111.3752 H   0  0  0  0  0  0  0  0  0  0  0  0
  125.4073  112.1717  113.1796 H   0  0  0  0  0  0  0  0  0  0  0  0
  123.3766  113.6293  112.9585 H   0  0  0  0  0  0  0  0  0  0  0  0
  123.6173  113.6883  111.1545 H   0  0  0  0  0  0  0  0  0  0  0  0
  120.8658  109.0524  109.7926 H   0  0  0  0  0  0  0  0  0  0  0  0
  121.3979  110.1853  108.5415 H   0  0  0  0  0  0  0  0  0  0  0  0
  121.3590  111.7738  110.2146 H   0  0  0  0  0  0  0  0  0  0  0  0
  121.2887  110.5542  111.5075 H   0  0  0  0  0  0  0  0  0  0  0  0
  123.5604  109.0345  111.6146 H   0  0  0  0  0  0  0  0  0  0  0  0
  124.8508  109.5831  110.5240 H   0  0  0  0  0  0  0  0  0  0  0  0
  123.1555  111.1491  112.8902 H   0  0  0  0  0  0  0  0  0  0  0  0
  122.8269  107.9316  109.6543 H   0  0  0  0  0  0  0  0  0  0  0  0
  126.4727  106.7851  105.8742 H   0  0  0  0  0  0  0  0  0  0  0  0
  126.1624  108.1163  107.0157 H   0  0  0  0  0  0  0  0  0  0  0  0
  127.3907  106.9102  107.3953 H   0  0  0  0  0  0  0  0  0  0  0  0
  122.8169  102.8916  109.8939 H   0  0  0  0  0  0  0  0  0  0  0  0
  121.5741  104.0612  109.5381 H   0  0  0  0  0  0  0  0  0  0  0  0
  123.9988  110.1915  108.0826 H   0  0  0  0  0  0  0  0  0  0  0  0
  1  2  2  0  0  0  0
  1  4  1  0  0  0  0
  2  5  1  0  0  0  0
  3  5  2  0  0  0  0
  3  6  1  0  0  0  0
  4  6  2  0  0  0  0
  4 14  1  0  0  0  0
  5 16  1  0  0  0  0
  6 20  1  0  0  0  0
  7  8  1  0  0  0  0
  7 12  1  0  0  0  0
  8 12  1  0  0  0  0
  9 10  1  0  0  0  0
  9 13  1  0  0  0  0
 10 15  1  0  0  0  0
 11 13  1  0  0  0  0
 11 15  1  0  0  0  0
 12 15  1  0  0  0  0
 13 17  1  0  0  0  0
 17 20  1  0  0  0  0
 18 20  2  0  0  0  0
 19 20  2  0  0  0  0
  1 21  1  0  0  0  0
  2 22  1  0  0  0  0
  3 23  1  0  0  0  0
  7 24  1  0  0  0  0
  7 25  1  0  0  0  0
  8 26  1  0  0  0  0
  8 27  1  0  0  0  0
  9 28  1  0  0  0  0
  9 29  1  0  0  0  0
 10 30  1  0  0  0  0
 10 31  1  0  0  0  0
 11 32  1  0  0  0  0
 11 33  1  0  0  0  0
 12 34  1  0  0  0  0
 13 35  1  0  0  0  0
 14 36  1  0  0  0  0
 14 37  1  0  0  0  0
 14 38  1  0  0  0  0
 16 39  1  0  0  0  0
 16 40  1  0  0  0  0
 17 41  1  0  0  0  0
M  END
> <FRED Chemgauss4 score>
-9.839985

$$$$
C48630515	P72697623
  -OEChem-05122015313D

 26 27  0     1  0  0  0  0  0999 V2000
  123.9381  107.8492  110.0449 C   0  0  0  0  0  0  0  0  0  0  0  0
  122.6492  109.5643  110.5484 C   0  0  0  0  0  0  0  0  0  0  0  0
  124.5291  109.0413  109.6983 C   0  0  0  0  0  0  0  0  0  0  0  0
  125.3158  107.8071  107.0300 C   0  0  0  0  0  0  0  0  0  0  0  0
  123.8954  106.8157  105.8063 C   0  0  0  0  0  0  0  0  0  0  0  0
  122.9892  105.8020  105.2712 C   0  0  0  0  0  0  0  0  0  0  0  0
  125.8778  109.2642  109.0543 C   0  0  0  0  0  0  0  0  0  0  0  0
  126.3056  108.1029  108.1373 C   0  0  1  0  0  0  0  0  0  0  0  0
  124.9931  108.6761  106.0521 N   0  5  0  0  0  0  0  0  0  0  0  0
  123.7218  110.1051  110.0146 N   0  0  0  0  0  0  0  0  0  0  0  0
  124.6513  106.6509  106.9001 N   0  0  0  0  0  0  0  0  0  0  0  0
  124.0732  108.0348  105.2605 N   0  0  0  0  0  0  0  0  0  0  0  0
  122.7347  108.2004  110.5886 N   0  0  0  0  0  0  0  0  0  0  0  0
  126.5526  106.9061  109.0062 N   0  3  0  0  0  0  0  0  0  0  0  0
  124.2500  106.8182  109.9594 H   0  0  0  0  0  0  0  0  0  0  0  0
  121.7856  110.0970  110.9211 H   0  0  0  0  0  0  0  0  0  0  0  0
  121.9725  105.8891  105.7025 H   0  0  0  0  0  0  0  0  0  0  0  0
  122.8785  105.8647  104.1695 H   0  0  0  0  0  0  0  0  0  0  0  0
  123.3368  104.7679  105.4712 H   0  0  0  0  0  0  0  0  0  0  0  0
  126.6320  109.4474  109.8309 H   0  0  0  0  0  0  0  0  0  0  0  0
  125.8224  110.1971  108.4765 H   0  0  0  0  0  0  0  0  0  0  0  0
  127.2879  108.3219  107.7010 H   0  0  0  0  0  0  0  0  0  0  0  0
  122.0351  107.5677  110.9531 H   0  0  0  0  0  0  0  0  0  0  0  0
  125.8881  106.1658  108.7813 H   0  0  0  0  0  0  0  0  0  0  0  0
  126.4441  107.1581  109.9889 H   0  0  0  0  0  0  0  0  0  0  0  0
  127.4989  106.5549  108.8591 H   0  0  0  0  0  0  0  0  0  0  0  0
  1  3  2  0  0  0  0
  1 13  1  0  0  0  0
  2 10  2  0  0  0  0
  2 13  1  0  0  0  0
  3  7  1  0  0  0  0
  3 10  1  0  0  0  0
  4  8  1  0  0  0  0
  4  9  1  0  0  0  0
  4 11  2  0  0  0  0
  5  6  1  0  0  0  0
  5 11  1  0  0  0  0
  5 12  2  0  0  0  0
  7  8  1  0  0  0  0
  8 14  1  0  0  0  0
  9 12  1  0  0  0  0
  1 15  1  0  0  0  0
  2 16  1  0  0  0  0
  6 17  1  0  0  0  0
  6 18  1  0  0  0  0
  6 19  1  0  0  0  0
  7 20  1  0  0  0  0
  7 21  1  0  0  0  0
  8 22  1  0  0  0  0
 13 23  1  0  0  0  0
 14 24  1  0  0  0  0
 14 25  1  0  0  0  0
 14 26  1  0  0  0  0
M  CHG  2   9  -1  14   1
M  END
> <FRED Chemgauss4 score>
-9.831446

$$$$
C90670312	P141810387
  -OEChem-05122015313D

 30 31  0     1  0  0  0  0  0999 V2000
  122.5795  106.1680  106.0376 C   0  0  0  0  0  0  0  0  0  0  0  0
  122.4809  105.1192  106.8862 C   0  0  0  0  0  0  0  0  0  0  0  0
  123.7858  107.0016  106.0798 C   0  0  0  0  0  0  0  0  0  0  0  0
  124.5523  105.5547  107.8229 C   0  0  0  0  0  0  0  0  0  0  0  0
  125.7575  107.5854  106.8266 C   0  0  0  0  0  0  0  0  0  0  0  0
  125.6589  105.2492  108.7911 C   0  0  0  0  0  0  0  0  0  0  0  0
  120.3025  104.6687  105.8969 C   0  0  0  0  0  0  0  0  0  0  0  0
  118.2364  103.6682  104.7847 C   0  0  0  0  0  0  0  0  0  0  0  0
  119.1250  103.7021  106.0243 C   0  0  2  0  0  0  0  0  0  0  0  0
  123.4890  104.8107  107.7943 N   0  0  0  0  0  0  0  0  0  0  0  0
  124.0676  108.0394  105.3578 N   0  0  0  0  0  0  0  0  0  0  0  0
  125.2989  108.4306  105.8008 N   0  0  0  0  0  0  0  0  0  0  0  0
  124.7294  106.6479  106.9865 N   0  0  0  0  0  0  0  0  0  0  0  0
  121.3389  104.3506  106.8302 N   0  0  0  0  0  0  0  0  0  0  0  0
  126.8188  107.6756  107.4242 O   0  0  0  0  0  0  0  0  0  0  0  0
  117.6878  104.9660  104.5761 O   0  0  0  0  0  0  0  0  0  0  0  0
  118.3231  104.0675  107.1480 O   0  0  0  0  0  0  0  0  0  0  0  0
  121.8049  106.4252  105.3241 H   0  0  0  0  0  0  0  0  0  0  0  0
  126.3681  104.5693  108.3260 H   0  0  0  0  0  0  0  0  0  0  0  0
  125.2417  104.7890  109.6836 H   0  0  0  0  0  0  0  0  0  0  0  0
  126.1631  106.1724  109.0664 H   0  0  0  0  0  0  0  0  0  0  0  0
  120.7231  104.6148  104.8872 H   0  0  0  0  0  0  0  0  0  0  0  0
  119.9687  105.6975  106.0671 H   0  0  0  0  0  0  0  0  0  0  0  0
  117.4069  102.9663  104.9144 H   0  0  0  0  0  0  0  0  0  0  0  0
  118.8066  103.4028  103.8887 H   0  0  0  0  0  0  0  0  0  0  0  0
  119.5047  102.6934  106.2257 H   0  0  0  0  0  0  0  0  0  0  0  0
  125.8130  109.2236  105.4388 H   0  0  0  0  0  0  0  0  0  0  0  0
  121.2934  103.5924  107.4592 H   0  0  0  0  0  0  0  0  0  0  0  0
  117.1312  104.9075  103.7839 H   0  0  0  0  0  0  0  0  0  0  0  0
  118.9001  104.0139  107.9246 H   0  0  0  0  0  0  0  0  0  0  0  0
  1  2  2  0  0  0  0
  1  3  1  0  0  0  0
  2 10  1  0  0  0  0
  2 14  1  0  0  0  0
  3 11  2  0  0  0  0
  3 13  1  0  0  0  0
  4  6  1  0  0  0  0
  4 10  2  0  0  0  0
  4 13  1  0  0  0  0
  5 12  1  0  0  0  0
  5 13  1  0  0  0  0
  5 15  2  0  0  0  0
  7  9  1  0  0  0  0
  7 14  1  0  0  0  0
  8  9  1  0  0  0  0
  8 16  1  0  0  0  0
  9 17  1  0  0  0  0
 11 12  1  0  0  0  0
  1 18  1  0  0  0  0
  6 19  1  0  0  0  0
  6 20  1  0  0  0  0
  6 21  1  0  0  0  0
  7 22  1  0  0  0  0
  7 23  1  0  0  0  0
  8 24  1  0  0  0  0
  8 25  1  0  0  0  0
  9 26  1  0  0  0  0
 12 27  1  0  0  0  0
 14 28  1  0  0  0  0
 16 29  1  0  0  0  0
 17 30  1  0  0  0  0
M  END
> <FRED Chemgauss4 score>
-9.828723

$$$$
C97646842	P154797472
  -OEChem-05122015313D

 42 43  0     1  0  0  0  0  0999 V2000
  123.9252  107.6861  109.6113 C   0  0  0  0  0  0  0  0  0  0  0  0
  125.2393  109.1180  108.2403 C   0  0  0  0  0  0  0  0  0  0  0  0
  123.7796  110.0561  109.7461 C   0  0  0  0  0  0  0  0  0  0  0  0
  124.8851  107.8322  108.6161 C   0  0  0  0  0  0  0  0  0  0  0  0
  123.3568  108.8143  110.1922 C   0  0  0  0  0  0  0  0  0  0  0  0
  124.9525  103.6462  107.6038 C   0  0  0  0  0  0  0  0  0  0  0  0
  123.8873  104.6135  108.1491 C   0  0  0  0  0  0  0  0  0  0  0  0
  125.1271  104.5928  106.4032 C   0  0  0  0  0  0  0  0  0  0  0  0
  124.5073  105.7302  107.2627 C   0  0  0  0  0  0  0  0  0  0  0  0
  120.6910  109.8386  109.9354 C   0  0  0  0  0  0  0  0  0  0  0  0
  120.5072  109.4516  112.4190 C   0  0  0  0  0  0  0  0  0  0  0  0
  124.1563  107.2062  105.4680 C   0  0  0  0  0  0  0  0  0  0  0  0
  125.5236  106.6233  107.9632 C   0  0  2  0  0  0  0  0  0  0  0  0
  121.4420  109.7419  111.2547 C   0  0  0  0  0  0  0  0  0  0  0  0
  124.7093  110.2377  108.7816 N   0  0  0  0  0  0  0  0  0  0  0  0
  127.5571  106.5201  109.1122 N   0  0  0  0  0  0  0  0  0  0  0  0
  126.3001  105.8644  108.9188 N   0  0  0  0  0  0  0  0  0  0  0  0
  122.4186  108.7024  111.1648 O   0  0  0  0  0  0  0  0  0  0  0  0
  123.5483  106.5509  106.5626 O   0  0  0  0  0  0  0  0  0  0  0  0
  123.6183  106.6951  109.9357 H   0  0  0  0  0  0  0  0  0  0  0  0
  125.9830  109.2939  107.4692 H   0  0  0  0  0  0  0  0  0  0  0  0
  123.3708  110.9705  110.1645 H   0  0  0  0  0  0  0  0  0  0  0  0
  125.8431  103.5686  108.2374 H   0  0  0  0  0  0  0  0  0  0  0  0
  124.6003  102.6394  107.3653 H   0  0  0  0  0  0  0  0  0  0  0  0
  122.8627  104.3425  107.8679 H   0  0  0  0  0  0  0  0  0  0  0  0
  123.9185  104.7783  109.2299 H   0  0  0  0  0  0  0  0  0  0  0  0
  126.1601  104.7410  106.0754 H   0  0  0  0  0  0  0  0  0  0  0  0
  124.5206  104.3155  105.5330 H   0  0  0  0  0  0  0  0  0  0  0  0
  120.1449  108.9150  109.7207 H   0  0  0  0  0  0  0  0  0  0  0  0
  119.9773  110.6689  109.9633 H   0  0  0  0  0  0  0  0  0  0  0  0
  121.3766  110.0415  109.1052 H   0  0  0  0  0  0  0  0  0  0  0  0
  119.9566  108.5188  112.2634 H   0  0  0  0  0  0  0  0  0  0  0  0
  119.7865  110.2671  112.5416 H   0  0  0  0  0  0  0  0  0  0  0  0
  121.0620  109.3780  113.3609 H   0  0  0  0  0  0  0  0  0  0  0  0
  123.4143  107.8211  104.9527 H   0  0  0  0  0  0  0  0  0  0  0  0
  124.5698  106.4632  104.7813 H   0  0  0  0  0  0  0  0  0  0  0  0
  124.9615  107.8449  105.8386 H   0  0  0  0  0  0  0  0  0  0  0  0
  126.2474  106.9646  107.2112 H   0  0  0  0  0  0  0  0  0  0  0  0
  121.9767  110.6791  111.4403 H   0  0  0  0  0  0  0  0  0  0  0  0
  128.3103  105.9009  108.8136 H   0  0  0  0  0  0  0  0  0  0  0  0
  127.6073  107.3342  108.5010 H   0  0  0  0  0  0  0  0  0  0  0  0
  125.8098  105.8233  109.8154 H   0  0  0  0  0  0  0  0  0  0  0  0
  1  4  2  0  0  0  0
  1  5  1  0  0  0  0
  2  4  1  0  0  0  0
  2 15  2  0  0  0  0
  3  5  2  0  0  0  0
  3 15  1  0  0  0  0
  4 13  1  0  0  0  0
  5 18  1  0  0  0  0
  6  7  1  0  0  0  0
  6  8  1  0  0  0  0
  7  9  1  0  0  0  0
  8  9  1  0  0  0  0
  9 13  1  0  0  0  0
  9 19  1  0  0  0  0
 10 14  1  0  0  0  0
 11 14  1  0  0  0  0
 12 19  1  0  0  0  0
 13 17  1  0  0  0  0
 14 18  1  0  0  0  0
 16 17  1  0  0  0  0
  1 20  1  0  0  0  0
  2 21  1  0  0  0  0
  3 22  1  0  0  0  0
  6 23  1  0  0  0  0
  6 24  1  0  0  0  0
  7 25  1  0  0  0  0
  7 26  1  0  0  0  0
  8 27  1  0  0  0  0
  8 28  1  0  0  0  0
 10 29  1  0  0  0  0
 10 30  1  0  0  0  0
 10 31  1  0  0  0  0
 11 32  1  0  0  0  0
 11 33  1  0  0  0  0
 11 34  1  0  0  0  0
 12 35  1  0  0  0  0
 12 36  1  0  0  0  0
 12 37  1  0  0  0  0
 13 38  1  0  0  0  0
 14 39  1  0  0  0  0
 16 40  1  0  0  0  0
 16 41  1  0  0  0  0
 17 42  1  0  0  0  0
M  END
> <FRED Chemgauss4 score>
-9.821863

$$$$
C72200101	P112162253
  -OEChem-05122015313D

 24 24  0     1  0  0  0  0  0999 V2000
  125.9353  104.4444  108.8582 C   0  0  0  0  0  0  0  0  0  0  0  0
  124.4396  104.9207  106.9832 C   0  0  0  0  0  0  0  0  0  0  0  0
  123.7076  105.8262  106.2152 C   0  0  0  0  0  0  0  0  0  0  0  0
  125.2001  106.7301  108.3919 C   0  0  0  0  0  0  0  0  0  0  0  0
  125.1858  105.3726  108.0716 C   0  0  0  0  0  0  0  0  0  0  0  0
  124.4681  107.6357  107.6239 C   0  0  0  0  0  0  0  0  0  0  0  0
  123.7219  107.1837  106.5355 C   0  0  0  0  0  0  0  0  0  0  0  0
  124.0028  109.3102  109.4434 C   0  0  0  0  0  0  0  0  0  0  0  0
  124.5210  109.0970  108.0193 C   0  0  1  0  0  0  0  0  0  0  0  0
  126.5439  103.6905  109.4971 N   0  0  0  0  0  0  0  0  0  0  0  0
  125.8609  109.6202  107.8662 N   0  0  0  0  0  0  0  0  0  0  0  0
  123.5779  110.7236  109.6133 N   0  3  0  0  0  0  0  0  0  0  0  0
  123.0418  107.9997  105.8162 O   0  5  0  0  0  0  0  0  0  0  0  0
  124.4188  103.8654  106.7212 H   0  0  0  0  0  0  0  0  0  0  0  0
  123.1340  105.4456  105.3713 H   0  0  0  0  0  0  0  0  0  0  0  0
  125.7804  107.0865  109.2408 H   0  0  0  0  0  0  0  0  0  0  0  0
  123.1270  108.6947  109.6733 H   0  0  0  0  0  0  0  0  0  0  0  0
  124.7790  109.1277  110.1938 H   0  0  0  0  0  0  0  0  0  0  0  0
  123.8999  109.6785  107.3260 H   0  0  0  0  0  0  0  0  0  0  0  0
  126.1179  110.4461  108.3750 H   0  0  0  0  0  0  0  0  0  0  0  0
  126.4302  109.2768  107.1144 H   0  0  0  0  0  0  0  0  0  0  0  0
  123.8439  111.0759  110.5382 H   0  0  0  0  0  0  0  0  0  0  0  0
  122.5610  110.8120  109.5200 H   0  0  0  0  0  0  0  0  0  0  0  0
  124.0153  111.3235  108.9067 H   0  0  0  0  0  0  0  0  0  0  0  0
  1  5  1  0  0  0  0
  1 10  3  0  0  0  0
  2  3  1  0  0  0  0
  2  5  2  0  0  0  0
  3  7  2  0  0  0  0
  4  5  1  0  0  0  0
  4  6  2  0  0  0  0
  6  7  1  0  0  0  0
  6  9  1  0  0  0  0
  7 13  1  0  0  0  0
  8  9  1  0  0  0  0
  8 12  1  0  0  0  0
  9 11  1  0  0  0  0
  2 14  1  0  0  0  0
  3 15  1  0  0  0  0
  4 16  1  0  0  0  0
  8 17  1  0  0  0  0
  8 18  1  0  0  0  0
  9 19  1  0  0  0  0
 11 20  1  0  0  0  0
 11 21  1  0  0  0  0
 12 22  1  0  0  0  0
 12 23  1  0  0  0  0
 12 24  1  0  0  0  0
M  CHG  2  12   1  13  -1
M  END
> <FRED Chemgauss4 score>
-9.819633

$$$$
C87732307	P137229475
  -OEChem-05122015313D

 27 27  0     0  0  0  0  0  0999 V2000
  123.6088  110.1071  110.4596 C   0  0  0  0  0  0  0  0  0  0  0  0
  124.5779  107.8751  109.3613 C   0  0  0  0  0  0  0  0  0  0  0  0
  123.2842  108.8674  110.9648 C   0  0  0  0  0  0  0  0  0  0  0  0
  124.9019  109.1147  108.8555 C   0  0  0  0  0  0  0  0  0  0  0  0
  125.2906  107.4054  106.1725 C   0  0  0  0  0  0  0  0  0  0  0  0
  123.5873  105.5668  106.1517 C   0  0  0  0  0  0  0  0  0  0  0  0
  125.8179  105.1454  107.1115 C   0  0  0  0  0  0  0  0  0  0  0  0
  126.3124  108.0265  107.1085 C   0  0  0  0  0  0  0  0  0  0  0  0
  123.7631  107.7291  110.4250 N   0  0  0  0  0  0  0  0  0  0  0  0
  124.4232  110.2530  109.3956 N   0  0  0  0  0  0  0  0  0  0  0  0
  122.4224  108.8040  112.0824 N   0  0  0  0  0  0  0  0  0  0  0  0
  125.7498  109.1774  107.7551 N   0  0  0  0  0  0  0  0  0  0  0  0
  124.9141  106.0903  106.4674 N   0  0  0  0  0  0  0  0  0  0  0  0
  124.8360  108.0448  105.2201 O   0  0  0  0  0  0  0  0  0  0  0  0
  123.2296  111.0289  110.8859 H   0  0  0  0  0  0  0  0  0  0  0  0
  124.9573  106.9535  108.9350 H   0  0  0  0  0  0  0  0  0  0  0  0
  123.5847  105.1289  105.1502 H   0  0  0  0  0  0  0  0  0  0  0  0
  122.8460  106.3699  106.1865 H   0  0  0  0  0  0  0  0  0  0  0  0
  123.3034  104.7963  106.8735 H   0  0  0  0  0  0  0  0  0  0  0  0
  125.7122  105.2052  108.1978 H   0  0  0  0  0  0  0  0  0  0  0  0
  126.8540  105.3722  106.8457 H   0  0  0  0  0  0  0  0  0  0  0  0
  125.5892  104.1253  106.7913 H   0  0  0  0  0  0  0  0  0  0  0  0
  126.5953  107.3146  107.8882 H   0  0  0  0  0  0  0  0  0  0  0  0
  127.1896  108.3596  106.5480 H   0  0  0  0  0  0  0  0  0  0  0  0
  122.1108  109.6541  112.5041 H   0  0  0  0  0  0  0  0  0  0  0  0
  122.2172  107.9142  112.4871 H   0  0  0  0  0  0  0  0  0  0  0  0
  125.9816  110.1003  107.3930 H   0  0  0  0  0  0  0  0  0  0  0  0
  1  3  2  0  0  0  0
  1 10  1  0  0  0  0
  2  4  1  0  0  0  0
  2  9  2  0  0  0  0
  3  9  1  0  0  0  0
  3 11  1  0  0  0  0
  4 10  2  0  0  0  0
  4 12  1  0  0  0  0
  5  8  1  0  0  0  0
  5 13  1  0  0  0  0
  5 14  2  0  0  0  0
  6 13  1  0  0  0  0
  7 13  1  0  0  0  0
  8 12  1  0  0  0  0
  1 15  1  0  0  0  0
  2 16  1  0  0  0  0
  6 17  1  0  0  0  0
  6 18  1  0  0  0  0
  6 19  1  0  0  0  0
  7 20  1  0  0  0  0
  7 21  1  0  0  0  0
  7 22  1  0  0  0  0
  8 23  1  0  0  0  0
  8 24  1  0  0  0  0
 11 25  1  0  0  0  0
 11 26  1  0  0  0  0
 12 27  1  0  0  0  0
M  END
> <FRED Chemgauss4 score>
-9.818233

$$$$
C43596919	P128434399
  -OEChem-05122015313D

 29 30  0     1  0  0  0  0  0999 V2000
  118.5024  103.8632  105.7120 C   0  0  0  0  0  0  0  0  0  0  0  0
  125.6051  104.8468  107.7837 C   0  0  0  0  0  0  0  0  0  0  0  0
  124.3584  104.9045  107.1609 C   0  0  0  0  0  0  0  0  0  0  0  0
  119.7868  103.9257  106.3032 C   0  0  0  0  0  0  0  0  0  0  0  0
  125.0837  106.8594  109.0142 C   0  0  0  0  0  0  0  0  0  0  0  0
  117.9238  105.0929  105.9245 C   0  0  0  0  0  0  0  0  0  0  0  0
  125.9678  105.8242  108.7104 C   0  0  0  0  0  0  0  0  0  0  0  0
  123.4743  105.9397  107.4647 C   0  0  0  0  0  0  0  0  0  0  0  0
  123.8369  106.9172  108.3914 C   0  0  0  0  0  0  0  0  0  0  0  0
  119.9017  105.1892  106.8346 C   0  0  0  0  0  0  0  0  0  0  0  0
  122.1451  106.0575  105.3719 C   0  0  0  0  0  0  0  0  0  0  0  0
  120.9957  105.8917  107.5855 C   0  0  0  0  0  0  0  0  0  0  0  0
  127.2288  105.7652  109.3393 N   0  0  0  0  0  0  0  0  0  0  0  0
  122.2195  105.9673  106.8152 N   0  0  3  0  0  0  0  0  0  0  0  0
  118.7703  105.9070  106.6080 O   0  0  0  0  0  0  0  0  0  0  0  0
  122.6726  108.3477  108.8406 Br  0  0  0  0  0  0  0  0  0  0  0  0
  118.0542  103.0266  105.1960 H   0  0  0  0  0  0  0  0  0  0  0  0
  126.2865  104.0362  107.5385 H   0  0  0  0  0  0  0  0  0  0  0  0
  124.0871  104.1363  106.4408 H   0  0  0  0  0  0  0  0  0  0  0  0
  120.5334  103.1450  106.3364 H   0  0  0  0  0  0  0  0  0  0  0  0
  125.3749  107.6179  109.7378 H   0  0  0  0  0  0  0  0  0  0  0  0
  116.9676  105.5236  105.6662 H   0  0  0  0  0  0  0  0  0  0  0  0
  121.1007  106.0668  105.0494 H   0  0  0  0  0  0  0  0  0  0  0  0
  122.6475  105.2015  104.9134 H   0  0  0  0  0  0  0  0  0  0  0  0
  122.6287  106.9747  105.0251 H   0  0  0  0  0  0  0  0  0  0  0  0
  120.6942  106.9134  107.8409 H   0  0  0  0  0  0  0  0  0  0  0  0
  121.2223  105.3752  108.5242 H   0  0  0  0  0  0  0  0  0  0  0  0
  127.8339  104.9926  109.1475 H   0  0  0  0  0  0  0  0  0  0  0  0
  127.4584  106.4446  110.0362 H   0  0  0  0  0  0  0  0  0  0  0  0
  1  4  1  0  0  0  0
  1  6  2  0  0  0  0
  2  3  2  0  0  0  0
  2  7  1  0  0  0  0
  3  8  1  0  0  0  0
  4 10  2  0  0  0  0
  5  7  2  0  0  0  0
  5  9  1  0  0  0  0
  6 15  1  0  0  0  0
  7 13  1  0  0  0  0
  8  9  2  0  0  0  0
  8 14  1  0  0  0  0
  9 16  1  0  0  0  0
 10 12  1  0  0  0  0
 10 15  1  0  0  0  0
 11 14  1  0  0  0  0
 12 14  1  0  0  0  0
  1 17  1  0  0  0  0
  2 18  1  0  0  0  0
  3 19  1  0  0  0  0
  4 20  1  0  0  0  0
  5 21  1  0  0  0  0
  6 22  1  0  0  0  0
 11 23  1  0  0  0  0
 11 24  1  0  0  0  0
 11 25  1  0  0  0  0
 12 26  1  0  0  0  0
 12 27  1  0  0  0  0
 13 28  1  0  0  0  0
 13 29  1  0  0  0  0
M  END
> <FRED Chemgauss4 score>
-9.812047

$$$$
C40229108	P61083142
  -OEChem-05122015313D

 42 43  0     0  0  0  0  0  0999 V2000
  116.8926  104.6420  103.0797 C   0  0  0  0  0  0  0  0  0  0  0  0
  118.1916  104.9088  103.5120 C   0  0  0  0  0  0  0  0  0  0  0  0
  116.0175  103.9285  103.8988 C   0  0  0  0  0  0  0  0  0  0  0  0
  117.7407  103.7484  105.5826 C   0  0  0  0  0  0  0  0  0  0  0  0
  118.6156  104.4620  104.7635 C   0  0  0  0  0  0  0  0  0  0  0  0
  116.4416  103.4816  105.1502 C   0  0  0  0  0  0  0  0  0  0  0  0
  120.5896  103.7941  106.1052 C   0  0  0  0  0  0  0  0  0  0  0  0
  120.3338  106.1333  105.3109 C   0  0  0  0  0  0  0  0  0  0  0  0
  122.1075  103.9834  106.0468 C   0  0  0  0  0  0  0  0  0  0  0  0
  121.8596  106.2466  105.2770 C   0  0  0  0  0  0  0  0  0  0  0  0
  123.9285  105.5408  106.2878 C   0  0  0  0  0  0  0  0  0  0  0  0
  124.4966  105.0659  107.6128 C   0  0  0  0  0  0  0  0  0  0  0  0
  127.7426  106.7038  107.8723 C   0  0  0  0  0  0  0  0  0  0  0  0
  126.3171  106.5343  107.3835 C   0  0  0  0  0  0  0  0  0  0  0  0
  119.9190  104.7294  105.1969 N   0  0  0  0  0  0  0  0  0  0  0  0
  122.4746  105.3832  106.2928 N   0  0  0  0  0  0  0  0  0  0  0  0
  115.5562  102.7616  105.9790 N   0  0  0  0  0  0  0  0  0  0  0  0
  127.7946  106.4086  109.2628 O   0  0  0  0  0  0  0  0  0  0  0  0
  125.9131  105.1878  107.5900 O   0  0  0  0  0  0  0  0  0  0  0  0
  116.5621  104.9898  102.1052 H   0  0  0  0  0  0  0  0  0  0  0  0
  118.8648  105.4656  102.8651 H   0  0  0  0  0  0  0  0  0  0  0  0
  115.0070  103.7267  103.5525 H   0  0  0  0  0  0  0  0  0  0  0  0
  118.0711  103.3994  106.5586 H   0  0  0  0  0  0  0  0  0  0  0  0
  120.3513  102.7600  105.8265 H   0  0  0  0  0  0  0  0  0  0  0  0
  120.2331  103.9525  107.1317 H   0  0  0  0  0  0  0  0  0  0  0  0
  119.9484  106.5590  106.2470 H   0  0  0  0  0  0  0  0  0  0  0  0
  119.9164  106.7191  104.4825 H   0  0  0  0  0  0  0  0  0  0  0  0
  122.5622  103.3363  106.8067 H   0  0  0  0  0  0  0  0  0  0  0  0
  122.4814  103.6508  105.0688 H   0  0  0  0  0  0  0  0  0  0  0  0
  122.2257  105.9860  104.2747 H   0  0  0  0  0  0  0  0  0  0  0  0
  122.1291  107.2938  105.4603 H   0  0  0  0  0  0  0  0  0  0  0  0
  124.1584  106.5966  106.1131 H   0  0  0  0  0  0  0  0  0  0  0  0
  124.3335  104.9449  105.4643 H   0  0  0  0  0  0  0  0  0  0  0  0
  124.2507  104.0110  107.7694 H   0  0  0  0  0  0  0  0  0  0  0  0
  124.1062  105.6518  108.4513 H   0  0  0  0  0  0  0  0  0  0  0  0
  128.0892  107.7319  107.7290 H   0  0  0  0  0  0  0  0  0  0  0  0
  128.4111  106.0131  107.3502 H   0  0  0  0  0  0  0  0  0  0  0  0
  126.2378  106.7537  106.3141 H   0  0  0  0  0  0  0  0  0  0  0  0
  125.6400  107.1851  107.9444 H   0  0  0  0  0  0  0  0  0  0  0  0
  114.6134  102.6190  105.6781 H   0  0  0  0  0  0  0  0  0  0  0  0
  115.8571  102.4880  106.8925 H   0  0  0  0  0  0  0  0  0  0  0  0
  128.7175  106.5273  109.5389 H   0  0  0  0  0  0  0  0  0  0  0  0
  1  2  2  0  0  0  0
  1  3  1  0  0  0  0
  2  5  1  0  0  0  0
  3  6  2  0  0  0  0
  4  5  2  0  0  0  0
  4  6  1  0  0  0  0
  5 15  1  0  0  0  0
  6 17  1  0  0  0  0
  7  9  1  0  0  0  0
  7 15  1  0  0  0  0
  8 10  1  0  0  0  0
  8 15  1  0  0  0  0
  9 16  1  0  0  0  0
 10 16  1  0  0  0  0
 11 12  1  0  0  0  0
 11 16  1  0  0  0  0
 12 19  1  0  0  0  0
 13 14  1  0  0  0  0
 13 18  1  0  0  0  0
 14 19  1  0  0  0  0
  1 20  1  0  0  0  0
  2 21  1  0  0  0  0
  3 22  1  0  0  0  0
  4 23  1  0  0  0  0
  7 24  1  0  0  0  0
  7 25  1  0  0  0  0
  8 26  1  0  0  0  0
  8 27  1  0  0  0  0
  9 28  1  0  0  0  0
  9 29  1  0  0  0  0
 10 30  1  0  0  0  0
 10 31  1  0  0  0  0
 11 32  1  0  0  0  0
 11 33  1  0  0  0  0
 12 34  1  0  0  0  0
 12 35  1  0  0  0  0
 13 36  1  0  0  0  0
 13 37  1  0  0  0  0
 14 38  1  0  0  0  0
 14 39  1  0  0  0  0
 17 40  1  0  0  0  0
 17 41  1  0  0  0  0
 18 42  1  0  0  0  0
M  END
> <FRED Chemgauss4 score>
-9.796280

$$$$
C94371941	P147915902
  -OEChem-05122015313D

 43 45  0     1  0  0  0  0  0999 V2000
  125.4852  106.7427  108.0075 C   0  0  0  0  0  0  0  0  0  0  0  0
  125.9380  105.4222  108.6296 C   0  0  0  0  0  0  0  0  0  0  0  0
  124.3306  106.3973  107.0709 C   0  0  0  0  0  0  0  0  0  0  0  0
  125.0351  104.3426  108.0391 C   0  0  0  0  0  0  0  0  0  0  0  0
  121.7912  106.1580  105.5123 C   0  0  0  0  0  0  0  0  0  0  0  0
  118.5571  104.6276  106.5636 C   0  0  0  0  0  0  0  0  0  0  0  0
  120.8360  103.8528  105.6763 C   0  0  0  0  0  0  0  0  0  0  0  0
  120.3887  106.6548  105.1910 C   0  0  0  0  0  0  0  0  0  0  0  0
  117.1599  104.9558  106.0591 C   0  0  0  0  0  0  0  0  0  0  0  0
  118.6788  103.4381  104.4447 C   0  0  0  0  0  0  0  0  0  0  0  0
  121.7265  104.8911  106.3644 C   0  0  1  0  0  0  0  0  0  0  0  0
  119.4521  104.4292  105.3277 C   0  0  1  0  0  0  0  0  0  0  0  0
  123.7617  105.0782  107.6061 C   0  0  0  0  0  0  0  0  0  0  0  0
  122.8092  105.3070  108.7848 C   0  0  0  0  0  0  0  0  0  0  0  0
  123.0687  104.3509  106.5672 N   0  0  0  0  0  0  0  0  0  0  0  0
  119.6051  105.6397  104.5679 O   0  0  0  0  0  0  0  0  0  0  0  0
  122.0294  106.4581  108.5170 O   0  0  0  0  0  0  0  0  0  0  0  0
  116.9210  103.8760  104.6253 S   0  0  0  0  0  0  0  0  0  0  0  0
  125.1741  107.4646  108.7701 H   0  0  0  0  0  0  0  0  0  0  0  0
  126.3126  107.1955  107.4483 H   0  0  0  0  0  0  0  0  0  0  0  0
  126.9867  105.2290  108.3745 H   0  0  0  0  0  0  0  0  0  0  0  0
  125.8678  105.4434  109.7224 H   0  0  0  0  0  0  0  0  0  0  0  0
  123.5716  107.1911  107.1252 H   0  0  0  0  0  0  0  0  0  0  0  0
  124.6567  106.3373  106.0245 H   0  0  0  0  0  0  0  0  0  0  0  0
  125.5257  103.8026  107.2189 H   0  0  0  0  0  0  0  0  0  0  0  0
  124.8032  103.6008  108.8170 H   0  0  0  0  0  0  0  0  0  0  0  0
  122.3112  105.9413  104.5696 H   0  0  0  0  0  0  0  0  0  0  0  0
  122.3574  106.9446  106.0247 H   0  0  0  0  0  0  0  0  0  0  0  0
  118.9040  105.4291  107.2220 H   0  0  0  0  0  0  0  0  0  0  0  0
  118.5294  103.7098  107.1665 H   0  0  0  0  0  0  0  0  0  0  0  0
  121.3256  103.5315  104.7458 H   0  0  0  0  0  0  0  0  0  0  0  0
  120.7339  102.9599  106.3059 H   0  0  0  0  0  0  0  0  0  0  0  0
  119.8807  107.0274  106.0862 H   0  0  0  0  0  0  0  0  0  0  0  0
  120.4504  107.4947  104.4914 H   0  0  0  0  0  0  0  0  0  0  0  0
  116.3987  104.7702  106.8214 H   0  0  0  0  0  0  0  0  0  0  0  0
  117.0872  105.9989  105.7362 H   0  0  0  0  0  0  0  0  0  0  0  0
  118.9638  103.5054  103.3904 H   0  0  0  0  0  0  0  0  0  0  0  0
  118.8013  102.4051  104.7858 H   0  0  0  0  0  0  0  0  0  0  0  0
  121.3126  105.1359  107.3450 H   0  0  0  0  0  0  0  0  0  0  0  0
  123.3806  105.4636  109.6996 H   0  0  0  0  0  0  0  0  0  0  0  0
  122.1516  104.4460  108.9044 H   0  0  0  0  0  0  0  0  0  0  0  0
  122.9937  103.3708  106.8316 H   0  0  0  0  0  0  0  0  0  0  0  0
  121.4346  106.5830  109.2761 H   0  0  0  0  0  0  0  0  0  0  0  0
  1  2  1  0  0  0  0
  1  3  1  0  0  0  0
  2  4  1  0  0  0  0
  3 13  1  0  0  0  0
  4 13  1  0  0  0  0
  5  8  1  0  0  0  0
  5 11  1  0  0  0  0
  6  9  1  0  0  0  0
  6 12  1  0  0  0  0
  7 11  1  0  0  0  0
  7 12  1  0  0  0  0
  8 16  1  0  0  0  0
  9 18  1  0  0  0  0
 10 12  1  0  0  0  0
 10 18  1  0  0  0  0
 11 15  1  0  0  0  0
 12 16  1  0  0  0  0
 13 14  1  0  0  0  0
 13 15  1  0  0  0  0
 14 17  1  0  0  0  0
  1 19  1  0  0  0  0
  1 20  1  0  0  0  0
  2 21  1  0  0  0  0
  2 22  1  0  0  0  0
  3 23  1  0  0  0  0
  3 24  1  0  0  0  0
  4 25  1  0  0  0  0
  4 26  1  0  0  0  0
  5 27  1  0  0  0  0
  5 28  1  0  0  0  0
  6 29  1  0  0  0  0
  6 30  1  0  0  0  0
  7 31  1  0  0  0  0
  7 32  1  0  0  0  0
  8 33  1  0  0  0  0
  8 34  1  0  0  0  0
  9 35  1  0  0  0  0
  9 36  1  0  0  0  0
 10 37  1  0  0  0  0
 10 38  1  0  0  0  0
 11 39  1  0  0  0  0
 14 40  1  0  0  0  0
 14 41  1  0  0  0  0
 15 42  1  0  0  0  0
 17 43  1  0  0  0  0
M  END
> <FRED Chemgauss4 score>
-9.786131

$$$$
C93829841	P147036827
  -OEChem-05122015313D

 51 53  0     1  0  0  0  0  0999 V2000
  125.3866  108.6059  107.2978 C   0  0  0  0  0  0  0  0  0  0  0  0
  117.8568  106.8402  104.1102 C   0  0  0  0  0  0  0  0  0  0  0  0
  119.3004  107.3060  104.2784 C   0  0  0  0  0  0  0  0  0  0  0  0
  123.6492  105.9316  108.4967 C   0  0  0  0  0  0  0  0  0  0  0  0
  124.6407  106.9698  109.0387 C   0  0  0  0  0  0  0  0  0  0  0  0
  120.6453  103.7110  106.4266 C   0  0  0  0  0  0  0  0  0  0  0  0
  122.9706  108.0458  107.6215 C   0  0  0  0  0  0  0  0  0  0  0  0
  117.7286  105.6118  105.0047 C   0  0  0  0  0  0  0  0  0  0  0  0
  119.2462  104.3265  106.4163 C   0  0  0  0  0  0  0  0  0  0  0  0
  121.7512  104.5512  107.0793 C   0  0  0  0  0  0  0  0  0  0  0  0
  121.3292  106.4434  105.5474 C   0  0  0  0  0  0  0  0  0  0  0  0
  123.0474  106.5667  107.2452 C   0  0  2  0  0  0  0  0  0  0  0  0
  119.8016  106.5377  105.4993 C   0  0  2  0  0  0  0  0  0  0  0  0
  124.3185  108.2873  108.3107 C   0  0  2  0  0  0  0  0  0  0  0  0
  123.2775  110.4228  111.1826 C   0  0  0  0  0  0  0  0  0  0  0  0
  123.2990  109.2550  110.2562 C   0  0  0  0  0  0  0  0  0  0  0  0
  119.1165  105.2593  105.3031 N   0  0  2  0  0  0  0  0  0  0  0  0
  121.7470  106.0040  106.8798 N   0  0  2  0  0  0  0  0  0  0  0  0
  126.6408  108.7522  107.8417 N   0  0  0  0  0  0  0  0  0  0  0  0
  124.2932  109.4348  109.2068 N   0  0  0  0  0  0  0  0  0  0  0  0
  125.1401  108.7045  106.0982 O   0  0  0  0  0  0  0  0  0  0  0  0
  117.1519  107.6194  104.4196 H   0  0  0  0  0  0  0  0  0  0  0  0
  117.6564  106.5985  103.0607 H   0  0  0  0  0  0  0  0  0  0  0  0
  119.8780  107.0507  103.3807 H   0  0  0  0  0  0  0  0  0  0  0  0
  119.3617  108.3900  104.4198 H   0  0  0  0  0  0  0  0  0  0  0  0
  124.1348  104.9740  108.2819 H   0  0  0  0  0  0  0  0  0  0  0  0
  122.8757  105.7451  109.2532 H   0  0  0  0  0  0  0  0  0  0  0  0
  124.5111  107.0530  110.1249 H   0  0  0  0  0  0  0  0  0  0  0  0
  125.6731  106.6432  108.8691 H   0  0  0  0  0  0  0  0  0  0  0  0
  120.5972  102.7530  106.9610 H   0  0  0  0  0  0  0  0  0  0  0  0
  120.9414  103.4572  105.3992 H   0  0  0  0  0  0  0  0  0  0  0  0
  122.8128  108.6807  106.7420 H   0  0  0  0  0  0  0  0  0  0  0  0
  122.1381  108.2201  108.3171 H   0  0  0  0  0  0  0  0  0  0  0  0
  117.1718  105.8711  105.9142 H   0  0  0  0  0  0  0  0  0  0  0  0
  117.2015  104.7994  104.4947 H   0  0  0  0  0  0  0  0  0  0  0  0
  118.5352  103.5041  106.2656 H   0  0  0  0  0  0  0  0  0  0  0  0
  119.0023  104.7876  107.3811 H   0  0  0  0  0  0  0  0  0  0  0  0
  121.7051  104.3733  108.1617 H   0  0  0  0  0  0  0  0  0  0  0  0
  122.7065  104.1252  106.7421 H   0  0  0  0  0  0  0  0  0  0  0  0
  121.7381  105.8046  104.7540 H   0  0  0  0  0  0  0  0  0  0  0  0
  121.7154  107.4533  105.3528 H   0  0  0  0  0  0  0  0  0  0  0  0
  123.7444  106.4378  106.4007 H   0  0  0  0  0  0  0  0  0  0  0  0
  119.4291  107.0445  106.4028 H   0  0  0  0  0  0  0  0  0  0  0  0
  124.2505  110.5544  111.6682 H   0  0  0  0  0  0  0  0  0  0  0  0
  123.0143  111.3413  110.6467 H   0  0  0  0  0  0  0  0  0  0  0  0
  122.5278  110.2613  111.9664 H   0  0  0  0  0  0  0  0  0  0  0  0
  122.3245  109.1294  109.7748 H   0  0  0  0  0  0  0  0  0  0  0  0
  123.5465  108.3361  110.7958 H   0  0  0  0  0  0  0  0  0  0  0  0
  126.7530  108.6399  108.8439 H   0  0  0  0  0  0  0  0  0  0  0  0
  127.4588  108.9679  107.2811 H   0  0  0  0  0  0  0  0  0  0  0  0
  124.0686  110.2736  108.6720 H   0  0  0  0  0  0  0  0  0  0  0  0
  1 14  1  0  0  0  0
  1 19  1  0  0  0  0
  1 21  2  0  0  0  0
  2  3  1  0  0  0  0
  2  8  1  0  0  0  0
  3 13  1  0  0  0  0
  4  5  1  0  0  0  0
  4 12  1  0  0  0  0
  5 14  1  0  0  0  0
  6  9  1  0  0  0  0
  6 10  1  0  0  0  0
  7 12  1  0  0  0  0
  7 14  1  0  0  0  0
  8 17  1  0  0  0  0
  9 17  1  0  0  0  0
 10 18  1  0  0  0  0
 11 13  1  0  0  0  0
 11 18  1  0  0  0  0
 12 18  1  0  0  0  0
 13 17  1  0  0  0  0
 14 20  1  0  0  0  0
 15 16  1  0  0  0  0
 16 20  1  0  0  0  0
  2 22  1  0  0  0  0
  2 23  1  0  0  0  0
  3 24  1  0  0  0  0
  3 25  1  0  0  0  0
  4 26  1  0  0  0  0
  4 27  1  0  0  0  0
  5 28  1  0  0  0  0
  5 29  1  0  0  0  0
  6 30  1  0  0  0  0
  6 31  1  0  0  0  0
  7 32  1  0  0  0  0
  7 33  1  0  0  0  0
  8 34  1  0  0  0  0
  8 35  1  0  0  0  0
  9 36  1  0  0  0  0
  9 37  1  0  0  0  0
 10 38  1  0  0  0  0
 10 39  1  0  0  0  0
 11 40  1  0  0  0  0
 11 41  1  0  0  0  0
 12 42  1  0  0  0  0
 13 43  1  0  0  0  0
 15 44  1  0  0  0  0
 15 45  1  0  0  0  0
 15 46  1  0  0  0  0
 16 47  1  0  0  0  0
 16 48  1  0  0  0  0
 19 49  1  0  0  0  0
 19 50  1  0  0  0  0
 20 51  1  0  0  0  0
M  END
> <FRED Chemgauss4 score>
-9.784890

$$$$
C70295850	P108368573
  -OEChem-05122015313D

 41 43  0     1  0  0  0  0  0999 V2000
  121.5382  106.9952  107.9287 C   0  0  0  0  0  0  0  0  0  0  0  0
  120.4758  106.3271  107.2541 C   0  0  0  0  0  0  0  0  0  0  0  0
  122.5819  106.1447  108.2201 C   0  0  0  0  0  0  0  0  0  0  0  0
  120.7482  104.9913  107.0554 C   0  0  0  0  0  0  0  0  0  0  0  0
  124.7769  108.5738  107.7513 C   0  0  0  0  0  0  0  0  0  0  0  0
  124.9101  107.7848  106.4683 C   0  0  0  0  0  0  0  0  0  0  0  0
  126.0215  106.7532  106.5438 C   0  0  0  0  0  0  0  0  0  0  0  0
  122.9245  109.4839  110.3961 C   0  0  0  0  0  0  0  0  0  0  0  0
  123.1726  108.2272  111.1790 C   0  0  0  0  0  0  0  0  0  0  0  0
  125.5719  105.4440  107.1831 C   0  0  0  0  0  0  0  0  0  0  0  0
  123.9018  106.4630  108.9319 C   0  0  1  0  0  0  0  0  0  0  0  0
  124.1473  108.6537  110.1156 C   0  0  0  0  0  0  0  0  0  0  0  0
  125.1144  105.5252  108.6470 C   0  0  2  0  0  0  0  0  0  0  0  0
  118.7337  104.5742  105.6220 C   0  0  0  0  0  0  0  0  0  0  0  0
  119.9065  103.9682  106.3980 C   0  0  0  0  0  0  0  0  0  0  0  0
  124.2845  107.9044  108.8703 N   0  0  0  0  0  0  0  0  0  0  0  0
  126.2574  105.8707  109.5064 N   0  0  0  0  0  0  0  0  0  0  0  0
  125.1017  109.7655  107.7588 O   0  0  0  0  0  0  0  0  0  0  0  0
  122.2792  104.5478  107.6811 S   0  0  0  0  0  0  0  0  0  0  0  0
  121.5335  108.0473  108.1842 H   0  0  0  0  0  0  0  0  0  0  0  0
  119.5604  106.8064  106.9312 H   0  0  0  0  0  0  0  0  0  0  0  0
  123.9524  107.3554  106.1652 H   0  0  0  0  0  0  0  0  0  0  0  0
  125.1692  108.5080  105.6834 H   0  0  0  0  0  0  0  0  0  0  0  0
  126.3560  106.5282  105.5234 H   0  0  0  0  0  0  0  0  0  0  0  0
  126.8912  107.1570  107.0756 H   0  0  0  0  0  0  0  0  0  0  0  0
  122.1178  109.4759  109.6732 H   0  0  0  0  0  0  0  0  0  0  0  0
  123.0632  110.4308  110.9032 H   0  0  0  0  0  0  0  0  0  0  0  0
  123.4786  108.3288  112.2129 H   0  0  0  0  0  0  0  0  0  0  0  0
  122.5315  107.3770  110.9809 H   0  0  0  0  0  0  0  0  0  0  0  0
  124.7644  105.0122  106.5777 H   0  0  0  0  0  0  0  0  0  0  0  0
  126.4009  104.7268  107.1097 H   0  0  0  0  0  0  0  0  0  0  0  0
  123.6508  106.2751  110.0246 H   0  0  0  0  0  0  0  0  0  0  0  0
  125.0959  109.0518  110.4590 H   0  0  0  0  0  0  0  0  0  0  0  0
  124.8059  104.5097  108.9237 H   0  0  0  0  0  0  0  0  0  0  0  0
  118.1142  105.1965  106.2767 H   0  0  0  0  0  0  0  0  0  0  0  0
  118.0970  103.7933  105.1945 H   0  0  0  0  0  0  0  0  0  0  0  0
  119.0942  105.2046  104.8020 H   0  0  0  0  0  0  0  0  0  0  0  0
  120.5047  103.3495  105.7028 H   0  0  0  0  0  0  0  0  0  0  0  0
  119.5043  103.2506  107.1377 H   0  0  0  0  0  0  0  0  0  0  0  0
  127.1581  105.5584  109.2256 H   0  0  0  0  0  0  0  0  0  0  0  0
  126.0627  106.2160  110.4179 H   0  0  0  0  0  0  0  0  0  0  0  0
  1  2  1  0  0  0  0
  1  3  2  0  0  0  0
  2  4  2  0  0  0  0
  3 11  1  0  0  0  0
  3 19  1  0  0  0  0
  4 15  1  0  0  0  0
  4 19  1  0  0  0  0
  5  6  1  0  0  0  0
  5 16  1  0  0  0  0
  5 18  2  0  0  0  0
  6  7  1  0  0  0  0
  7 10  1  0  0  0  0
  8  9  1  0  0  0  0
  8 12  1  0  0  0  0
  9 12  1  0  0  0  0
 10 13  1  0  0  0  0
 11 13  1  0  0  0  0
 11 16  1  0  0  0  0
 12 16  1  0  0  0  0
 13 17  1  0  0  0  0
 14 15  1  0  0  0  0
  1 20  1  0  0  0  0
  2 21  1  0  0  0  0
  6 22  1  0  0  0  0
  6 23  1  0  0  0  0
  7 24  1  0  0  0  0
  7 25  1  0  0  0  0
  8 26  1  0  0  0  0
  8 27  1  0  0  0  0
  9 28  1  0  0  0  0
  9 29  1  0  0  0  0
 10 30  1  0  0  0  0
 10 31  1  0  0  0  0
 11 32  1  0  0  0  0
 12 33  1  0  0  0  0
 13 34  1  0  0  0  0
 14 35  1  0  0  0  0
 14 36  1  0  0  0  0
 14 37  1  0  0  0  0
 15 38  1  0  0  0  0
 15 39  1  0  0  0  0
 17 40  1  0  0  0  0
 17 41  1  0  0  0  0
M  END
> <FRED Chemgauss4 score>
-9.782865

$$$$
C87826162	P137377939
  -OEChem-05122015313D

 43 44  0     1  0  0  0  0  0999 V2000
  121.0066  104.6321  106.8227 C   0  0  0  0  0  0  0  0  0  0  0  0
  119.8778  104.3330  106.0599 C   0  0  0  0  0  0  0  0  0  0  0  0
  119.9691  106.6887  107.5514 C   0  0  0  0  0  0  0  0  0  0  0  0
  121.0522  105.8100  107.5686 C   0  0  0  0  0  0  0  0  0  0  0  0
  118.8404  106.3897  106.7885 C   0  0  0  0  0  0  0  0  0  0  0  0
  118.7947  105.2118  106.0427 C   0  0  0  0  0  0  0  0  0  0  0  0
  124.7599  108.8917  107.8994 C   0  0  0  0  0  0  0  0  0  0  0  0
  124.8414  107.3791  105.9677 C   0  0  0  0  0  0  0  0  0  0  0  0
  123.5476  106.7168  106.4409 C   0  0  0  0  0  0  0  0  0  0  0  0
  124.1945  107.6542  108.6107 C   0  0  1  0  0  0  0  0  0  0  0  0
  122.6685  109.0295  110.0313 C   0  0  0  0  0  0  0  0  0  0  0  0
  116.6697  104.1505  105.9247 C   0  0  0  0  0  0  0  0  0  0  0  0
  122.2669  106.1306  108.3907 C   0  0  0  0  0  0  0  0  0  0  0  0
  117.6894  107.3410  106.7827 C   0  0  0  0  0  0  0  0  0  0  0  0
  123.7760  108.0316  110.0355 C   0  0  0  0  0  0  0  0  0  0  0  0
  125.0201  108.6827  106.5568 N   0  0  0  0  0  0  0  0  0  0  0  0
  123.0902  107.1650  107.7691 N   0  0  2  0  0  0  0  0  0  0  0  0
  117.6193  108.1057  105.5643 N   0  0  0  0  0  0  0  0  0  0  0  0
  124.9862  109.9595  108.4642 O   0  0  0  0  0  0  0  0  0  0  0  0
  117.7008  104.9046  105.2907 O   0  0  0  0  0  0  0  0  0  0  0  0
  121.8457  103.9415  106.8310 H   0  0  0  0  0  0  0  0  0  0  0  0
  119.8486  103.4126  105.4828 H   0  0  0  0  0  0  0  0  0  0  0  0
  120.0056  107.6066  108.1336 H   0  0  0  0  0  0  0  0  0  0  0  0
  125.7048  106.7663  106.2287 H   0  0  0  0  0  0  0  0  0  0  0  0
  124.8271  107.5146  104.8841 H   0  0  0  0  0  0  0  0  0  0  0  0
  122.7667  106.9228  105.6665 H   0  0  0  0  0  0  0  0  0  0  0  0
  123.6657  105.6019  106.4254 H   0  0  0  0  0  0  0  0  0  0  0  0
  124.9998  106.9287  108.6395 H   0  0  0  0  0  0  0  0  0  0  0  0
  122.9961  109.9330  109.5037 H   0  0  0  0  0  0  0  0  0  0  0  0
  122.3916  109.3139  111.0520 H   0  0  0  0  0  0  0  0  0  0  0  0
  121.7867  108.6355  109.5150 H   0  0  0  0  0  0  0  0  0  0  0  0
  115.8573  103.9745  105.2155 H   0  0  0  0  0  0  0  0  0  0  0  0
  116.2970  104.6995  106.7932 H   0  0  0  0  0  0  0  0  0  0  0  0
  117.0798  103.1917  106.2508 H   0  0  0  0  0  0  0  0  0  0  0  0
  121.9771  106.4834  109.3865 H   0  0  0  0  0  0  0  0  0  0  0  0
  122.8930  105.2430  108.5296 H   0  0  0  0  0  0  0  0  0  0  0  0
  116.7360  106.8071  106.8941 H   0  0  0  0  0  0  0  0  0  0  0  0
  117.7542  108.0541  107.6152 H   0  0  0  0  0  0  0  0  0  0  0  0
  123.4606  107.1278  110.5583 H   0  0  0  0  0  0  0  0  0  0  0  0
  124.6422  108.4395  110.5579 H   0  0  0  0  0  0  0  0  0  0  0  0
  125.3323  109.4378  105.9969 H   0  0  0  0  0  0  0  0  0  0  0  0
  117.1729  109.0078  105.5779 H   0  0  0  0  0  0  0  0  0  0  0  0
  117.8280  107.6528  104.6899 H   0  0  0  0  0  0  0  0  0  0  0  0
  1  2  2  0  0  0  0
  1  4  1  0  0  0  0
  2  6  1  0  0  0  0
  3  4  2  0  0  0  0
  3  5  1  0  0  0  0
  4 13  1  0  0  0  0
  5  6  2  0  0  0  0
  5 14  1  0  0  0  0
  6 20  1  0  0  0  0
  7 10  1  0  0  0  0
  7 16  1  0  0  0  0
  7 19  2  0  0  0  0
  8  9  1  0  0  0  0
  8 16  1  0  0  0  0
  9 17  1  0  0  0  0
 10 15  1  0  0  0  0
 10 17  1  0  0  0  0
 11 15  1  0  0  0  0
 12 20  1  0  0  0  0
 13 17  1  0  0  0  0
 14 18  1  0  0  0  0
  1 21  1  0  0  0  0
  2 22  1  0  0  0  0
  3 23  1  0  0  0  0
  8 24  1  0  0  0  0
  8 25  1  0  0  0  0
  9 26  1  0  0  0  0
  9 27  1  0  0  0  0
 10 28  1  0  0  0  0
 11 29  1  0  0  0  0
 11 30  1  0  0  0  0
 11 31  1  0  0  0  0
 12 32  1  0  0  0  0
 12 33  1  0  0  0  0
 12 34  1  0  0  0  0
 13 35  1  0  0  0  0
 13 36  1  0  0  0  0
 14 37  1  0  0  0  0
 14 38  1  0  0  0  0
 15 39  1  0  0  0  0
 15 40  1  0  0  0  0
 16 41  1  0  0  0  0
 18 42  1  0  0  0  0
 18 43  1  0  0  0  0
M  END
> <FRED Chemgauss4 score>
-9.782699

$$$$
C60280354	P92047733
  -OEChem-05122015313D

 35 37  0     1  0  0  0  0  0999 V2000
  118.0759  107.7937  106.4409 C   0  0  0  0  0  0  0  0  0  0  0  0
  118.0995  106.7743  105.4892 C   0  0  0  0  0  0  0  0  0  0  0  0
  119.2657  108.2340  107.0210 C   0  0  0  0  0  0  0  0  0  0  0  0
  120.5024  106.6352  105.6976 C   0  0  0  0  0  0  0  0  0  0  0  0
  119.3127  106.1950  105.1175 C   0  0  0  0  0  0  0  0  0  0  0  0
  120.4789  107.6547  106.6493 C   0  0  0  0  0  0  0  0  0  0  0  0
  123.7612  106.4740  106.2176 C   0  0  0  0  0  0  0  0  0  0  0  0
  122.2069  104.8797  106.1822 C   0  0  0  0  0  0  0  0  0  0  0  0
  125.3203  107.3259  108.0686 C   0  0  0  0  0  0  0  0  0  0  0  0
  124.9888  108.5014  107.1987 C   0  0  0  0  0  0  0  0  0  0  0  0
  121.8008  106.0155  105.2997 C   0  0  2  0  0  0  0  0  0  0  0  0
  125.0238  107.1191  106.6098 C   0  0  0  0  0  0  0  0  0  0  0  0
  125.0733  103.4632  106.9029 C   0  0  0  0  0  0  0  0  0  0  0  0
  124.1664  104.3908  107.6376 C   0  0  0  0  0  0  0  0  0  0  0  0
  122.9194  107.0260  105.3963 N   0  0  0  0  0  0  0  0  0  0  0  0
  123.3792  105.1958  106.7152 N   0  0  0  0  0  0  0  0  0  0  0  0
  121.4481  103.8046  106.3060 N   0  3  0  0  0  0  0  0  0  0  0  0
  119.3251  105.2159  104.2024 F   0  0  0  0  0  0  0  0  0  0  0  0
  121.6168  108.0841  107.2124 F   0  0  0  0  0  0  0  0  0  0  0  0
  117.1312  108.2441  106.7309 H   0  0  0  0  0  0  0  0  0  0  0  0
  117.1733  106.4315  105.0375 H   0  0  0  0  0  0  0  0  0  0  0  0
  119.2473  109.0271  107.7626 H   0  0  0  0  0  0  0  0  0  0  0  0
  126.3428  107.2269  108.4123 H   0  0  0  0  0  0  0  0  0  0  0  0
  124.5743  107.0008  108.7835 H   0  0  0  0  0  0  0  0  0  0  0  0
  124.0196  108.9675  107.3283 H   0  0  0  0  0  0  0  0  0  0  0  0
  125.7887  109.1913  106.9590 H   0  0  0  0  0  0  0  0  0  0  0  0
  121.7334  105.6770  104.2600 H   0  0  0  0  0  0  0  0  0  0  0  0
  125.8644  106.8820  105.9691 H   0  0  0  0  0  0  0  0  0  0  0  0
  124.5005  102.7761  106.2705 H   0  0  0  0  0  0  0  0  0  0  0  0
  125.7815  104.0211  106.2807 H   0  0  0  0  0  0  0  0  0  0  0  0
  125.6496  102.8636  107.6176 H   0  0  0  0  0  0  0  0  0  0  0  0
  124.7448  105.0739  108.2670 H   0  0  0  0  0  0  0  0  0  0  0  0
  123.4703  103.8326  108.2704 H   0  0  0  0  0  0  0  0  0  0  0  0
  120.5753  103.7370  105.8004 H   0  0  0  0  0  0  0  0  0  0  0  0
  121.7367  103.0447  106.9071 H   0  0  0  0  0  0  0  0  0  0  0  0
  1  2  1  0  0  0  0
  1  3  2  0  0  0  0
  2  5  2  0  0  0  0
  3  6  1  0  0  0  0
  4  5  1  0  0  0  0
  4  6  2  0  0  0  0
  4 11  1  0  0  0  0
  5 18  1  0  0  0  0
  6 19  1  0  0  0  0
  7 12  1  0  0  0  0
  7 15  2  0  0  0  0
  7 16  1  0  0  0  0
  8 11  1  0  0  0  0
  8 16  1  0  0  0  0
  8 17  2  0  0  0  0
  9 10  1  0  0  0  0
  9 12  1  0  0  0  0
 10 12  1  0  0  0  0
 11 15  1  0  0  0  0
 13 14  1  0  0  0  0
 14 16  1  0  0  0  0
  1 20  1  0  0  0  0
  2 21  1  0  0  0  0
  3 22  1  0  0  0  0
  9 23  1  0  0  0  0
  9 24  1  0  0  0  0
 10 25  1  0  0  0  0
 10 26  1  0  0  0  0
 11 27  1  0  0  0  0
 12 28  1  0  0  0  0
 13 29  1  0  0  0  0
 13 30  1  0  0  0  0
 13 31  1  0  0  0  0
 14 32  1  0  0  0  0
 14 33  1  0  0  0  0
 17 34  1  0  0  0  0
 17 35  1  0  0  0  0
M  CHG  1  17   1
M  END
> <FRED Chemgauss4 score>
-9.781071

$$$$
C70239492	P108269149
  -OEChem-05122015313D

 42 43  0     1  0  0  0  0  0999 V2000
  121.0890  110.3485  110.9821 C   0  0  0  0  0  0  0  0  0  0  0  0
  124.7475  104.0963  106.9674 C   0  0  0  0  0  0  0  0  0  0  0  0
  125.9012  103.9920  107.7443 C   0  0  0  0  0  0  0  0  0  0  0  0
  122.4096  109.9103  110.6752 C   0  0  0  0  0  0  0  0  0  0  0  0
  125.2590  105.9759  108.9644 C   0  0  0  0  0  0  0  0  0  0  0  0
  120.1586  109.8448  110.1000 C   0  0  0  0  0  0  0  0  0  0  0  0
  123.8495  105.1405  107.1889 C   0  0  0  0  0  0  0  0  0  0  0  0
  126.1570  104.9317  108.7428 C   0  0  0  0  0  0  0  0  0  0  0  0
  124.1052  106.0802  108.1875 C   0  0  0  0  0  0  0  0  0  0  0  0
  122.4381  109.0881  109.5701 C   0  0  0  0  0  0  0  0  0  0  0  0
  122.6547  105.2227  106.3584 C   0  0  0  0  0  0  0  0  0  0  0  0
  126.2877  109.7324  106.3907 C   0  0  0  0  0  0  0  0  0  0  0  0
  120.5657  104.0558  105.6192 C   0  0  0  0  0  0  0  0  0  0  0  0
  125.6975  108.8722  107.4975 C   0  0  0  0  0  0  0  0  0  0  0  0
  124.2619  109.2931  107.8279 C   0  0  0  0  0  0  0  0  0  0  0  0
  123.6342  108.4171  108.9243 C   0  0  2  0  0  0  0  0  0  0  0  0
  127.3233  104.8254  109.5286 N   0  0  0  0  0  0  0  0  0  0  0  0
  123.2268  107.1255  108.4219 N   0  0  0  0  0  0  0  0  0  0  0  0
  121.7784  104.1339  106.4016 N   0  0  0  0  0  0  0  0  0  0  0  0
  122.4573  106.2155  105.6383 O   0  0  0  0  0  0  0  0  0  0  0  0
  120.8774  108.8479  108.9077 S   0  0  0  0  0  0  0  0  0  0  0  0
  120.8336  110.9993  111.8081 H   0  0  0  0  0  0  0  0  0  0  0  0
  124.5600  103.3580  106.1918 H   0  0  0  0  0  0  0  0  0  0  0  0
  126.5947  103.1746  107.5634 H   0  0  0  0  0  0  0  0  0  0  0  0
  123.2909  110.1859  111.2405 H   0  0  0  0  0  0  0  0  0  0  0  0
  125.4600  106.7091  109.7428 H   0  0  0  0  0  0  0  0  0  0  0  0
  119.0912  110.0149  110.0985 H   0  0  0  0  0  0  0  0  0  0  0  0
  126.2801  110.7907  106.6703 H   0  0  0  0  0  0  0  0  0  0  0  0
  127.3204  109.4407  106.1752 H   0  0  0  0  0  0  0  0  0  0  0  0
  125.7043  109.6197  105.4716 H   0  0  0  0  0  0  0  0  0  0  0  0
  119.7168  104.4182  106.2048 H   0  0  0  0  0  0  0  0  0  0  0  0
  120.3729  103.0211  105.3231 H   0  0  0  0  0  0  0  0  0  0  0  0
  120.6577  104.6671  104.7174 H   0  0  0  0  0  0  0  0  0  0  0  0
  125.7219  107.8228  107.1827 H   0  0  0  0  0  0  0  0  0  0  0  0
  126.3256  108.9586  108.3919 H   0  0  0  0  0  0  0  0  0  0  0  0
  124.2668  110.3405  108.1574 H   0  0  0  0  0  0  0  0  0  0  0  0
  123.6580  109.2532  106.9120 H   0  0  0  0  0  0  0  0  0  0  0  0
  124.3957  108.2096  109.6865 H   0  0  0  0  0  0  0  0  0  0  0  0
  127.9345  104.0459  109.3916 H   0  0  0  0  0  0  0  0  0  0  0  0
  127.4717  105.4776  110.2719 H   0  0  0  0  0  0  0  0  0  0  0  0
  122.2424  106.9768  108.2318 H   0  0  0  0  0  0  0  0  0  0  0  0
  122.0208  103.3216  106.9595 H   0  0  0  0  0  0  0  0  0  0  0  0
  1  4  1  0  0  0  0
  1  6  2  0  0  0  0
  2  3  2  0  0  0  0
  2  7  1  0  0  0  0
  3  8  1  0  0  0  0
  4 10  2  0  0  0  0
  5  8  2  0  0  0  0
  5  9  1  0  0  0  0
  6 21  1  0  0  0  0
  7  9  2  0  0  0  0
  7 11  1  0  0  0  0
  8 17  1  0  0  0  0
  9 18  1  0  0  0  0
 10 16  1  0  0  0  0
 10 21  1  0  0  0  0
 11 19  1  0  0  0  0
 11 20  2  0  0  0  0
 12 14  1  0  0  0  0
 13 19  1  0  0  0  0
 14 15  1  0  0  0  0
 15 16  1  0  0  0  0
 16 18  1  0  0  0  0
  1 22  1  0  0  0  0
  2 23  1  0  0  0  0
  3 24  1  0  0  0  0
  4 25  1  0  0  0  0
  5 26  1  0  0  0  0
  6 27  1  0  0  0  0
 12 28  1  0  0  0  0
 12 29  1  0  0  0  0
 12 30  1  0  0  0  0
 13 31  1  0  0  0  0
 13 32  1  0  0  0  0
 13 33  1  0  0  0  0
 14 34  1  0  0  0  0
 14 35  1  0  0  0  0
 15 36  1  0  0  0  0
 15 37  1  0  0  0  0
 16 38  1  0  0  0  0
 17 39  1  0  0  0  0
 17 40  1  0  0  0  0
 18 41  1  0  0  0  0
 19 42  1  0  0  0  0
M  END
> <FRED Chemgauss4 score>
-9.780723

$$$$
C36872464	P54806293
  -OEChem-05122015313D

 29 30  0     1  0  0  0  0  0999 V2000
  125.9325  107.0763  106.6842 C   0  0  0  0  0  0  0  0  0  0  0  0
  125.5985  107.5911  107.9319 C   0  0  0  0  0  0  0  0  0  0  0  0
  125.1655  107.4625  105.5968 C   0  0  0  0  0  0  0  0  0  0  0  0
  123.8191  108.7881  106.9037 C   0  0  0  0  0  0  0  0  0  0  0  0
  123.7764  108.2664  110.4151 C   0  0  0  0  0  0  0  0  0  0  0  0
  124.5229  108.4639  108.0524 C   0  0  0  0  0  0  0  0  0  0  0  0
  124.1546  109.0093  109.3217 C   0  0  0  0  0  0  0  0  0  0  0  0
  123.7475  110.4250  110.8581 C   0  0  0  0  0  0  0  0  0  0  0  0
  122.8904  112.6211  113.9511 C   0  0  0  0  0  0  0  0  0  0  0  0
  123.0950  111.3664  113.1108 C   0  0  0  0  0  0  0  0  0  0  0  0
  123.5538  111.6849  111.6775 C   0  0  2  0  0  0  0  0  0  0  0  0
  124.1136  108.3081  105.6747 N   0  0  0  0  0  0  0  0  0  0  0  0
  124.1348  110.3522  109.6040 N   0  0  0  0  0  0  0  0  0  0  0  0
  123.5191  109.1871  111.3916 N   0  0  0  0  0  0  0  0  0  0  0  0
  122.6337  112.5857  111.0198 N   0  0  0  0  0  0  0  0  0  0  0  0
  126.7666  106.3939  106.5668 H   0  0  0  0  0  0  0  0  0  0  0  0
  126.1855  107.3030  108.8004 H   0  0  0  0  0  0  0  0  0  0  0  0
  125.3853  107.0884  104.6024 H   0  0  0  0  0  0  0  0  0  0  0  0
  122.9688  109.4637  106.9300 H   0  0  0  0  0  0  0  0  0  0  0  0
  123.6690  107.2046  110.5886 H   0  0  0  0  0  0  0  0  0  0  0  0
  122.1682  113.2953  113.4798 H   0  0  0  0  0  0  0  0  0  0  0  0
  122.5065  112.3525  114.9405 H   0  0  0  0  0  0  0  0  0  0  0  0
  123.8295  113.1650  114.0922 H   0  0  0  0  0  0  0  0  0  0  0  0
  123.8233  110.7208  113.6174 H   0  0  0  0  0  0  0  0  0  0  0  0
  122.1476  110.8132  113.0811 H   0  0  0  0  0  0  0  0  0  0  0  0
  124.5062  112.2270  111.7296 H   0  0  0  0  0  0  0  0  0  0  0  0
  123.2156  108.9867  112.3354 H   0  0  0  0  0  0  0  0  0  0  0  0
  122.6311  112.6268  110.0168 H   0  0  0  0  0  0  0  0  0  0  0  0
  122.1701  113.2878  111.5674 H   0  0  0  0  0  0  0  0  0  0  0  0
  1  2  2  0  0  0  0
  1  3  1  0  0  0  0
  2  6  1  0  0  0  0
  3 12  2  0  0  0  0
  4  6  2  0  0  0  0
  4 12  1  0  0  0  0
  5  7  2  0  0  0  0
  5 14  1  0  0  0  0
  6  7  1  0  0  0  0
  7 13  1  0  0  0  0
  8 11  1  0  0  0  0
  8 13  2  0  0  0  0
  8 14  1  0  0  0  0
  9 10  1  0  0  0  0
 10 11  1  0  0  0  0
 11 15  1  0  0  0  0
  1 16  1  0  0  0  0
  2 17  1  0  0  0  0
  3 18  1  0  0  0  0
  4 19  1  0  0  0  0
  5 20  1  0  0  0  0
  9 21  1  0  0  0  0
  9 22  1  0  0  0  0
  9 23  1  0  0  0  0
 10 24  1  0  0  0  0
 10 25  1  0  0  0  0
 11 26  1  0  0  0  0
 14 27  1  0  0  0  0
 15 28  1  0  0  0  0
 15 29  1  0  0  0  0
M  END
> <FRED Chemgauss4 score>
-9.780040

$$$$
C94233960	P147687780
  -OEChem-05122015313D

 43 43  0     1  0  0  0  0  0999 V2000
  124.7276  107.5637  106.3210 C   0  0  0  0  0  0  0  0  0  0  0  0
  119.3894  104.4729  105.3072 C   0  0  0  0  0  0  0  0  0  0  0  0
  118.5571  106.7089  105.6884 C   0  0  0  0  0  0  0  0  0  0  0  0
  120.3354  105.0117  104.2268 C   0  0  0  0  0  0  0  0  0  0  0  0
  119.5044  107.2435  104.6071 C   0  0  0  0  0  0  0  0  0  0  0  0
  123.9490  108.3604  109.2051 C   0  0  0  0  0  0  0  0  0  0  0  0
  126.7587  106.4309  107.2872 C   0  0  0  0  0  0  0  0  0  0  0  0
  117.2929  104.8028  106.4524 C   0  0  0  0  0  0  0  0  0  0  0  0
  124.9783  107.2899  108.8538 C   0  0  0  0  0  0  0  0  0  0  0  0
  121.6793  106.6015  105.4811 C   0  0  0  0  0  0  0  0  0  0  0  0
  123.0843  106.2149  105.0506 C   0  0  0  0  0  0  0  0  0  0  0  0
  125.7061  107.5249  107.5120 C   0  0  2  0  0  0  0  0  0  0  0  0
  118.1915  105.3133  105.4190 N   0  0  0  0  0  0  0  0  0  0  0  0
  120.7043  106.4214  104.4074 N   0  0  0  0  0  0  0  0  0  0  0  0
  126.3856  108.8082  107.5324 N   0  0  0  0  0  0  0  0  0  0  0  0
  124.0408  106.3748  106.1199 N   0  0  0  0  0  0  0  0  0  0  0  0
  124.5801  108.5626  105.6161 O   0  0  0  0  0  0  0  0  0  0  0  0
  119.1195  103.4338  105.0753 H   0  0  0  0  0  0  0  0  0  0  0  0
  119.9275  104.4648  106.2627 H   0  0  0  0  0  0  0  0  0  0  0  0
  119.0665  106.7785  106.6570 H   0  0  0  0  0  0  0  0  0  0  0  0
  117.6634  107.3452  105.7428 H   0  0  0  0  0  0  0  0  0  0  0  0
  121.2445  104.3771  104.1883 H   0  0  0  0  0  0  0  0  0  0  0  0
  119.8385  104.8870  103.2455 H   0  0  0  0  0  0  0  0  0  0  0  0
  118.9391  107.3014  103.6571 H   0  0  0  0  0  0  0  0  0  0  0  0
  119.7885  108.2871  104.8542 H   0  0  0  0  0  0  0  0  0  0  0  0
  123.2118  108.4459  108.4002 H   0  0  0  0  0  0  0  0  0  0  0  0
  124.4171  109.3412  109.3325 H   0  0  0  0  0  0  0  0  0  0  0  0
  123.4089  108.1123  110.1237 H   0  0  0  0  0  0  0  0  0  0  0  0
  127.4742  106.3719  108.1143 H   0  0  0  0  0  0  0  0  0  0  0  0
  126.2882  105.4462  107.1839 H   0  0  0  0  0  0  0  0  0  0  0  0
  127.3312  106.6180  106.3707 H   0  0  0  0  0  0  0  0  0  0  0  0
  116.4056  105.4370  106.5254 H   0  0  0  0  0  0  0  0  0  0  0  0
  117.7987  104.7922  107.4216 H   0  0  0  0  0  0  0  0  0  0  0  0
  116.9783  103.7841  106.2101 H   0  0  0  0  0  0  0  0  0  0  0  0
  125.7014  107.2271  109.6759 H   0  0  0  0  0  0  0  0  0  0  0  0
  124.4622  106.3212  108.8230 H   0  0  0  0  0  0  0  0  0  0  0  0
  121.6315  107.6494  105.7939 H   0  0  0  0  0  0  0  0  0  0  0  0
  121.3561  105.9733  106.3170 H   0  0  0  0  0  0  0  0  0  0  0  0
  123.1122  105.1633  104.7490 H   0  0  0  0  0  0  0  0  0  0  0  0
  123.4259  106.8264  104.2092 H   0  0  0  0  0  0  0  0  0  0  0  0
  125.9326  109.5810  107.9786 H   0  0  0  0  0  0  0  0  0  0  0  0
  127.1778  108.9381  106.9347 H   0  0  0  0  0  0  0  0  0  0  0  0
  124.2060  105.5812  106.7304 H   0  0  0  0  0  0  0  0  0  0  0  0
  1 12  1  0  0  0  0
  1 16  1  0  0  0  0
  1 17  2  0  0  0  0
  2  4  1  0  0  0  0
  2 13  1  0  0  0  0
  3  5  1  0  0  0  0
  3 13  1  0  0  0  0
  4 14  1  0  0  0  0
  5 14  1  0  0  0  0
  6  9  1  0  0  0  0
  7 12  1  0  0  0  0
  8 13  1  0  0  0  0
  9 12  1  0  0  0  0
 10 11  1  0  0  0  0
 10 14  1  0  0  0  0
 11 16  1  0  0  0  0
 12 15  1  0  0  0  0
  2 18  1  0  0  0  0
  2 19  1  0  0  0  0
  3 20  1  0  0  0  0
  3 21  1  0  0  0  0
  4 22  1  0  0  0  0
  4 23  1  0  0  0  0
  5 24  1  0  0  0  0
  5 25  1  0  0  0  0
  6 26  1  0  0  0  0
  6 27  1  0  0  0  0
  6 28  1  0  0  0  0
  7 29  1  0  0  0  0
  7 30  1  0  0  0  0
  7 31  1  0  0  0  0
  8 32  1  0  0  0  0
  8 33  1  0  0  0  0
  8 34  1  0  0  0  0
  9 35  1  0  0  0  0
  9 36  1  0  0  0  0
 10 37  1  0  0  0  0
 10 38  1  0  0  0  0
 11 39  1  0  0  0  0
 11 40  1  0  0  0  0
 15 41  1  0  0  0  0
 15 42  1  0  0  0  0
 16 43  1  0  0  0  0
M  END
> <FRED Chemgauss4 score>
-9.779780

$$$$
C45088381	P67962157
  -OEChem-05122015313D

 41 42  0     1  0  0  0  0  0999 V2000
  121.2993  106.5848  106.8827 C   0  0  0  0  0  0  0  0  0  0  0  0
  124.5199  107.9029  106.8214 C   0  0  0  0  0  0  0  0  0  0  0  0
  117.7275  107.9198  103.6872 C   0  0  0  0  0  0  0  0  0  0  0  0
  116.5881  108.1641  104.6781 C   0  0  0  0  0  0  0  0  0  0  0  0
  119.2547  103.5663  106.5608 C   0  0  0  0  0  0  0  0  0  0  0  0
  118.6641  106.9185  104.3564 C   0  0  0  0  0  0  0  0  0  0  0  0
  116.8844  107.2840  105.8879 C   0  0  0  0  0  0  0  0  0  0  0  0
  118.2064  104.6256  106.2569 C   0  0  0  0  0  0  0  0  0  0  0  0
  120.5517  104.2666  106.1910 C   0  0  0  0  0  0  0  0  0  0  0  0
  118.3982  107.1008  105.8475 C   0  0  0  0  0  0  0  0  0  0  0  0
  118.8829  105.9334  106.6892 C   0  0  2  0  0  0  0  0  0  0  0  0
  122.6437  106.3708  106.2329 C   0  0  0  0  0  0  0  0  0  0  0  0
  125.4418  108.2221  107.9705 C   0  0  0  0  0  0  0  0  0  0  0  0
  120.3184  105.6621  106.5520 N   0  0  0  0  0  0  0  0  0  0  0  0
  126.7260  108.7141  107.4506 N   0  0  0  0  0  0  0  0  0  0  0  0
  123.6319  106.8744  107.1377 N   0  0  0  0  0  0  0  0  0  0  0  0
  121.1325  107.5300  107.6553 O   0  0  0  0  0  0  0  0  0  0  0  0
  124.5566  108.4891  105.7427 O   0  0  0  0  0  0  0  0  0  0  0  0
  117.3589  107.5402  102.7287 H   0  0  0  0  0  0  0  0  0  0  0  0
  118.2533  108.8606  103.4870 H   0  0  0  0  0  0  0  0  0  0  0  0
  116.5721  109.2206  104.9698 H   0  0  0  0  0  0  0  0  0  0  0  0
  115.6115  107.9293  104.2432 H   0  0  0  0  0  0  0  0  0  0  0  0
  119.2391  103.2349  107.6017 H   0  0  0  0  0  0  0  0  0  0  0  0
  119.1010  102.6909  105.9204 H   0  0  0  0  0  0  0  0  0  0  0  0
  118.4075  105.9013  104.0353 H   0  0  0  0  0  0  0  0  0  0  0  0
  119.7114  107.0985  104.0946 H   0  0  0  0  0  0  0  0  0  0  0  0
  116.5441  107.7423  106.8215 H   0  0  0  0  0  0  0  0  0  0  0  0
  116.3709  106.3206  105.7794 H   0  0  0  0  0  0  0  0  0  0  0  0
  117.8886  104.6243  105.2097 H   0  0  0  0  0  0  0  0  0  0  0  0
  117.3199  104.4484  106.8793 H   0  0  0  0  0  0  0  0  0  0  0  0
  121.3879  103.8993  106.7910 H   0  0  0  0  0  0  0  0  0  0  0  0
  120.7942  104.1719  105.1320 H   0  0  0  0  0  0  0  0  0  0  0  0
  118.8847  108.0232  106.1926 H   0  0  0  0  0  0  0  0  0  0  0  0
  118.6529  106.1448  107.7501 H   0  0  0  0  0  0  0  0  0  0  0  0
  122.6562  106.9150  105.2932 H   0  0  0  0  0  0  0  0  0  0  0  0
  122.7718  105.3062  106.0618 H   0  0  0  0  0  0  0  0  0  0  0  0
  124.9901  108.9925  108.6023 H   0  0  0  0  0  0  0  0  0  0  0  0
  125.6170  107.3217  108.5665 H   0  0  0  0  0  0  0  0  0  0  0  0
  127.5227  108.6249  108.0354 H   0  0  0  0  0  0  0  0  0  0  0  0
  126.7040  109.2881  106.6412 H   0  0  0  0  0  0  0  0  0  0  0  0
  123.6905  106.4564  108.0688 H   0  0  0  0  0  0  0  0  0  0  0  0
  1 12  1  0  0  0  0
  1 14  1  0  0  0  0
  1 17  2  0  0  0  0
  2 13  1  0  0  0  0
  2 16  1  0  0  0  0
  2 18  2  0  0  0  0
  3  4  1  0  0  0  0
  3  6  1  0  0  0  0
  4  7  1  0  0  0  0
  5  8  1  0  0  0  0
  5  9  1  0  0  0  0
  6 10  1  0  0  0  0
  7 10  1  0  0  0  0
  8 11  1  0  0  0  0
  9 14  1  0  0  0  0
 10 11  1  0  0  0  0
 11 14  1  0  0  0  0
 12 16  1  0  0  0  0
 13 15  1  0  0  0  0
  3 19  1  0  0  0  0
  3 20  1  0  0  0  0
  4 21  1  0  0  0  0
  4 22  1  0  0  0  0
  5 23  1  0  0  0  0
  5 24  1  0  0  0  0
  6 25  1  0  0  0  0
  6 26  1  0  0  0  0
  7 27  1  0  0  0  0
  7 28  1  0  0  0  0
  8 29  1  0  0  0  0
  8 30  1  0  0  0  0
  9 31  1  0  0  0  0
  9 32  1  0  0  0  0
 10 33  1  0  0  0  0
 11 34  1  0  0  0  0
 12 35  1  0  0  0  0
 12 36  1  0  0  0  0
 13 37  1  0  0  0  0
 13 38  1  0  0  0  0
 15 39  1  0  0  0  0
 15 40  1  0  0  0  0
 16 41  1  0  0  0  0
M  END
> <FRED Chemgauss4 score>
-9.779650

$$$$
C41068534	P62332866
  -OEChem-05122015313D

 33 34  0     1  0  0  0  0  0999 V2000
  125.9662  106.7250  108.1786 C   0  0  0  0  0  0  0  0  0  0  0  0
  125.7841  104.5550  108.9910 C   0  0  0  0  0  0  0  0  0  0  0  0
  126.4767  105.7427  109.0756 C   0  0  0  0  0  0  0  0  0  0  0  0
  124.9029  106.2505  107.4423 C   0  0  0  0  0  0  0  0  0  0  0  0
  118.1527  106.5454  105.7339 C   0  0  0  0  0  0  0  0  0  0  0  0
  118.6278  107.7392  106.5234 C   0  0  0  0  0  0  0  0  0  0  0  0
  118.8962  105.4101  106.4054 C   0  0  0  0  0  0  0  0  0  0  0  0
  120.0847  107.3828  106.7637 C   0  0  1  0  0  0  0  0  0  0  0  0
  120.6720  108.0369  107.9992 C   0  0  0  0  0  0  0  0  0  0  0  0
  122.1405  107.6837  108.2180 C   0  0  0  0  0  0  0  0  0  0  0  0
  127.5187  105.9496  109.9135 N   0  0  0  0  0  0  0  0  0  0  0  0
  122.9722  108.1083  107.1261 N   0  0  0  0  0  0  0  0  0  0  0  0
  124.7279  107.6991  105.2787 O   0  0  0  0  0  0  0  0  0  0  0  0
  123.0015  105.9221  105.7102 O   0  0  0  0  0  0  0  0  0  0  0  0
  120.1297  105.9523  106.9005 O   0  0  0  0  0  0  0  0  0  0  0  0
  124.5240  104.6271  107.8336 S   0  0  0  0  0  0  0  0  0  0  0  0
  123.8743  106.9723  106.1990 S   0  0  0  0  0  0  0  0  0  0  0  0
  126.3557  107.7302  108.0750 H   0  0  0  0  0  0  0  0  0  0  0  0
  125.9524  103.6449  109.5508 H   0  0  0  0  0  0  0  0  0  0  0  0
  117.0679  106.4120  105.7466 H   0  0  0  0  0  0  0  0  0  0  0  0
  118.4745  106.6378  104.6898 H   0  0  0  0  0  0  0  0  0  0  0  0
  118.5038  108.6878  105.9938 H   0  0  0  0  0  0  0  0  0  0  0  0
  118.0752  107.7981  107.4690 H   0  0  0  0  0  0  0  0  0  0  0  0
  118.3358  105.0222  107.2626 H   0  0  0  0  0  0  0  0  0  0  0  0
  119.1052  104.5827  105.7216 H   0  0  0  0  0  0  0  0  0  0  0  0
  120.6883  107.6427  105.8858 H   0  0  0  0  0  0  0  0  0  0  0  0
  120.0997  107.7144  108.8789 H   0  0  0  0  0  0  0  0  0  0  0  0
  120.5583  109.1269  107.9252 H   0  0  0  0  0  0  0  0  0  0  0  0
  122.5181  108.1780  109.1186 H   0  0  0  0  0  0  0  0  0  0  0  0
  122.2735  106.6042  108.3406 H   0  0  0  0  0  0  0  0  0  0  0  0
  128.0458  106.8335  109.9201 H   0  0  0  0  0  0  0  0  0  0  0  0
  127.8914  105.2020  110.5147 H   0  0  0  0  0  0  0  0  0  0  0  0
  122.7279  109.0035  106.6515 H   0  0  0  0  0  0  0  0  0  0  0  0
  1  3  1  0  0  0  0
  1  4  2  0  0  0  0
  2  3  2  0  0  0  0
  2 16  1  0  0  0  0
  3 11  1  0  0  0  0
  4 16  1  0  0  0  0
  4 17  1  0  0  0  0
  5  6  1  0  0  0  0
  5  7  1  0  0  0  0
  6  8  1  0  0  0  0
  7 15  1  0  0  0  0
  8  9  1  0  0  0  0
  8 15  1  0  0  0  0
  9 10  1  0  0  0  0
 10 12  1  0  0  0  0
 12 17  1  0  0  0  0
 13 17  2  0  0  0  0
 14 17  2  0  0  0  0
  1 18  1  0  0  0  0
  2 19  1  0  0  0  0
  5 20  1  0  0  0  0
  5 21  1  0  0  0  0
  6 22  1  0  0  0  0
  6 23  1  0  0  0  0
  7 24  1  0  0  0  0
  7 25  1  0  0  0  0
  8 26  1  0  0  0  0
  9 27  1  0  0  0  0
  9 28  1  0  0  0  0
 10 29  1  0  0  0  0
 10 30  1  0  0  0  0
 11 31  1  0  0  0  0
 11 32  1  0  0  0  0
 12 33  1  0  0  0  0
M  END
> <FRED Chemgauss4 score>
-9.778090

$$$$
C36807941	P54704637
  -OEChem-05122015313D

 43 43  0     1  0  0  0  0  0999 V2000
  119.1459  104.6094  103.9800 C   0  0  0  0  0  0  0  0  0  0  0  0
  118.3306  104.2726  106.0791 C   0  0  0  0  0  0  0  0  0  0  0  0
  124.5303  106.0659  106.1184 C   0  0  0  0  0  0  0  0  0  0  0  0
  117.6914  105.0845  103.9425 C   0  0  0  0  0  0  0  0  0  0  0  0
  117.6223  106.5735  103.6301 C   0  0  0  0  0  0  0  0  0  0  0  0
  116.8794  104.2457  102.9645 C   0  0  0  0  0  0  0  0  0  0  0  0
  123.1375  107.8034  110.1008 C   0  0  0  0  0  0  0  0  0  0  0  0
  124.9644  104.4723  107.9048 C   0  0  0  0  0  0  0  0  0  0  0  0
  123.9501  107.0450  109.0612 C   0  0  0  0  0  0  0  0  0  0  0  0
  123.0639  106.0898  108.2514 C   0  0  0  0  0  0  0  0  0  0  0  0
  120.7226  103.6433  105.6551 C   0  0  0  0  0  0  0  0  0  0  0  0
  121.5866  104.7554  106.2190 C   0  0  0  0  0  0  0  0  0  0  0  0
  123.8247  105.2363  107.2182 C   0  0  1  0  0  0  0  0  0  0  0  0
  117.3014  104.8176  105.3099 N   0  0  0  0  0  0  0  0  0  0  0  0
  119.4043  104.1764  105.2447 N   0  0  0  0  0  0  0  0  0  0  0  0
  122.8815  104.2004  106.6743 N   0  3  0  0  0  0  0  0  0  0  0  0
  123.7795  106.8013  105.4160 O   0  5  0  0  0  0  0  0  0  0  0  0
  119.9037  104.6358  103.0184 O   0  0  0  0  0  0  0  0  0  0  0  0
  118.2455  103.9587  107.2593 O   0  0  0  0  0  0  0  0  0  0  0  0
  125.7855  105.9235  106.0564 O   0  0  0  0  0  0  0  0  0  0  0  0
  116.5830  106.9021  103.6056 H   0  0  0  0  0  0  0  0  0  0  0  0
  118.0788  106.7731  102.6603 H   0  0  0  0  0  0  0  0  0  0  0  0
  118.1542  107.1405  104.3945 H   0  0  0  0  0  0  0  0  0  0  0  0
  115.8456  104.5915  102.9448 H   0  0  0  0  0  0  0  0  0  0  0  0
  116.8959  103.1986  103.2675 H   0  0  0  0  0  0  0  0  0  0  0  0
  117.2993  104.3302  101.9619 H   0  0  0  0  0  0  0  0  0  0  0  0
  122.6359  107.1132  110.7867 H   0  0  0  0  0  0  0  0  0  0  0  0
  123.7904  108.4540  110.6910 H   0  0  0  0  0  0  0  0  0  0  0  0
  122.3761  108.4287  109.6236 H   0  0  0  0  0  0  0  0  0  0  0  0
  124.5880  103.8379  108.7160 H   0  0  0  0  0  0  0  0  0  0  0  0
  125.4915  103.8220  107.1969 H   0  0  0  0  0  0  0  0  0  0  0  0
  125.7040  105.1544  108.3415 H   0  0  0  0  0  0  0  0  0  0  0  0
  124.4321  107.7724  108.3995 H   0  0  0  0  0  0  0  0  0  0  0  0
  124.7456  106.4902  109.5701 H   0  0  0  0  0  0  0  0  0  0  0  0
  122.2895  106.6790  107.7413 H   0  0  0  0  0  0  0  0  0  0  0  0
  122.5274  105.4320  108.9481 H   0  0  0  0  0  0  0  0  0  0  0  0
  121.1976  103.1699  104.7894 H   0  0  0  0  0  0  0  0  0  0  0  0
  120.5578  102.8737  106.4161 H   0  0  0  0  0  0  0  0  0  0  0  0
  121.1197  105.2177  107.0933 H   0  0  0  0  0  0  0  0  0  0  0  0
  121.8156  105.5239  105.4745 H   0  0  0  0  0  0  0  0  0  0  0  0
  116.3734  105.0044  105.6771 H   0  0  0  0  0  0  0  0  0  0  0  0
  122.7229  103.4971  107.4017 H   0  0  0  0  0  0  0  0  0  0  0  0
  123.3459  103.7184  105.8991 H   0  0  0  0  0  0  0  0  0  0  0  0
  1  4  1  0  0  0  0
  1 15  1  0  0  0  0
  1 18  2  0  0  0  0
  2 14  1  0  0  0  0
  2 15  1  0  0  0  0
  2 19  2  0  0  0  0
  3 13  1  0  0  0  0
  3 17  1  0  0  0  0
  3 20  2  0  0  0  0
  4  5  1  0  0  0  0
  4  6  1  0  0  0  0
  4 14  1  0  0  0  0
  7  9  1  0  0  0  0
  8 13  1  0  0  0  0
  9 10  1  0  0  0  0
 10 13  1  0  0  0  0
 11 12  1  0  0  0  0
 11 15  1  0  0  0  0
 12 16  1  0  0  0  0
 13 16  1  0  0  0  0
  5 21  1  0  0  0  0
  5 22  1  0  0  0  0
  5 23  1  0  0  0  0
  6 24  1  0  0  0  0
  6 25  1  0  0  0  0
  6 26  1  0  0  0  0
  7 27  1  0  0  0  0
  7 28  1  0  0  0  0
  7 29  1  0  0  0  0
  8 30  1  0  0  0  0
  8 31  1  0  0  0  0
  8 32  1  0  0  0  0
  9 33  1  0  0  0  0
  9 34  1  0  0  0  0
 10 35  1  0  0  0  0
 10 36  1  0  0  0  0
 11 37  1  0  0  0  0
 11 38  1  0  0  0  0
 12 39  1  0  0  0  0
 12 40  1  0  0  0  0
 14 41  1  0  0  0  0
 16 42  1  0  0  0  0
 16 43  1  0  0  0  0
M  CHG  2  16   1  17  -1
M  END
> <FRED Chemgauss4 score>
-9.762300

$$$$
C88028385	P137679006
  -OEChem-05122015313D

 28 29  0     1  0  0  0  0  0999 V2000
  124.3640  104.7083  107.4047 C   0  0  0  0  0  0  0  0  0  0  0  0
  123.0090  108.3608  110.5357 C   0  0  0  0  0  0  0  0  0  0  0  0
  123.3312  109.6693  110.8084 C   0  0  0  0  0  0  0  0  0  0  0  0
  125.5093  104.2163  107.9910 C   0  0  0  0  0  0  0  0  0  0  0  0
  124.4449  106.1107  107.1659 C   0  0  0  0  0  0  0  0  0  0  0  0
  125.6491  106.6371  107.5791 C   0  0  0  0  0  0  0  0  0  0  0  0
  124.2013  109.0068  108.8951 C   0  0  0  0  0  0  0  0  0  0  0  0
  122.2657  106.1928  106.2173 C   0  0  0  0  0  0  0  0  0  0  0  0
  124.9866  109.1073  107.6073 C   0  0  0  0  0  0  0  0  0  0  0  0
  126.1328  108.0757  107.5114 C   0  0  2  0  0  0  0  0  0  0  0  0
  123.5539  107.9543  109.3434 N   0  0  0  0  0  0  0  0  0  0  0  0
  124.0956  110.0695  109.7488 N   0  0  0  0  0  0  0  0  0  0  0  0
  126.9123  108.3071  106.2877 N   0  0  0  0  0  0  0  0  0  0  0  0
  123.4761  106.8566  106.6066 O   0  0  0  0  0  0  0  0  0  0  0  0
  126.6756  105.4427  108.2514 S   0  0  0  0  0  0  0  0  0  0  0  0
  123.5105  104.0889  107.1604 H   0  0  0  0  0  0  0  0  0  0  0  0
  122.4137  107.6903  111.1379 H   0  0  0  0  0  0  0  0  0  0  0  0
  123.0952  110.3302  111.6296 H   0  0  0  0  0  0  0  0  0  0  0  0
  125.7164  103.1956  108.2798 H   0  0  0  0  0  0  0  0  0  0  0  0
  121.5753  106.9188  105.7809 H   0  0  0  0  0  0  0  0  0  0  0  0
  121.8104  105.7210  107.0917 H   0  0  0  0  0  0  0  0  0  0  0  0
  122.5030  105.4273  105.4748 H   0  0  0  0  0  0  0  0  0  0  0  0
  125.3960  110.1255  107.5468 H   0  0  0  0  0  0  0  0  0  0  0  0
  124.3044  109.0176  106.7516 H   0  0  0  0  0  0  0  0  0  0  0  0
  126.8225  108.2472  108.3478 H   0  0  0  0  0  0  0  0  0  0  0  0
  124.5049  110.9855  109.6196 H   0  0  0  0  0  0  0  0  0  0  0  0
  127.4668  107.5575  105.9466 H   0  0  0  0  0  0  0  0  0  0  0  0
  127.0117  109.2445  105.9759 H   0  0  0  0  0  0  0  0  0  0  0  0
  1  4  2  0  0  0  0
  1  5  1  0  0  0  0
  2  3  2  0  0  0  0
  2 11  1  0  0  0  0
  3 12  1  0  0  0  0
  4 15  1  0  0  0  0
  5  6  2  0  0  0  0
  5 14  1  0  0  0  0
  6 10  1  0  0  0  0
  6 15  1  0  0  0  0
  7  9  1  0  0  0  0
  7 11  2  0  0  0  0
  7 12  1  0  0  0  0
  8 14  1  0  0  0  0
  9 10  1  0  0  0  0
 10 13  1  0  0  0  0
  1 16  1  0  0  0  0
  2 17  1  0  0  0  0
  3 18  1  0  0  0  0
  4 19  1  0  0  0  0
  8 20  1  0  0  0  0
  8 21  1  0  0  0  0
  8 22  1  0  0  0  0
  9 23  1  0  0  0  0
  9 24  1  0  0  0  0
 10 25  1  0  0  0  0
 12 26  1  0  0  0  0
 13 27  1  0  0  0  0
 13 28  1  0  0  0  0
M  END
> <FRED Chemgauss4 score>
-9.760093

$$$$
C86437548	P135333756
  -OEChem-05122015313D

 36 38  0     1  0  0  0  0  0999 V2000
  120.8879  104.7021  105.7233 C   0  0  0  0  0  0  0  0  0  0  0  0
  120.3286  104.1967  104.6082 C   0  0  0  0  0  0  0  0  0  0  0  0
  119.9438  104.7221  106.8636 C   0  0  0  0  0  0  0  0  0  0  0  0
  122.2678  105.1752  105.8301 C   0  0  0  0  0  0  0  0  0  0  0  0
  118.0456  104.6709  103.8469 C   0  0  0  0  0  0  0  0  0  0  0  0
  124.7853  105.8656  108.0174 C   0  0  0  0  0  0  0  0  0  0  0  0
  125.0071  104.4304  108.3924 C   0  0  0  0  0  0  0  0  0  0  0  0
  117.1650  108.3801  104.0857 C   0  0  0  0  0  0  0  0  0  0  0  0
  116.0392  107.4230  103.8291 C   0  0  0  0  0  0  0  0  0  0  0  0
  118.8877  103.7788  104.7005 C   0  0  2  0  0  0  0  0  0  0  0  0
  124.3944  104.7718  107.0616 C   0  0  0  0  0  0  0  0  0  0  0  0
  117.4440  107.0493  103.4424 C   0  0  0  0  0  0  0  0  0  0  0  0
  121.0049  103.9705  103.2869 C   0  0  0  0  0  0  0  0  0  0  0  0
  120.1670  105.1740  108.0460 N   0  0  0  0  0  0  0  0  0  0  0  0
  123.0063  104.4861  106.7780 N   0  0  0  0  0  0  0  0  0  0  0  0
  118.1672  106.0145  104.1460 N   0  0  0  0  0  0  0  0  0  0  0  0
  122.6817  106.0956  105.1231 O   0  0  0  0  0  0  0  0  0  0  0  0
  117.3357  104.1803  102.9768 O   0  0  0  0  0  0  0  0  0  0  0  0
  118.4032  104.0192  106.4247 S   0  0  0  0  0  0  0  0  0  0  0  0
  124.0006  106.4052  108.5334 H   0  0  0  0  0  0  0  0  0  0  0  0
  125.6546  106.4631  107.7715 H   0  0  0  0  0  0  0  0  0  0  0  0
  126.0255  104.0620  108.3986 H   0  0  0  0  0  0  0  0  0  0  0  0
  124.3714  104.0068  109.1600 H   0  0  0  0  0  0  0  0  0  0  0  0
  117.2178  109.2713  103.4724 H   0  0  0  0  0  0  0  0  0  0  0  0
  117.4837  108.5210  105.1112 H   0  0  0  0  0  0  0  0  0  0  0  0
  115.6003  106.9196  104.6817 H   0  0  0  0  0  0  0  0  0  0  0  0
  115.3363  107.6718  103.0436 H   0  0  0  0  0  0  0  0  0  0  0  0
  118.7445  102.7345  104.4103 H   0  0  0  0  0  0  0  0  0  0  0  0
  125.0245  104.6413  106.1885 H   0  0  0  0  0  0  0  0  0  0  0  0
  117.6760  107.0609  102.3829 H   0  0  0  0  0  0  0  0  0  0  0  0
  121.4308  102.9705  103.2655 H   0  0  0  0  0  0  0  0  0  0  0  0
  121.7937  104.7071  103.1533 H   0  0  0  0  0  0  0  0  0  0  0  0
  120.2774  104.0757  102.4856 H   0  0  0  0  0  0  0  0  0  0  0  0
  119.3265  105.0539  108.6229 H   0  0  0  0  0  0  0  0  0  0  0  0
  122.5497  103.7434  107.2995 H   0  0  0  0  0  0  0  0  0  0  0  0
  118.7947  106.2879  104.8962 H   0  0  0  0  0  0  0  0  0  0  0  0
  1  2  2  0  0  0  0
  1  3  1  0  0  0  0
  1  4  1  0  0  0  0
  2 10  1  0  0  0  0
  2 13  1  0  0  0  0
  3 14  2  0  0  0  0
  3 19  1  0  0  0  0
  4 15  1  0  0  0  0
  4 17  2  0  0  0  0
  5 10  1  0  0  0  0
  5 16  1  0  0  0  0
  5 18  2  0  0  0  0
  6  7  1  0  0  0  0
  6 11  1  0  0  0  0
  7 11  1  0  0  0  0
  8  9  1  0  0  0  0
  8 12  1  0  0  0  0
  9 12  1  0  0  0  0
 10 19  1  0  0  0  0
 11 15  1  0  0  0  0
 12 16  1  0  0  0  0
  6 20  1  0  0  0  0
  6 21  1  0  0  0  0
  7 22  1  0  0  0  0
  7 23  1  0  0  0  0
  8 24  1  0  0  0  0
  8 25  1  0  0  0  0
  9 26  1  0  0  0  0
  9 27  1  0  0  0  0
 10 28  1  0  0  0  0
 11 29  1  0  0  0  0
 12 30  1  0  0  0  0
 13 31  1  0  0  0  0
 13 32  1  0  0  0  0
 13 33  1  0  0  0  0
 14 34  1  0  0  0  0
 15 35  1  0  0  0  0
 16 36  1  0  0  0  0
M  END
> <FRED Chemgauss4 score>
-9.755599

$$$$
C87875617	P137452266
  -OEChem-05122015313D

 34 34  0     1  0  0  0  0  0999 V2000
  119.7675  103.7091  106.2703 C   0  0  0  0  0  0  0  0  0  0  0  0
  120.9880  104.3389  106.2540 C   0  0  0  0  0  0  0  0  0  0  0  0
  120.6927  105.6697  105.9028 C   0  0  0  0  0  0  0  0  0  0  0  0
  121.6405  106.8016  105.7363 C   0  0  0  0  0  0  0  0  0  0  0  0
  124.6734  107.6895  106.3765 C   0  0  0  0  0  0  0  0  0  0  0  0
  116.9032  104.8510  104.4500 C   0  0  0  0  0  0  0  0  0  0  0  0
  123.4607  108.8437  108.2433 C   0  0  0  0  0  0  0  0  0  0  0  0
  126.0425  105.6155  106.3650 C   0  0  0  0  0  0  0  0  0  0  0  0
  117.4242  104.4785  105.8274 C   0  0  0  0  0  0  0  0  0  0  0  0
  123.3326  108.2270  106.8592 C   0  0  2  0  0  0  0  0  0  0  0  0
  119.3870  105.8744  105.7097 N   0  0  0  0  0  0  0  0  0  0  0  0
  118.8511  104.6638  105.9403 N   0  0  0  0  0  0  0  0  0  0  0  0
  122.1891  103.7886  106.5185 N   0  0  0  0  0  0  0  0  0  0  0  0
  122.3904  107.1391  106.8558 N   0  0  0  0  0  0  0  0  0  0  0  0
  124.8663  106.3644  106.7412 N   0  0  0  0  0  0  0  0  0  0  0  0
  121.6992  107.3809  104.6549 O   0  0  0  0  0  0  0  0  0  0  0  0
  125.4623  108.3558  105.7096 O   0  0  0  0  0  0  0  0  0  0  0  0
  119.4791  102.6885  106.4830 H   0  0  0  0  0  0  0  0  0  0  0  0
  117.1217  105.8979  104.2141 H   0  0  0  0  0  0  0  0  0  0  0  0
  115.8190  104.7097  104.4035 H   0  0  0  0  0  0  0  0  0  0  0  0
  117.3622  104.2311  103.6727 H   0  0  0  0  0  0  0  0  0  0  0  0
  123.8337  108.1131  108.9704 H   0  0  0  0  0  0  0  0  0  0  0  0
  124.1564  109.6894  108.2381 H   0  0  0  0  0  0  0  0  0  0  0  0
  122.4899  109.2030  108.6014 H   0  0  0  0  0  0  0  0  0  0  0  0
  125.8632  105.0793  105.4295 H   0  0  0  0  0  0  0  0  0  0  0  0
  126.2940  104.8904  107.1437 H   0  0  0  0  0  0  0  0  0  0  0  0
  126.8918  106.2900  106.2268 H   0  0  0  0  0  0  0  0  0  0  0  0
  117.2011  103.4298  106.0543 H   0  0  0  0  0  0  0  0  0  0  0  0
  116.9426  105.0880  106.6004 H   0  0  0  0  0  0  0  0  0  0  0  0
  122.9591  108.9711  106.1472 H   0  0  0  0  0  0  0  0  0  0  0  0
  122.2914  102.8052  106.8148 H   0  0  0  0  0  0  0  0  0  0  0  0
  123.0588  104.3444  106.5305 H   0  0  0  0  0  0  0  0  0  0  0  0
  122.2381  106.6497  107.7348 H   0  0  0  0  0  0  0  0  0  0  0  0
  124.1780  105.9025  107.3283 H   0  0  0  0  0  0  0  0  0  0  0  0
  1  2  2  0  0  0  0
  1 12  1  0  0  0  0
  2  3  1  0  0  0  0
  2 13  1  0  0  0  0
  3  4  1  0  0  0  0
  3 11  2  0  0  0  0
  4 14  1  0  0  0  0
  4 16  2  0  0  0  0
  5 10  1  0  0  0  0
  5 15  1  0  0  0  0
  5 17  2  0  0  0  0
  6  9  1  0  0  0  0
  7 10  1  0  0  0  0
  8 15  1  0  0  0  0
  9 12  1  0  0  0  0
 10 14  1  0  0  0  0
 11 12  1  0  0  0  0
  1 18  1  0  0  0  0
  6 19  1  0  0  0  0
  6 20  1  0  0  0  0
  6 21  1  0  0  0  0
  7 22  1  0  0  0  0
  7 23  1  0  0  0  0
  7 24  1  0  0  0  0
  8 25  1  0  0  0  0
  8 26  1  0  0  0  0
  8 27  1  0  0  0  0
  9 28  1  0  0  0  0
  9 29  1  0  0  0  0
 10 30  1  0  0  0  0
 13 31  1  0  0  0  0
 13 32  1  0  0  0  0
 14 33  1  0  0  0  0
 15 34  1  0  0  0  0
M  END
> <FRED Chemgauss4 score>
-9.749020

$$$$
C50649018	P75778015
  -OEChem-05122015313D

 33 34  0     0  0  0  0  0  0999 V2000
  124.9387  106.8962  108.8210 C   0  0  0  0  0  0  0  0  0  0  0  0
  125.8850  106.1364  108.1400 C   0  0  0  0  0  0  0  0  0  0  0  0
  123.5833  106.6300  108.6517 C   0  0  0  0  0  0  0  0  0  0  0  0
  118.9708  105.7571  104.1157 C   0  0  0  0  0  0  0  0  0  0  0  0
  117.1152  107.0130  104.9133 C   0  0  0  0  0  0  0  0  0  0  0  0
  125.4487  105.1216  107.3002 C   0  0  0  0  0  0  0  0  0  0  0  0
  119.7689  106.3948  105.0590 C   0  0  0  0  0  0  0  0  0  0  0  0
  117.6176  106.0664  104.0350 C   0  0  0  0  0  0  0  0  0  0  0  0
  123.2053  105.6027  107.7989 C   0  0  0  0  0  0  0  0  0  0  0  0
  119.1702  107.3268  105.8913 C   0  0  0  0  0  0  0  0  0  0  0  0
  119.4558  108.4431  108.1044 C   0  0  0  0  0  0  0  0  0  0  0  0
  121.7799  105.2577  107.5636 C   0  0  0  0  0  0  0  0  0  0  0  0
  117.8593  107.6534  105.8427 N   0  0  0  0  0  0  0  0  0  0  0  0
  121.6001  104.7798  106.1934 N   0  5  0  0  0  0  0  0  0  0  0  0
  124.1374  104.8867  107.1555 N   0  3  0  0  0  0  0  0  0  0  0  0
  119.9729  107.9835  106.8567 N   0  0  0  0  0  0  0  0  0  0  0  0
  122.1180  107.2388  105.6067 O   0  0  0  0  0  0  0  0  0  0  0  0
  121.8410  105.6357  103.7710 O   0  0  0  0  0  0  0  0  0  0  0  0
  121.5210  105.9848  105.1532 S   0  0  0  0  0  0  0  0  0  0  0  0
  116.5023  105.2251  102.7721 Br  0  0  0  0  0  0  0  0  0  0  0  0
  125.2579  107.6946  109.4845 H   0  0  0  0  0  0  0  0  0  0  0  0
  126.9445  106.3339  108.2631 H   0  0  0  0  0  0  0  0  0  0  0  0
  122.8419  107.2200  109.1815 H   0  0  0  0  0  0  0  0  0  0  0  0
  119.4065  105.0198  103.4455 H   0  0  0  0  0  0  0  0  0  0  0  0
  116.0678  107.2993  104.9026 H   0  0  0  0  0  0  0  0  0  0  0  0
  126.1113  104.4820  106.7335 H   0  0  0  0  0  0  0  0  0  0  0  0
  118.3905  108.2096  108.1786 H   0  0  0  0  0  0  0  0  0  0  0  0
  119.5859  109.5252  108.1918 H   0  0  0  0  0  0  0  0  0  0  0  0
  119.9807  107.9590  108.9324 H   0  0  0  0  0  0  0  0  0  0  0  0
  121.4350  104.5003  108.2903 H   0  0  0  0  0  0  0  0  0  0  0  0
  121.1360  106.1350  107.7522 H   0  0  0  0  0  0  0  0  0  0  0  0
  123.8436  104.1348  106.5322 H   0  0  0  0  0  0  0  0  0  0  0  0
  120.9359  108.1159  106.6234 H   0  0  0  0  0  0  0  0  0  0  0  0
  1  2  1  0  0  0  0
  1  3  2  0  0  0  0
  2  6  2  0  0  0  0
  3  9  1  0  0  0  0
  4  7  2  0  0  0  0
  4  8  1  0  0  0  0
  5  8  2  0  0  0  0
  5 13  1  0  0  0  0
  6 15  1  0  0  0  0
  7 10  1  0  0  0  0
  7 19  1  0  0  0  0
  8 20  1  0  0  0  0
  9 12  1  0  0  0  0
  9 15  2  0  0  0  0
 10 13  2  0  0  0  0
 10 16  1  0  0  0  0
 11 16  1  0  0  0  0
 12 14  1  0  0  0  0
 14 19  1  0  0  0  0
 17 19  2  0  0  0  0
 18 19  2  0  0  0  0
  1 21  1  0  0  0  0
  2 22  1  0  0  0  0
  3 23  1  0  0  0  0
  4 24  1  0  0  0  0
  5 25  1  0  0  0  0
  6 26  1  0  0  0  0
 11 27  1  0  0  0  0
 11 28  1  0  0  0  0
 11 29  1  0  0  0  0
 12 30  1  0  0  0  0
 12 31  1  0  0  0  0
 15 32  1  0  0  0  0
 16 33  1  0  0  0  0
M  CHG  2  14  -1  15   1
M  END
> <FRED Chemgauss4 score>
-9.744571

$$$$
C01646389	P06812831
  -OEChem-05122015313D

 42 43  0     0  0  0  0  0  0999 V2000
  121.0094  104.5128  105.9848 C   0  0  0  0  0  0  0  0  0  0  0  0
  119.9321  103.7498  106.2829 C   0  0  0  0  0  0  0  0  0  0  0  0
  120.8392  105.8172  105.2784 C   0  0  0  0  0  0  0  0  0  0  0  0
  118.3919  105.3978  105.2636 C   0  0  0  0  0  0  0  0  0  0  0  0
  123.1898  104.8643  107.0949 C   0  0  0  0  0  0  0  0  0  0  0  0
  123.9168  109.6999  109.5197 C   0  0  0  0  0  0  0  0  0  0  0  0
  124.8870  109.0294  108.5513 C   0  0  0  0  0  0  0  0  0  0  0  0
  123.1559  108.6741  110.3550 C   0  0  0  0  0  0  0  0  0  0  0  0
  124.1821  107.9999  107.6697 C   0  0  0  0  0  0  0  0  0  0  0  0
  122.4484  107.6447  109.4754 C   0  0  0  0  0  0  0  0  0  0  0  0
  123.4286  106.9652  108.5129 C   0  0  0  0  0  0  0  0  0  0  0  0
  117.5070  103.3286  106.2658 C   0  0  0  0  0  0  0  0  0  0  0  0
  119.3195  107.4456  104.2849 C   0  0  0  0  0  0  0  0  0  0  0  0
  118.6475  104.1859  105.9268 N   0  0  0  0  0  0  0  0  0  0  0  0
  119.5293  106.1725  104.9684 N   0  0  0  0  0  0  0  0  0  0  0  0
  120.1145  102.5456  106.9371 N   0  0  0  0  0  0  0  0  0  0  0  0
  122.2977  104.1670  106.2928 N   0  0  0  0  0  0  0  0  0  0  0  0
  122.7072  106.0424  107.6386 N   0  0  0  0  0  0  0  0  0  0  0  0
  121.8323  106.4948  105.0115 O   0  0  0  0  0  0  0  0  0  0  0  0
  117.2536  105.7682  104.9555 O   0  0  0  0  0  0  0  0  0  0  0  0
  124.7712  104.4147  107.4567 S   0  0  0  0  0  0  0  0  0  0  0  0
  124.4662  110.3793  110.1809 H   0  0  0  0  0  0  0  0  0  0  0  0
  123.2025  110.3114  108.9547 H   0  0  0  0  0  0  0  0  0  0  0  0
  125.3630  109.7892  107.9213 H   0  0  0  0  0  0  0  0  0  0  0  0
  125.6869  108.5369  109.1180 H   0  0  0  0  0  0  0  0  0  0  0  0
  123.8537  108.1606  111.0278 H   0  0  0  0  0  0  0  0  0  0  0  0
  122.4211  109.1856  110.9869 H   0  0  0  0  0  0  0  0  0  0  0  0
  123.4842  108.5128  106.9949 H   0  0  0  0  0  0  0  0  0  0  0  0
  124.9200  107.4993  107.0308 H   0  0  0  0  0  0  0  0  0  0  0  0
  121.9630  106.8933  110.1102 H   0  0  0  0  0  0  0  0  0  0  0  0
  121.6472  108.1366  108.9084 H   0  0  0  0  0  0  0  0  0  0  0  0
  124.1361  106.3604  109.0732 H   0  0  0  0  0  0  0  0  0  0  0  0
  117.1256  103.5854  107.2576 H   0  0  0  0  0  0  0  0  0  0  0  0
  117.8107  102.2783  106.2667 H   0  0  0  0  0  0  0  0  0  0  0  0
  116.7044  103.4608  105.5351 H   0  0  0  0  0  0  0  0  0  0  0  0
  119.3520  107.3005  103.2019 H   0  0  0  0  0  0  0  0  0  0  0  0
  120.0980  108.1593  104.5678 H   0  0  0  0  0  0  0  0  0  0  0  0
  118.3460  107.8636  104.5549 H   0  0  0  0  0  0  0  0  0  0  0  0
  121.0392  102.2831  107.1660 H   0  0  0  0  0  0  0  0  0  0  0  0
  119.3110  102.0084  107.1426 H   0  0  0  0  0  0  0  0  0  0  0  0
  122.6090  103.2969  105.8742 H   0  0  0  0  0  0  0  0  0  0  0  0
  121.7515  106.2920  107.4033 H   0  0  0  0  0  0  0  0  0  0  0  0
  1  2  2  0  0  0  0
  1  3  1  0  0  0  0
  1 17  1  0  0  0  0
  2 14  1  0  0  0  0
  2 16  1  0  0  0  0
  3 15  1  0  0  0  0
  3 19  2  0  0  0  0
  4 14  1  0  0  0  0
  4 15  1  0  0  0  0
  4 20  2  0  0  0  0
  5 17  1  0  0  0  0
  5 18  1  0  0  0  0
  5 21  2  0  0  0  0
  6  7  1  0  0  0  0
  6  8  1  0  0  0  0
  7  9  1  0  0  0  0
  8 10  1  0  0  0  0
  9 11  1  0  0  0  0
 10 11  1  0  0  0  0
 11 18  1  0  0  0  0
 12 14  1  0  0  0  0
 13 15  1  0  0  0  0
  6 22  1  0  0  0  0
  6 23  1  0  0  0  0
  7 24  1  0  0  0  0
  7 25  1  0  0  0  0
  8 26  1  0  0  0  0
  8 27  1  0  0  0  0
  9 28  1  0  0  0  0
  9 29  1  0  0  0  0
 10 30  1  0  0  0  0
 10 31  1  0  0  0  0
 11 32  1  0  0  0  0
 12 33  1  0  0  0  0
 12 34  1  0  0  0  0
 12 35  1  0  0  0  0
 13 36  1  0  0  0  0
 13 37  1  0  0  0  0
 13 38  1  0  0  0  0
 16 39  1  0  0  0  0
 16 40  1  0  0  0  0
 17 41  1  0  0  0  0
 18 42  1  0  0  0  0
M  END
> <FRED Chemgauss4 score>
-9.743755

$$$$
C63180763	P97025531
  -OEChem-05122015313D

 35 36  0     1  0  0  0  0  0999 V2000
  121.3113  105.9212  104.3734 C   0  0  0  0  0  0  0  0  0  0  0  0
  121.0609  104.8016  105.1390 C   0  0  0  0  0  0  0  0  0  0  0  0
  122.8688  106.2046  105.8913 C   0  0  0  0  0  0  0  0  0  0  0  0
  124.0343  108.7202  109.0087 C   0  0  0  0  0  0  0  0  0  0  0  0
  125.9293  106.4566  108.0059 C   0  0  0  0  0  0  0  0  0  0  0  0
  126.1709  107.9627  107.9889 C   0  0  0  0  0  0  0  0  0  0  0  0
  125.1748  105.9908  106.7638 C   0  0  0  0  0  0  0  0  0  0  0  0
  124.0818  108.2270  106.5632 C   0  0  0  0  0  0  0  0  0  0  0  0
  124.8765  108.7433  107.7650 C   0  0  1  0  0  0  0  0  0  0  0  0
  121.8393  111.0762  110.5113 C   0  0  0  0  0  0  0  0  0  0  0  0
  123.0347  110.1724  110.7621 C   0  0  0  0  0  0  0  0  0  0  0  0
  122.3473  106.7271  104.8035 N   0  0  0  0  0  0  0  0  0  0  0  0
  123.9402  106.7628  106.5989 N   0  0  0  0  0  0  0  0  0  0  0  0
  122.2310  112.3718  110.0248 N   0  0  0  0  0  0  0  0  0  0  0  0
  123.8183  109.9664  109.5651 N   0  0  0  0  0  0  0  0  0  0  0  0
  123.6104  107.6509  109.4315 O   0  0  0  0  0  0  0  0  0  0  0  0
  122.1626  104.7446  106.4522 S   0  0  0  0  0  0  0  0  0  0  0  0
  120.7626  106.1982  103.4834 H   0  0  0  0  0  0  0  0  0  0  0  0
  120.3083  104.0399  104.9934 H   0  0  0  0  0  0  0  0  0  0  0  0
  126.8882  105.9301  108.0726 H   0  0  0  0  0  0  0  0  0  0  0  0
  125.3574  106.1872  108.9026 H   0  0  0  0  0  0  0  0  0  0  0  0
  126.6458  108.2647  108.9301 H   0  0  0  0  0  0  0  0  0  0  0  0
  126.8762  108.2013  107.1830 H   0  0  0  0  0  0  0  0  0  0  0  0
  125.8044  106.1099  105.8733 H   0  0  0  0  0  0  0  0  0  0  0  0
  124.9510  104.9216  106.8672 H   0  0  0  0  0  0  0  0  0  0  0  0
  123.0917  108.7013  106.5445 H   0  0  0  0  0  0  0  0  0  0  0  0
  124.5967  108.5100  105.6360 H   0  0  0  0  0  0  0  0  0  0  0  0
  125.1270  109.7976  107.5964 H   0  0  0  0  0  0  0  0  0  0  0  0
  121.2578  111.2322  111.4255 H   0  0  0  0  0  0  0  0  0  0  0  0
  121.1854  110.6330  109.7538 H   0  0  0  0  0  0  0  0  0  0  0  0
  123.6987  110.6207  111.5076 H   0  0  0  0  0  0  0  0  0  0  0  0
  122.7214  109.1878  111.1237 H   0  0  0  0  0  0  0  0  0  0  0  0
  123.0492  112.8147  110.4113 H   0  0  0  0  0  0  0  0  0  0  0  0
  121.5833  112.9021  109.4641 H   0  0  0  0  0  0  0  0  0  0  0  0
  124.2298  110.7764  109.1113 H   0  0  0  0  0  0  0  0  0  0  0  0
  1  2  2  0  0  0  0
  1 12  1  0  0  0  0
  2 17  1  0  0  0  0
  3 12  2  0  0  0  0
  3 13  1  0  0  0  0
  3 17  1  0  0  0  0
  4  9  1  0  0  0  0
  4 15  1  0  0  0  0
  4 16  2  0  0  0  0
  5  6  1  0  0  0  0
  5  7  1  0  0  0  0
  6  9  1  0  0  0  0
  7 13  1  0  0  0  0
  8  9  1  0  0  0  0
  8 13  1  0  0  0  0
 10 11  1  0  0  0  0
 10 14  1  0  0  0  0
 11 15  1  0  0  0  0
  1 18  1  0  0  0  0
  2 19  1  0  0  0  0
  5 20  1  0  0  0  0
  5 21  1  0  0  0  0
  6 22  1  0  0  0  0
  6 23  1  0  0  0  0
  7 24  1  0  0  0  0
  7 25  1  0  0  0  0
  8 26  1  0  0  0  0
  8 27  1  0  0  0  0
  9 28  1  0  0  0  0
 10 29  1  0  0  0  0
 10 30  1  0  0  0  0
 11 31  1  0  0  0  0
 11 32  1  0  0  0  0
 14 33  1  0  0  0  0
 14 34  1  0  0  0  0
 15 35  1  0  0  0  0
M  END
> <FRED Chemgauss4 score>
-9.740976

$$$$
C31963761	P48096834
  -OEChem-05122015313D

 26 26  0     0  0  0  0  0  0999 V2000
  121.1367  106.0107  105.0644 C   0  0  0  0  0  0  0  0  0  0  0  0
  120.9945  104.7607  105.6294 C   0  0  0  0  0  0  0  0  0  0  0  0
  123.0148  105.9442  106.1949 C   0  0  0  0  0  0  0  0  0  0  0  0
  124.7972  107.4507  106.4528 C   0  0  0  0  0  0  0  0  0  0  0  0
  120.1724  106.6700  104.1600 C   0  0  0  0  0  0  0  0  0  0  0  0
  119.9006  103.7774  105.5011 C   0  0  0  0  0  0  0  0  0  0  0  0
  126.1566  107.6578  107.1595 C   0  0  0  0  0  0  0  0  0  0  0  0
  126.5596  106.4557  108.0049 C   0  0  0  0  0  0  0  0  0  0  0  0
  122.2944  106.6910  105.3878 N   0  0  0  0  0  0  0  0  0  0  0  0
  124.2641  106.2915  106.7430 N   0  0  0  0  0  0  0  0  0  0  0  0
  127.8390  106.7307  108.7042 N   0  3  0  0  0  0  0  0  0  0  0  0
  124.3913  108.3877  105.7290 O   0  5  0  0  0  0  0  0  0  0  0  0
  122.3607  104.4118  106.6057 S   0  0  0  0  0  0  0  0  0  0  0  0
  119.4410  107.2670  104.7281 H   0  0  0  0  0  0  0  0  0  0  0  0
  120.6725  107.3436  103.4440 H   0  0  0  0  0  0  0  0  0  0  0  0
  119.6113  105.9402  103.5523 H   0  0  0  0  0  0  0  0  0  0  0  0
  120.0793  103.0928  104.6560 H   0  0  0  0  0  0  0  0  0  0  0  0
  119.7870  103.1642  106.4112 H   0  0  0  0  0  0  0  0  0  0  0  0
  118.9241  104.2644  105.3377 H   0  0  0  0  0  0  0  0  0  0  0  0
  126.0932  108.5435  107.8055 H   0  0  0  0  0  0  0  0  0  0  0  0
  126.9252  107.8739  106.4060 H   0  0  0  0  0  0  0  0  0  0  0  0
  125.8178  106.2574  108.7839 H   0  0  0  0  0  0  0  0  0  0  0  0
  126.7144  105.5527  107.4074 H   0  0  0  0  0  0  0  0  0  0  0  0
  128.1909  107.6653  108.4711 H   0  0  0  0  0  0  0  0  0  0  0  0
  128.5560  106.0473  108.4378 H   0  0  0  0  0  0  0  0  0  0  0  0
  127.7186  106.6826  109.7215 H   0  0  0  0  0  0  0  0  0  0  0  0
  1  2  2  0  0  0  0
  1  5  1  0  0  0  0
  1  9  1  0  0  0  0
  2  6  1  0  0  0  0
  2 13  1  0  0  0  0
  3  9  2  0  0  0  0
  3 10  1  0  0  0  0
  3 13  1  0  0  0  0
  4  7  1  0  0  0  0
  4 10  2  0  0  0  0
  4 12  1  0  0  0  0
  7  8  1  0  0  0  0
  8 11  1  0  0  0  0
  5 14  1  0  0  0  0
  5 15  1  0  0  0  0
  5 16  1  0  0  0  0
  6 17  1  0  0  0  0
  6 18  1  0  0  0  0
  6 19  1  0  0  0  0
  7 20  1  0  0  0  0
  7 21  1  0  0  0  0
  8 22  1  0  0  0  0
  8 23  1  0  0  0  0
 11 24  1  0  0  0  0
 11 25  1  0  0  0  0
 11 26  1  0  0  0  0
M  CHG  2  11   1  12  -1
M  END
> <FRED Chemgauss4 score>
-9.740801

$$$$
C84208274	P131759461
  -OEChem-05122015313D

 39 41  0     0  0  0  0  0  0999 V2000
  118.7242  103.5666  106.0038 C   0  0  0  0  0  0  0  0  0  0  0  0
  119.8339  103.5402  106.8484 C   0  0  0  0  0  0  0  0  0  0  0  0
  118.6146  104.5562  105.0269 C   0  0  0  0  0  0  0  0  0  0  0  0
  120.8341  104.5034  106.7161 C   0  0  0  0  0  0  0  0  0  0  0  0
  124.8618  106.2486  106.4190 C   0  0  0  0  0  0  0  0  0  0  0  0
  126.1060  106.2269  107.0578 C   0  0  0  0  0  0  0  0  0  0  0  0
  125.1269  106.9945  109.1507 C   0  0  0  0  0  0  0  0  0  0  0  0
  119.6148  105.5195  104.8947 C   0  0  0  0  0  0  0  0  0  0  0  0
  120.7245  105.4931  105.7393 C   0  0  0  0  0  0  0  0  0  0  0  0
  123.8692  107.0224  108.5248 C   0  0  0  0  0  0  0  0  0  0  0  0
  123.7688  106.6521  107.1867 C   0  0  0  0  0  0  0  0  0  0  0  0
  126.2385  106.5928  108.3993 C   0  0  0  0  0  0  0  0  0  0  0  0
  121.8025  107.2210  108.0260 C   0  0  0  0  0  0  0  0  0  0  0  0
  120.3474  107.4738  108.0650 C   0  0  0  0  0  0  0  0  0  0  0  0
  119.0386  107.9123  104.4161 C   0  0  0  0  0  0  0  0  0  0  0  0
  119.4768  106.5688  103.8408 C   0  0  0  0  0  0  0  0  0  0  0  0
  121.8158  106.5219  105.6162 C   0  0  0  0  0  0  0  0  0  0  0  0
  122.6377  107.3724  109.0293 N   0  0  0  0  0  0  0  0  0  0  0  0
  122.4360  106.7886  106.8943 N   0  0  0  0  0  0  0  0  0  0  0  0
  127.5127  106.5577  109.0092 N   0  0  0  0  0  0  0  0  0  0  0  0
  117.9454  102.8170  106.1076 H   0  0  0  0  0  0  0  0  0  0  0  0
  119.9185  102.7695  107.6091 H   0  0  0  0  0  0  0  0  0  0  0  0
  117.7452  104.5690  104.3749 H   0  0  0  0  0  0  0  0  0  0  0  0
  121.6952  104.4741  107.3787 H   0  0  0  0  0  0  0  0  0  0  0  0
  124.7599  105.9644  105.3777 H   0  0  0  0  0  0  0  0  0  0  0  0
  126.9801  105.9173  106.4883 H   0  0  0  0  0  0  0  0  0  0  0  0
  125.2286  107.2791  110.1938 H   0  0  0  0  0  0  0  0  0  0  0  0
  120.1193  108.5170  107.7935 H   0  0  0  0  0  0  0  0  0  0  0  0
  119.7960  106.8175  107.3711 H   0  0  0  0  0  0  0  0  0  0  0  0
  119.9229  107.2862  109.0657 H   0  0  0  0  0  0  0  0  0  0  0  0
  118.0913  107.8182  104.9578 H   0  0  0  0  0  0  0  0  0  0  0  0
  118.9008  108.6478  103.6174 H   0  0  0  0  0  0  0  0  0  0  0  0
  119.7867  108.3046  105.1133 H   0  0  0  0  0  0  0  0  0  0  0  0
  120.4296  106.6989  103.3044 H   0  0  0  0  0  0  0  0  0  0  0  0
  118.7516  106.2492  103.0763 H   0  0  0  0  0  0  0  0  0  0  0  0
  122.5952  106.1909  104.9190 H   0  0  0  0  0  0  0  0  0  0  0  0
  121.4259  107.4676  105.2205 H   0  0  0  0  0  0  0  0  0  0  0  0
  128.2936  106.2257  108.4828 H   0  0  0  0  0  0  0  0  0  0  0  0
  127.5914  106.7753  109.9807 H   0  0  0  0  0  0  0  0  0  0  0  0
  1  2  1  0  0  0  0
  1  3  2  0  0  0  0
  2  4  2  0  0  0  0
  3  8  1  0  0  0  0
  4  9  1  0  0  0  0
  5  6  1  0  0  0  0
  5 11  2  0  0  0  0
  6 12  2  0  0  0  0
  7 10  2  0  0  0  0
  7 12  1  0  0  0  0
  8  9  2  0  0  0  0
  8 16  1  0  0  0  0
  9 17  1  0  0  0  0
 10 11  1  0  0  0  0
 10 18  1  0  0  0  0
 11 19  1  0  0  0  0
 12 20  1  0  0  0  0
 13 14  1  0  0  0  0
 13 18  2  0  0  0  0
 13 19  1  0  0  0  0
 15 16  1  0  0  0  0
 17 19  1  0  0  0  0
  1 21  1  0  0  0  0
  2 22  1  0  0  0  0
  3 23  1  0  0  0  0
  4 24  1  0  0  0  0
  5 25  1  0  0  0  0
  6 26  1  0  0  0  0
  7 27  1  0  0  0  0
 14 28  1  0  0  0  0
 14 29  1  0  0  0  0
 14 30  1  0  0  0  0
 15 31  1  0  0  0  0
 15 32  1  0  0  0  0
 15 33  1  0  0  0  0
 16 34  1  0  0  0  0
 16 35  1  0  0  0  0
 17 36  1  0  0  0  0
 17 37  1  0  0  0  0
 20 38  1  0  0  0  0
 20 39  1  0  0  0  0
M  END
> <FRED Chemgauss4 score>
-9.738962

$$$$
C83142747	P129966553
  -OEChem-05122015313D

 29 30  0     1  0  0  0  0  0999 V2000
  123.8493  112.3377  112.6434 C   0  0  0  0  0  0  0  0  0  0  0  0
  123.3754  108.1687  110.4576 C   0  0  0  0  0  0  0  0  0  0  0  0
  123.1631  111.6303  113.6081 C   0  0  0  0  0  0  0  0  0  0  0  0
  123.7942  109.4753  110.5475 C   0  0  0  0  0  0  0  0  0  0  0  0
  123.6607  110.4286  111.5805 C   0  0  0  0  0  0  0  0  0  0  0  0
  124.3570  108.5796  108.6142 C   0  0  0  0  0  0  0  0  0  0  0  0
  125.5070  106.0170  107.3736 C   0  0  0  0  0  0  0  0  0  0  0  0
  123.3378  106.7407  106.3760 C   0  0  0  0  0  0  0  0  0  0  0  0
  124.9612  108.5077  107.2232 C   0  0  2  0  0  0  0  0  0  0  0  0
  124.8155  107.1159  106.5566 C   0  0  0  0  0  0  0  0  0  0  0  0
  124.1359  111.6502  111.4802 N   0  0  0  0  0  0  0  0  0  0  0  0
  123.7290  107.6167  109.2518 N   0  0  0  0  0  0  0  0  0  0  0  0
  124.4217  109.7240  109.3594 N   0  0  0  0  0  0  0  0  0  0  0  0
  126.3453  108.9180  107.3254 N   0  0  0  0  0  0  0  0  0  0  0  0
  122.8573  110.0391  113.0460 S   0  0  0  0  0  0  0  0  0  0  0  0
  124.1687  113.3664  112.7395 H   0  0  0  0  0  0  0  0  0  0  0  0
  122.8356  107.5931  111.1964 H   0  0  0  0  0  0  0  0  0  0  0  0
  122.8363  111.9622  114.5832 H   0  0  0  0  0  0  0  0  0  0  0  0
  125.0901  105.9535  108.3846 H   0  0  0  0  0  0  0  0  0  0  0  0
  125.3803  105.0398  106.8948 H   0  0  0  0  0  0  0  0  0  0  0  0
  126.5832  106.1964  107.4588 H   0  0  0  0  0  0  0  0  0  0  0  0
  122.8175  106.7041  107.3391 H   0  0  0  0  0  0  0  0  0  0  0  0
  123.2420  105.7572  105.9030 H   0  0  0  0  0  0  0  0  0  0  0  0
  122.8189  107.4605  105.7352 H   0  0  0  0  0  0  0  0  0  0  0  0
  124.4863  109.2553  106.5745 H   0  0  0  0  0  0  0  0  0  0  0  0
  125.2715  107.1335  105.5581 H   0  0  0  0  0  0  0  0  0  0  0  0
  124.8524  110.5956  109.0788 H   0  0  0  0  0  0  0  0  0  0  0  0
  126.5919  109.6191  107.9992 H   0  0  0  0  0  0  0  0  0  0  0  0
  126.9823  108.6510  106.5977 H   0  0  0  0  0  0  0  0  0  0  0  0
  1  3  2  0  0  0  0
  1 11  1  0  0  0  0
  2  4  2  0  0  0  0
  2 12  1  0  0  0  0
  3 15  1  0  0  0  0
  4  5  1  0  0  0  0
  4 13  1  0  0  0  0
  5 11  2  0  0  0  0
  5 15  1  0  0  0  0
  6  9  1  0  0  0  0
  6 12  2  0  0  0  0
  6 13  1  0  0  0  0
  7 10  1  0  0  0  0
  8 10  1  0  0  0  0
  9 10  1  0  0  0  0
  9 14  1  0  0  0  0
  1 16  1  0  0  0  0
  2 17  1  0  0  0  0
  3 18  1  0  0  0  0
  7 19  1  0  0  0  0
  7 20  1  0  0  0  0
  7 21  1  0  0  0  0
  8 22  1  0  0  0  0
  8 23  1  0  0  0  0
  8 24  1  0  0  0  0
  9 25  1  0  0  0  0
 10 26  1  0  0  0  0
 13 27  1  0  0  0  0
 14 28  1  0  0  0  0
 14 29  1  0  0  0  0
M  END
> <FRED Chemgauss4 score>
-9.728436

$$$$
C93828570	P147036134
  -OEChem-05122015313D

 49 52  0     1  0  0  0  0  0999 V2000
  124.9504  108.3581  106.9238 C   0  0  0  0  0  0  0  0  0  0  0  0
  116.9238  105.6905  102.8767 C   0  0  0  0  0  0  0  0  0  0  0  0
  116.0901  106.1652  104.0319 C   0  0  0  0  0  0  0  0  0  0  0  0
  122.2171  106.9598  108.4088 C   0  0  0  0  0  0  0  0  0  0  0  0
  124.8718  103.8295  107.1928 C   0  0  0  0  0  0  0  0  0  0  0  0
  126.2445  103.7305  107.7935 C   0  0  0  0  0  0  0  0  0  0  0  0
  123.6916  107.2066  108.7550 C   0  0  0  0  0  0  0  0  0  0  0  0
  123.4772  106.3897  106.4649 C   0  0  0  0  0  0  0  0  0  0  0  0
  118.5273  106.1370  106.2912 C   0  0  0  0  0  0  0  0  0  0  0  0
  119.7900  105.5810  104.3133 C   0  0  0  0  0  0  0  0  0  0  0  0
  119.7418  106.8810  106.8571 C   0  0  0  0  0  0  0  0  0  0  0  0
  121.0038  106.3262  104.8790 C   0  0  0  0  0  0  0  0  0  0  0  0
  117.3826  105.4426  104.2855 C   0  0  0  0  0  0  0  0  0  0  0  0
  122.1493  107.0166  106.8856 C   0  0  1  0  0  0  0  0  0  0  0  0
  125.3651  104.9041  108.1194 C   0  0  0  0  0  0  0  0  0  0  0  0
  124.4732  107.0264  107.4410 C   0  0  1  0  0  0  0  0  0  0  0  0
  118.5393  106.1560  104.8234 N   0  0  0  0  0  0  0  0  0  0  0  0
  120.9920  106.3050  106.3467 N   0  0  0  0  0  0  0  0  0  0  0  0
  125.7843  109.0233  107.7912 N   0  0  0  0  0  0  0  0  0  0  0  0
  125.6814  106.2309  107.6080 N   0  0  0  0  0  0  0  0  0  0  0  0
  124.6253  108.7834  105.8180 O   0  0  0  0  0  0  0  0  0  0  0  0
  116.5486  104.8567  102.2958 H   0  0  0  0  0  0  0  0  0  0  0  0
  117.4526  106.4375  102.2971 H   0  0  0  0  0  0  0  0  0  0  0  0
  116.0609  107.2297  104.2297 H   0  0  0  0  0  0  0  0  0  0  0  0
  115.1578  105.6482  104.2249 H   0  0  0  0  0  0  0  0  0  0  0  0
  121.9235  105.9696  108.7810 H   0  0  0  0  0  0  0  0  0  0  0  0
  121.5575  107.6956  108.8802 H   0  0  0  0  0  0  0  0  0  0  0  0
  124.8015  104.0457  106.1337 H   0  0  0  0  0  0  0  0  0  0  0  0
  124.1104  103.1536  107.5629 H   0  0  0  0  0  0  0  0  0  0  0  0
  126.4044  102.9904  108.5680 H   0  0  0  0  0  0  0  0  0  0  0  0
  127.0927  103.8817  107.1367 H   0  0  0  0  0  0  0  0  0  0  0  0
  123.8243  108.2063  109.1844 H   0  0  0  0  0  0  0  0  0  0  0  0
  124.0004  106.4898  109.5259 H   0  0  0  0  0  0  0  0  0  0  0  0
  123.4456  105.2994  106.5958 H   0  0  0  0  0  0  0  0  0  0  0  0
  123.7084  106.5960  105.4136 H   0  0  0  0  0  0  0  0  0  0  0  0
  118.5141  105.1048  106.6666 H   0  0  0  0  0  0  0  0  0  0  0  0
  117.6180  106.6272  106.6597 H   0  0  0  0  0  0  0  0  0  0  0  0
  119.8139  105.6609  103.2196 H   0  0  0  0  0  0  0  0  0  0  0  0
  119.8578  104.5132  104.5618 H   0  0  0  0  0  0  0  0  0  0  0  0
  119.6706  107.9478  106.6052 H   0  0  0  0  0  0  0  0  0  0  0  0
  119.7158  106.8011  107.9506 H   0  0  0  0  0  0  0  0  0  0  0  0
  121.9121  105.8358  104.5085 H   0  0  0  0  0  0  0  0  0  0  0  0
  121.0123  107.3578  104.5019 H   0  0  0  0  0  0  0  0  0  0  0  0
  117.3016  104.4214  104.6444 H   0  0  0  0  0  0  0  0  0  0  0  0
  122.1079  108.0595  106.5589 H   0  0  0  0  0  0  0  0  0  0  0  0
  124.9292  104.9186  109.1134 H   0  0  0  0  0  0  0  0  0  0  0  0
  126.0095  108.5886  108.6800 H   0  0  0  0  0  0  0  0  0  0  0  0
  126.1837  109.9316  107.5782 H   0  0  0  0  0  0  0  0  0  0  0  0
  126.1509  106.1401  106.7074 H   0  0  0  0  0  0  0  0  0  0  0  0
  1 16  1  0  0  0  0
  1 19  1  0  0  0  0
  1 21  2  0  0  0  0
  2  3  1  0  0  0  0
  2 13  1  0  0  0  0
  3 13  1  0  0  0  0
  4  7  1  0  0  0  0
  4 14  1  0  0  0  0
  5  6  1  0  0  0  0
  5 15  1  0  0  0  0
  6 15  1  0  0  0  0
  7 16  1  0  0  0  0
  8 14  1  0  0  0  0
  8 16  1  0  0  0  0
  9 11  1  0  0  0  0
  9 17  1  0  0  0  0
 10 12  1  0  0  0  0
 10 17  1  0  0  0  0
 11 18  1  0  0  0  0
 12 18  1  0  0  0  0
 13 17  1  0  0  0  0
 14 18  1  0  0  0  0
 15 20  1  0  0  0  0
 16 20  1  0  0  0  0
  2 22  1  0  0  0  0
  2 23  1  0  0  0  0
  3 24  1  0  0  0  0
  3 25  1  0  0  0  0
  4 26  1  0  0  0  0
  4 27  1  0  0  0  0
  5 28  1  0  0  0  0
  5 29  1  0  0  0  0
  6 30  1  0  0  0  0
  6 31  1  0  0  0  0
  7 32  1  0  0  0  0
  7 33  1  0  0  0  0
  8 34  1  0  0  0  0
  8 35  1  0  0  0  0
  9 36  1  0  0  0  0
  9 37  1  0  0  0  0
 10 38  1  0  0  0  0
 10 39  1  0  0  0  0
 11 40  1  0  0  0  0
 11 41  1  0  0  0  0
 12 42  1  0  0  0  0
 12 43  1  0  0  0  0
 13 44  1  0  0  0  0
 14 45  1  0  0  0  0
 15 46  1  0  0  0  0
 19 47  1  0  0  0  0
 19 48  1  0  0  0  0
 20 49  1  0  0  0  0
M  END
> <FRED Chemgauss4 score>
-9.728203

$$$$
C78950540	P123230102
  -OEChem-05122015313D

 35 36  0     0  0  0  0  0  0999 V2000
  125.1164  107.8484  105.9453 C   0  0  0  0  0  0  0  0  0  0  0  0
  124.3289  107.0367  106.7542 C   0  0  0  0  0  0  0  0  0  0  0  0
  120.0560  106.9708  105.7369 C   0  0  0  0  0  0  0  0  0  0  0  0
  120.9418  106.7640  106.7943 C   0  0  0  0  0  0  0  0  0  0  0  0
  118.8223  108.5552  107.0803 C   0  0  0  0  0  0  0  0  0  0  0  0
  125.3753  109.1391  106.3778 C   0  0  0  0  0  0  0  0  0  0  0  0
  118.9962  107.8664  105.8799 C   0  0  0  0  0  0  0  0  0  0  0  0
  123.8314  107.5334  107.9538 C   0  0  0  0  0  0  0  0  0  0  0  0
  120.7679  107.4529  107.9947 C   0  0  0  0  0  0  0  0  0  0  0  0
  119.7081  108.3485  108.1377 C   0  0  0  0  0  0  0  0  0  0  0  0
  124.1480  108.8381  108.2965 C   0  0  0  0  0  0  0  0  0  0  0  0
  123.6648  109.4306  109.5347 C   0  0  0  0  0  0  0  0  0  0  0  0
  118.0497  108.0864  104.7487 C   0  0  0  0  0  0  0  0  0  0  0  0
  122.9812  106.6604  108.8308 C   0  0  0  0  0  0  0  0  0  0  0  0
  124.9098  109.6567  107.5366 N   0  0  0  0  0  0  0  0  0  0  0  0
  124.0317  108.8334  110.6542 N   0  0  0  0  0  0  0  0  0  0  0  0
  122.8539  110.5690  109.5581 N   0  0  0  0  0  0  0  0  0  0  0  0
  121.6839  107.2195  109.0450 N   0  0  0  0  0  0  0  0  0  0  0  0
  123.5171  109.4779  111.7837 O   0  0  0  0  0  0  0  0  0  0  0  0
  119.4259  109.3123  109.7488 Br  0  0  0  0  0  0  0  0  0  0  0  0
  125.5148  107.4828  105.0058 H   0  0  0  0  0  0  0  0  0  0  0  0
  124.1076  106.0200  106.4412 H   0  0  0  0  0  0  0  0  0  0  0  0
  120.1989  106.4294  104.8053 H   0  0  0  0  0  0  0  0  0  0  0  0
  121.7635  106.0632  106.6697 H   0  0  0  0  0  0  0  0  0  0  0  0
  117.9926  109.2516  107.1818 H   0  0  0  0  0  0  0  0  0  0  0  0
  125.9853  109.8116  105.7836 H   0  0  0  0  0  0  0  0  0  0  0  0
  117.2113  107.3817  104.8094 H   0  0  0  0  0  0  0  0  0  0  0  0
  117.6471  109.1077  104.7587 H   0  0  0  0  0  0  0  0  0  0  0  0
  118.5483  107.9513  103.7799 H   0  0  0  0  0  0  0  0  0  0  0  0
  122.8516  105.6703  108.3805 H   0  0  0  0  0  0  0  0  0  0  0  0
  123.4483  106.5136  109.8103 H   0  0  0  0  0  0  0  0  0  0  0  0
  122.5800  111.0505  108.7093 H   0  0  0  0  0  0  0  0  0  0  0  0
  122.5447  110.9785  110.4333 H   0  0  0  0  0  0  0  0  0  0  0  0
  121.3844  107.4647  109.9685 H   0  0  0  0  0  0  0  0  0  0  0  0
  123.8720  108.9263  112.5012 H   0  0  0  0  0  0  0  0  0  0  0  0
  1  2  2  0  0  0  0
  1  6  1  0  0  0  0
  2  8  1  0  0  0  0
  3  4  2  0  0  0  0
  3  7  1  0  0  0  0
  4  9  1  0  0  0  0
  5  7  2  0  0  0  0
  5 10  1  0  0  0  0
  6 15  2  0  0  0  0
  7 13  1  0  0  0  0
  8 11  2  0  0  0  0
  8 14  1  0  0  0  0
  9 10  2  0  0  0  0
  9 18  1  0  0  0  0
 10 20  1  0  0  0  0
 11 12  1  0  0  0  0
 11 15  1  0  0  0  0
 12 16  2  0  0  0  0
 12 17  1  0  0  0  0
 14 18  1  0  0  0  0
 16 19  1  0  0  0  0
  1 21  1  0  0  0  0
  2 22  1  0  0  0  0
  3 23  1  0  0  0  0
  4 24  1  0  0  0  0
  5 25  1  0  0  0  0
  6 26  1  0  0  0  0
 13 27  1  0  0  0  0
 13 28  1  0  0  0  0
 13 29  1  0  0  0  0
 14 30  1  0  0  0  0
 14 31  1  0  0  0  0
 17 32  1  0  0  0  0
 17 33  1  0  0  0  0
 18 34  1  0  0  0  0
 19 35  1  0  0  0  0
M  END
> <FRED Chemgauss4 score>
-9.718421

$$$$
C87886071	P137463365
  -OEChem-05122015313D

 36 36  0     1  0  0  0  0  0999 V2000
  126.6094  106.8728  107.2232 C   0  0  0  0  0  0  0  0  0  0  0  0
  123.6027  105.7218  106.4216 C   0  0  0  0  0  0  0  0  0  0  0  0
  121.9175  105.8188  108.2661 C   0  0  0  0  0  0  0  0  0  0  0  0
  126.0570  105.7477  106.3673 C   0  0  0  0  0  0  0  0  0  0  0  0
  125.9974  104.3512  108.9100 C   0  0  0  0  0  0  0  0  0  0  0  0
  125.9229  105.7752  109.4394 C   0  0  0  0  0  0  0  0  0  0  0  0
  124.9312  104.0962  107.8465 C   0  0  0  0  0  0  0  0  0  0  0  0
  119.0295  104.1821  105.1600 C   0  0  0  0  0  0  0  0  0  0  0  0
  120.1133  104.1427  106.2262 C   0  0  0  0  0  0  0  0  0  0  0  0
  121.2215  105.1597  105.9353 C   0  0  0  0  0  0  0  0  0  0  0  0
  122.3414  105.1170  106.9853 C   0  0  1  0  0  0  0  0  0  0  0  0
  126.5745  106.7679  108.5929 N   0  0  0  0  0  0  0  0  0  0  0  0
  124.8134  105.1936  106.8806 N   0  0  0  0  0  0  0  0  0  0  0  0
  121.3105  105.0391  109.2143 N   0  0  0  0  0  0  0  0  0  0  0  0
  127.2230  107.7983  106.6798 O   0  0  0  0  0  0  0  0  0  0  0  0
  123.5172  106.6383  105.5998 O   0  0  0  0  0  0  0  0  0  0  0  0
  122.1799  107.4531  108.5122 S   0  0  0  0  0  0  0  0  0  0  0  0
  125.9102  106.1063  105.3263 H   0  0  0  0  0  0  0  0  0  0  0  0
  126.8303  104.9565  106.2957 H   0  0  0  0  0  0  0  0  0  0  0  0
  126.9902  104.1489  108.5028 H   0  0  0  0  0  0  0  0  0  0  0  0
  125.8242  103.6592  109.7367 H   0  0  0  0  0  0  0  0  0  0  0  0
  124.8794  106.0912  109.5997 H   0  0  0  0  0  0  0  0  0  0  0  0
  126.4287  105.8309  110.4160 H   0  0  0  0  0  0  0  0  0  0  0  0
  125.1783  103.1662  107.3186 H   0  0  0  0  0  0  0  0  0  0  0  0
  123.9466  103.9390  108.3074 H   0  0  0  0  0  0  0  0  0  0  0  0
  119.4466  103.9755  104.1692 H   0  0  0  0  0  0  0  0  0  0  0  0
  118.2637  103.4289  105.3699 H   0  0  0  0  0  0  0  0  0  0  0  0
  118.5429  105.1622  105.1307 H   0  0  0  0  0  0  0  0  0  0  0  0
  119.6622  104.3532  107.2029 H   0  0  0  0  0  0  0  0  0  0  0  0
  120.5307  103.1305  106.2719 H   0  0  0  0  0  0  0  0  0  0  0  0
  120.7824  106.1656  105.9134 H   0  0  0  0  0  0  0  0  0  0  0  0
  121.6250  104.9720  104.9319 H   0  0  0  0  0  0  0  0  0  0  0  0
  122.5834  104.0722  107.2116 H   0  0  0  0  0  0  0  0  0  0  0  0
  127.0914  107.5090  109.1054 H   0  0  0  0  0  0  0  0  0  0  0  0
  121.1436  104.0473  109.0796 H   0  0  0  0  0  0  0  0  0  0  0  0
  120.9962  105.4362  110.0935 H   0  0  0  0  0  0  0  0  0  0  0  0
  1  4  1  0  0  0  0
  1 12  1  0  0  0  0
  1 15  2  0  0  0  0
  2 11  1  0  0  0  0
  2 13  1  0  0  0  0
  2 16  2  0  0  0  0
  3 11  1  0  0  0  0
  3 14  1  0  0  0  0
  3 17  2  0  0  0  0
  4 13  1  0  0  0  0
  5  6  1  0  0  0  0
  5  7  1  0  0  0  0
  6 12  1  0  0  0  0
  7 13  1  0  0  0  0
  8  9  1  0  0  0  0
  9 10  1  0  0  0  0
 10 11  1  0  0  0  0
  4 18  1  0  0  0  0
  4 19  1  0  0  0  0
  5 20  1  0  0  0  0
  5 21  1  0  0  0  0
  6 22  1  0  0  0  0
  6 23  1  0  0  0  0
  7 24  1  0  0  0  0
  7 25  1  0  0  0  0
  8 26  1  0  0  0  0
  8 27  1  0  0  0  0
  8 28  1  0  0  0  0
  9 29  1  0  0  0  0
  9 30  1  0  0  0  0
 10 31  1  0  0  0  0
 10 32  1  0  0  0  0
 11 33  1  0  0  0  0
 12 34  1  0  0  0  0
 14 35  1  0  0  0  0
 14 36  1  0  0  0  0
M  END
> <FRED Chemgauss4 score>
-9.718035

$$$$
C79002563	P123337484
  -OEChem-05122015313D

 32 32  0     1  0  0  0  0  0999 V2000
  118.5185  105.5516  106.0195 C   0  0  0  0  0  0  0  0  0  0  0  0
  119.1725  106.5320  106.7657 C   0  0  0  0  0  0  0  0  0  0  0  0
  120.3384  104.0187  106.4385 C   0  0  0  0  0  0  0  0  0  0  0  0
  120.9924  104.9992  107.1846 C   0  0  0  0  0  0  0  0  0  0  0  0
  119.1014  104.2949  105.8560 C   0  0  0  0  0  0  0  0  0  0  0  0
  120.4094  106.2558  107.3482 C   0  0  0  0  0  0  0  0  0  0  0  0
  126.0820  106.5031  108.1958 C   0  0  0  0  0  0  0  0  0  0  0  0
  124.7301  103.2890  106.5182 C   0  0  0  0  0  0  0  0  0  0  0  0
  122.3215  104.6561  107.7929 C   0  0  0  0  0  0  0  0  0  0  0  0
  125.8663  105.4969  107.0710 C   0  0  0  0  0  0  0  0  0  0  0  0
  124.6802  104.5653  107.3571 C   0  0  1  0  0  0  0  0  0  0  0  0
  125.0211  106.8777  108.8482 N   0  0  0  0  0  0  0  0  0  0  0  0
  127.3793  106.9065  108.4099 N   0  0  0  0  0  0  0  0  0  0  0  0
  123.4250  105.2625  107.0665 N   0  0  0  0  0  0  0  0  0  0  0  0
  125.3688  107.7917  109.8472 O   0  0  0  0  0  0  0  0  0  0  0  0
  118.4736  103.3538  105.1391 F   0  0  0  0  0  0  0  0  0  0  0  0
  121.2598  107.6209  108.3534 Br  0  0  0  0  0  0  0  0  0  0  0  0
  117.5555  105.7660  105.5653 H   0  0  0  0  0  0  0  0  0  0  0  0
  118.7027  107.5052  106.8819 H   0  0  0  0  0  0  0  0  0  0  0  0
  120.7833  103.0361  106.3044 H   0  0  0  0  0  0  0  0  0  0  0  0
  124.7366  103.5245  105.4477 H   0  0  0  0  0  0  0  0  0  0  0  0
  125.6248  102.6958  106.7382 H   0  0  0  0  0  0  0  0  0  0  0  0
  123.8534  102.6607  106.7051 H   0  0  0  0  0  0  0  0  0  0  0  0
  122.3714  105.0010  108.8315 H   0  0  0  0  0  0  0  0  0  0  0  0
  122.4817  103.5729  107.8019 H   0  0  0  0  0  0  0  0  0  0  0  0
  125.6817  106.0718  106.1538 H   0  0  0  0  0  0  0  0  0  0  0  0
  126.7864  104.9223  106.9081 H   0  0  0  0  0  0  0  0  0  0  0  0
  124.6753  104.2826  108.4162 H   0  0  0  0  0  0  0  0  0  0  0  0
  128.1513  106.5521  107.8554 H   0  0  0  0  0  0  0  0  0  0  0  0
  127.6038  107.5703  109.1433 H   0  0  0  0  0  0  0  0  0  0  0  0
  123.5202  106.2368  107.3420 H   0  0  0  0  0  0  0  0  0  0  0  0
  124.5032  107.9832  110.2460 H   0  0  0  0  0  0  0  0  0  0  0  0
  1  2  2  0  0  0  0
  1  5  1  0  0  0  0
  2  6  1  0  0  0  0
  3  4  1  0  0  0  0
  3  5  2  0  0  0  0
  4  6  2  0  0  0  0
  4  9  1  0  0  0  0
  5 16  1  0  0  0  0
  6 17  1  0  0  0  0
  7 10  1  0  0  0  0
  7 12  2  0  0  0  0
  7 13  1  0  0  0  0
  8 11  1  0  0  0  0
  9 14  1  0  0  0  0
 10 11  1  0  0  0  0
 11 14  1  0  0  0  0
 12 15  1  0  0  0  0
  1 18  1  0  0  0  0
  2 19  1  0  0  0  0
  3 20  1  0  0  0  0
  8 21  1  0  0  0  0
  8 22  1  0  0  0  0
  8 23  1  0  0  0  0
  9 24  1  0  0  0  0
  9 25  1  0  0  0  0
 10 26  1  0  0  0  0
 10 27  1  0  0  0  0
 11 28  1  0  0  0  0
 13 29  1  0  0  0  0
 13 30  1  0  0  0  0
 14 31  1  0  0  0  0
 15 32  1  0  0  0  0
M  END
> <FRED Chemgauss4 score>
-9.717255

$$$$
C94924566	P148790109
  -OEChem-05122015313D

 41 42  0     1  0  0  0  0  0999 V2000
  124.2659  106.3939  105.6805 C   0  0  0  0  0  0  0  0  0  0  0  0
  125.4640  106.5081  106.3855 C   0  0  0  0  0  0  0  0  0  0  0  0
  124.2972  106.0281  108.4460 C   0  0  0  0  0  0  0  0  0  0  0  0
  123.0834  106.0969  106.3582 C   0  0  0  0  0  0  0  0  0  0  0  0
  125.4797  106.3252  107.7683 C   0  0  0  0  0  0  0  0  0  0  0  0
  123.0991  105.9140  107.7409 C   0  0  0  0  0  0  0  0  0  0  0  0
  118.2965  107.0041  106.2112 C   0  0  0  0  0  0  0  0  0  0  0  0
  118.8286  106.1576  105.2613 C   0  0  0  0  0  0  0  0  0  0  0  0
  117.6677  108.0900  104.4124 C   0  0  0  0  0  0  0  0  0  0  0  0
  121.8485  105.9845  105.5923 C   0  0  0  0  0  0  0  0  0  0  0  0
  126.7609  106.4474  108.5216 C   0  0  0  0  0  0  0  0  0  0  0  0
  118.3806  106.8294  107.6757 C   0  0  0  0  0  0  0  0  0  0  0  0
  117.0600  109.1183  103.5399 C   0  0  0  0  0  0  0  0  0  0  0  0
  118.8155  103.7967  106.1657 C   0  0  0  0  0  0  0  0  0  0  0  0
  119.6105  104.8726  105.4288 C   0  0  2  0  0  0  0  0  0  0  0  0
  117.6307  108.1129  105.7263 N   0  0  0  0  0  0  0  0  0  0  0  0
  121.8678  104.6150  109.3898 N   0  0  0  0  0  0  0  0  0  0  0  0
  121.9126  105.6125  108.4460 N   0  0  0  0  0  0  0  0  0  0  0  0
  120.8755  105.1101  106.0862 N   0  0  0  0  0  0  0  0  0  0  0  0
  121.7000  106.6302  104.5415 O   0  0  0  0  0  0  0  0  0  0  0  0
  118.4860  106.7637  103.6939 S   0  0  0  0  0  0  0  0  0  0  0  0
  124.2667  106.5387  104.6031 H   0  0  0  0  0  0  0  0  0  0  0  0
  126.3804  106.7399  105.8493 H   0  0  0  0  0  0  0  0  0  0  0  0
  124.3123  105.8860  109.5243 H   0  0  0  0  0  0  0  0  0  0  0  0
  126.9141  107.4829  108.8494 H   0  0  0  0  0  0  0  0  0  0  0  0
  126.7663  105.7979  109.4066 H   0  0  0  0  0  0  0  0  0  0  0  0
  127.6170  106.1480  107.9029 H   0  0  0  0  0  0  0  0  0  0  0  0
  119.2803  107.3189  108.0819 H   0  0  0  0  0  0  0  0  0  0  0  0
  117.5041  107.2546  108.1929 H   0  0  0  0  0  0  0  0  0  0  0  0
  118.4183  105.7651  107.9627 H   0  0  0  0  0  0  0  0  0  0  0  0
  117.7773  109.9250  103.3228 H   0  0  0  0  0  0  0  0  0  0  0  0
  116.7258  108.6956  102.5783 H   0  0  0  0  0  0  0  0  0  0  0  0
  116.1686  109.5739  104.0015 H   0  0  0  0  0  0  0  0  0  0  0  0
  118.5277  104.1352  107.1671 H   0  0  0  0  0  0  0  0  0  0  0  0
  117.9007  103.5503  105.6149 H   0  0  0  0  0  0  0  0  0  0  0  0
  119.3859  102.8673  106.2741 H   0  0  0  0  0  0  0  0  0  0  0  0
  119.8682  104.4768  104.4387 H   0  0  0  0  0  0  0  0  0  0  0  0
  121.0109  104.0820  109.2491 H   0  0  0  0  0  0  0  0  0  0  0  0
  121.7841  105.0438  110.3106 H   0  0  0  0  0  0  0  0  0  0  0  0
  121.1546  106.2769  108.4012 H   0  0  0  0  0  0  0  0  0  0  0  0
  121.0752  104.5602  106.9153 H   0  0  0  0  0  0  0  0  0  0  0  0
  1  2  2  0  0  0  0
  1  4  1  0  0  0  0
  2  5  1  0  0  0  0
  3  5  2  0  0  0  0
  3  6  1  0  0  0  0
  4  6  2  0  0  0  0
  4 10  1  0  0  0  0
  5 11  1  0  0  0  0
  6 18  1  0  0  0  0
  7  8  2  0  0  0  0
  7 12  1  0  0  0  0
  7 16  1  0  0  0  0
  8 15  1  0  0  0  0
  8 21  1  0  0  0  0
  9 13  1  0  0  0  0
  9 16  2  0  0  0  0
  9 21  1  0  0  0  0
 10 19  1  0  0  0  0
 10 20  2  0  0  0  0
 14 15  1  0  0  0  0
 15 19  1  0  0  0  0
 17 18  1  0  0  0  0
  1 22  1  0  0  0  0
  2 23  1  0  0  0  0
  3 24  1  0  0  0  0
 11 25  1  0  0  0  0
 11 26  1  0  0  0  0
 11 27  1  0  0  0  0
 12 28  1  0  0  0  0
 12 29  1  0  0  0  0
 12 30  1  0  0  0  0
 13 31  1  0  0  0  0
 13 32  1  0  0  0  0
 13 33  1  0  0  0  0
 14 34  1  0  0  0  0
 14 35  1  0  0  0  0
 14 36  1  0  0  0  0
 15 37  1  0  0  0  0
 17 38  1  0  0  0  0
 17 39  1  0  0  0  0
 18 40  1  0  0  0  0
 19 41  1  0  0  0  0
M  END
> <FRED Chemgauss4 score>
-9.711521

$$$$
C87666352	P137137147
  -OEChem-05122015313D

 31 31  0     1  0  0  0  0  0999 V2000
  123.9559  104.0024  107.7378 C   0  0  0  0  0  0  0  0  0  0  0  0
  125.0739  104.5784  108.1962 C   0  0  0  0  0  0  0  0  0  0  0  0
  124.2118  105.9646  106.6024 C   0  0  0  0  0  0  0  0  0  0  0  0
  119.6538  104.3976  106.1585 C   0  0  0  0  0  0  0  0  0  0  0  0
  120.9392  104.7361  106.8999 C   0  0  0  0  0  0  0  0  0  0  0  0
  122.1856  104.5041  106.0542 C   0  0  0  0  0  0  0  0  0  0  0  0
  126.3750  106.6637  107.7727 C   0  0  0  0  0  0  0  0  0  0  0  0
  124.8780  108.5929  108.5008 C   0  0  0  0  0  0  0  0  0  0  0  0
  126.0051  108.1344  107.5750 C   0  0  1  0  0  0  0  0  0  0  0  0
  123.3986  104.8071  106.7699 N   0  0  0  0  0  0  0  0  0  0  0  0
  125.2695  105.7707  107.5365 N   0  0  0  0  0  0  0  0  0  0  0  0
  124.2653  109.7938  107.9766 N   0  0  0  0  0  0  0  0  0  0  0  0
  124.0418  106.9025  105.8382 O   0  0  0  0  0  0  0  0  0  0  0  0
  127.1546  108.9472  107.8119 O   0  0  0  0  0  0  0  0  0  0  0  0
  123.5050  103.0677  108.0294 H   0  0  0  0  0  0  0  0  0  0  0  0
  125.7570  104.2283  108.9526 H   0  0  0  0  0  0  0  0  0  0  0  0
  119.5538  105.0015  105.2510 H   0  0  0  0  0  0  0  0  0  0  0  0
  119.6552  103.3430  105.8646 H   0  0  0  0  0  0  0  0  0  0  0  0
  118.7739  104.5697  106.7860 H   0  0  0  0  0  0  0  0  0  0  0  0
  121.0000  104.1116  107.7987 H   0  0  0  0  0  0  0  0  0  0  0  0
  120.8989  105.7802  107.2325 H   0  0  0  0  0  0  0  0  0  0  0  0
  122.2448  103.4530  105.7550 H   0  0  0  0  0  0  0  0  0  0  0  0
  122.1698  105.1163  105.1470 H   0  0  0  0  0  0  0  0  0  0  0  0
  127.1833  106.3709  107.0953 H   0  0  0  0  0  0  0  0  0  0  0  0
  126.7029  106.4859  108.8020 H   0  0  0  0  0  0  0  0  0  0  0  0
  125.2565  108.8125  109.5044 H   0  0  0  0  0  0  0  0  0  0  0  0
  124.1092  107.8175  108.5815 H   0  0  0  0  0  0  0  0  0  0  0  0
  125.7112  108.2856  106.5290 H   0  0  0  0  0  0  0  0  0  0  0  0
  124.8505  110.4863  107.5465 H   0  0  0  0  0  0  0  0  0  0  0  0
  123.3170  110.0024  108.2307 H   0  0  0  0  0  0  0  0  0  0  0  0
  127.8245  108.6676  107.1699 H   0  0  0  0  0  0  0  0  0  0  0  0
  1  2  2  0  0  0  0
  1 10  1  0  0  0  0
  2 11  1  0  0  0  0
  3 10  1  0  0  0  0
  3 11  1  0  0  0  0
  3 13  2  0  0  0  0
  4  5  1  0  0  0  0
  5  6  1  0  0  0  0
  6 10  1  0  0  0  0
  7  9  1  0  0  0  0
  7 11  1  0  0  0  0
  8  9  1  0  0  0  0
  8 12  1  0  0  0  0
  9 14  1  0  0  0  0
  1 15  1  0  0  0  0
  2 16  1  0  0  0  0
  4 17  1  0  0  0  0
  4 18  1  0  0  0  0
  4 19  1  0  0  0  0
  5 20  1  0  0  0  0
  5 21  1  0  0  0  0
  6 22  1  0  0  0  0
  6 23  1  0  0  0  0
  7 24  1  0  0  0  0
  7 25  1  0  0  0  0
  8 26  1  0  0  0  0
  8 27  1  0  0  0  0
  9 28  1  0  0  0  0
 12 29  1  0  0  0  0
 12 30  1  0  0  0  0
 14 31  1  0  0  0  0
M  END
> <FRED Chemgauss4 score>
-9.708864

$$$$
C97747319	P155077223
  -OEChem-05122015313D

 42 44  0     1  0  0  0  0  0999 V2000
  126.3556  104.2794  108.7417 C   0  0  0  0  0  0  0  0  0  0  0  0
  125.6636  103.6681  107.7002 C   0  0  0  0  0  0  0  0  0  0  0  0
  126.2239  105.6502  108.9525 C   0  0  0  0  0  0  0  0  0  0  0  0
  124.8289  104.4239  106.8751 C   0  0  0  0  0  0  0  0  0  0  0  0
  125.3976  106.4184  108.1208 C   0  0  0  0  0  0  0  0  0  0  0  0
  124.6655  105.8010  107.0881 C   0  0  0  0  0  0  0  0  0  0  0  0
  125.2571  107.8971  108.3665 C   0  0  0  0  0  0  0  0  0  0  0  0
  124.7405  108.5993  107.1208 C   0  0  0  0  0  0  0  0  0  0  0  0
  118.3450  104.2715  105.1427 C   0  0  0  0  0  0  0  0  0  0  0  0
  118.2762  105.3432  106.2173 C   0  0  0  0  0  0  0  0  0  0  0  0
  120.5191  103.7068  105.8412 C   0  0  0  0  0  0  0  0  0  0  0  0
  123.7800  106.6386  106.1808 C   0  0  1  0  0  0  0  0  0  0  0  0
  120.4533  104.7798  106.9250 C   0  0  1  0  0  0  0  0  0  0  0  0
  122.3994  106.0280  105.9460 C   0  0  0  0  0  0  0  0  0  0  0  0
  121.8246  105.3726  107.2063 C   0  0  1  0  0  0  0  0  0  0  0  0
  121.6952  105.5943  109.5301 N   0  0  0  0  0  0  0  0  0  0  0  0
  121.7341  106.3172  108.2950 N   0  0  0  0  0  0  0  0  0  0  0  0
  119.2038  103.2130  105.5729 O   0  0  0  0  0  0  0  0  0  0  0  0
  123.5391  107.9576  106.7023 O   0  0  0  0  0  0  0  0  0  0  0  0
  119.5893  105.8377  106.4900 O   0  0  0  0  0  0  0  0  0  0  0  0
  127.0017  103.6900  109.3855 H   0  0  0  0  0  0  0  0  0  0  0  0
  125.7748  102.6016  107.5271 H   0  0  0  0  0  0  0  0  0  0  0  0
  126.7721  106.1188  109.7658 H   0  0  0  0  0  0  0  0  0  0  0  0
  124.3129  103.9223  106.0610 H   0  0  0  0  0  0  0  0  0  0  0  0
  124.5458  108.0329  109.1904 H   0  0  0  0  0  0  0  0  0  0  0  0
  126.2175  108.3349  108.6600 H   0  0  0  0  0  0  0  0  0  0  0  0
  124.5068  109.6439  107.3497 H   0  0  0  0  0  0  0  0  0  0  0  0
  125.4739  108.5914  106.3051 H   0  0  0  0  0  0  0  0  0  0  0  0
  117.3524  103.8518  104.9549 H   0  0  0  0  0  0  0  0  0  0  0  0
  118.7310  104.6780  104.2007 H   0  0  0  0  0  0  0  0  0  0  0  0
  117.6575  106.1816  105.8840 H   0  0  0  0  0  0  0  0  0  0  0  0
  117.8488  104.9474  107.1459 H   0  0  0  0  0  0  0  0  0  0  0  0
  120.9413  104.0992  104.9082 H   0  0  0  0  0  0  0  0  0  0  0  0
  121.1362  102.8632  106.1660 H   0  0  0  0  0  0  0  0  0  0  0  0
  124.2875  106.7537  105.2144 H   0  0  0  0  0  0  0  0  0  0  0  0
  120.0389  104.3599  107.8507 H   0  0  0  0  0  0  0  0  0  0  0  0
  121.7285  106.8244  105.6058 H   0  0  0  0  0  0  0  0  0  0  0  0
  122.4731  105.2962  105.1338 H   0  0  0  0  0  0  0  0  0  0  0  0
  122.4932  104.5715  107.5421 H   0  0  0  0  0  0  0  0  0  0  0  0
  121.7819  104.5964  109.3394 H   0  0  0  0  0  0  0  0  0  0  0  0
  122.5098  105.8424  110.0903 H   0  0  0  0  0  0  0  0  0  0  0  0
  120.8765  106.8697  108.2124 H   0  0  0  0  0  0  0  0  0  0  0  0
  1  2  1  0  0  0  0
  1  3  2  0  0  0  0
  2  4  2  0  0  0  0
  3  5  1  0  0  0  0
  4  6  1  0  0  0  0
  5  6  2  0  0  0  0
  5  7  1  0  0  0  0
  6 12  1  0  0  0  0
  7  8  1  0  0  0  0
  8 19  1  0  0  0  0
  9 10  1  0  0  0  0
  9 18  1  0  0  0  0
 10 20  1  0  0  0  0
 11 13  1  0  0  0  0
 11 18  1  0  0  0  0
 12 14  1  0  0  0  0
 12 19  1  0  0  0  0
 13 15  1  0  0  0  0
 13 20  1  0  0  0  0
 14 15  1  0  0  0  0
 15 17  1  0  0  0  0
 16 17  1  0  0  0  0
  1 21  1  0  0  0  0
  2 22  1  0  0  0  0
  3 23  1  0  0  0  0
  4 24  1  0  0  0  0
  7 25  1  0  0  0  0
  7 26  1  0  0  0  0
  8 27  1  0  0  0  0
  8 28  1  0  0  0  0
  9 29  1  0  0  0  0
  9 30  1  0  0  0  0
 10 31  1  0  0  0  0
 10 32  1  0  0  0  0
 11 33  1  0  0  0  0
 11 34  1  0  0  0  0
 12 35  1  0  0  0  0
 13 36  1  0  0  0  0
 14 37  1  0  0  0  0
 14 38  1  0  0  0  0
 15 39  1  0  0  0  0
 16 40  1  0  0  0  0
 16 41  1  0  0  0  0
 17 42  1  0  0  0  0
M  END
> <FRED Chemgauss4 score>
-9.705445

$$$$
C37487654	P55750519
  -OEChem-05122015313D

 32 32  0     0  0  0  0  0  0999 V2000
  125.7295  107.4300  107.1577 C   0  0  0  0  0  0  0  0  0  0  0  0
  126.0305  106.3502  107.9214 C   0  0  0  0  0  0  0  0  0  0  0  0
  124.6083  107.3595  106.1761 C   0  0  0  0  0  0  0  0  0  0  0  0
  124.2192  105.0265  106.8845 C   0  0  0  0  0  0  0  0  0  0  0  0
  123.5730  110.0902  110.9215 C   0  0  0  0  0  0  0  0  0  0  0  0
  123.1955  111.3281  111.6654 C   0  0  0  0  0  0  0  0  0  0  0  0
  125.6388  104.0192  108.6274 C   0  0  0  0  0  0  0  0  0  0  0  0
  125.9280  109.6764  108.0750 C   0  0  0  0  0  0  0  0  0  0  0  0
  124.6878  109.2730  108.8546 C   0  0  0  0  0  0  0  0  0  0  0  0
  123.9452  106.1540  106.1232 N   0  0  0  0  0  0  0  0  0  0  0  0
  125.2850  105.1645  107.7862 N   0  0  0  0  0  0  0  0  0  0  0  0
  127.0714  106.4356  108.8257 N   0  0  0  0  0  0  0  0  0  0  0  0
  126.3722  108.6386  107.1894 N   0  0  0  0  0  0  0  0  0  0  0  0
  124.2339  110.3231  109.7258 N   0  0  0  0  0  0  0  0  0  0  0  0
  124.3086  108.3204  105.4703 O   0  0  0  0  0  0  0  0  0  0  0  0
  123.5486  104.0002  106.7458 O   0  0  0  0  0  0  0  0  0  0  0  0
  123.2908  108.9938  111.3904 O   0  0  0  0  0  0  0  0  0  0  0  0
  122.1962  111.6986  111.3856 H   0  0  0  0  0  0  0  0  0  0  0  0
  123.1519  111.1672  112.7546 H   0  0  0  0  0  0  0  0  0  0  0  0
  123.8722  112.1863  111.5264 H   0  0  0  0  0  0  0  0  0  0  0  0
  125.0770  104.0535  109.5644 H   0  0  0  0  0  0  0  0  0  0  0  0
  126.7077  104.0349  108.8572 H   0  0  0  0  0  0  0  0  0  0  0  0
  125.4051  103.0843  108.1109 H   0  0  0  0  0  0  0  0  0  0  0  0
  126.7609  109.9138  108.7444 H   0  0  0  0  0  0  0  0  0  0  0  0
  125.7151  110.5553  107.4584 H   0  0  0  0  0  0  0  0  0  0  0  0
  123.8658  109.0471  108.1684 H   0  0  0  0  0  0  0  0  0  0  0  0
  124.8756  108.3899  109.4738 H   0  0  0  0  0  0  0  0  0  0  0  0
  123.1773  106.0820  105.4616 H   0  0  0  0  0  0  0  0  0  0  0  0
  127.5627  107.2916  108.8818 H   0  0  0  0  0  0  0  0  0  0  0  0
  127.2732  105.6366  109.3718 H   0  0  0  0  0  0  0  0  0  0  0  0
  127.1434  108.7471  106.5783 H   0  0  0  0  0  0  0  0  0  0  0  0
  124.4073  111.2885  109.4497 H   0  0  0  0  0  0  0  0  0  0  0  0
  1  2  2  0  0  0  0
  1  3  1  0  0  0  0
  1 13  1  0  0  0  0
  2 11  1  0  0  0  0
  2 12  1  0  0  0  0
  3 10  1  0  0  0  0
  3 15  2  0  0  0  0
  4 10  1  0  0  0  0
  4 11  1  0  0  0  0
  4 16  2  0  0  0  0
  5  6  1  0  0  0  0
  5 14  1  0  0  0  0
  5 17  2  0  0  0  0
  7 11  1  0  0  0  0
  8  9  1  0  0  0  0
  8 13  1  0  0  0  0
  9 14  1  0  0  0  0
  6 18  1  0  0  0  0
  6 19  1  0  0  0  0
  6 20  1  0  0  0  0
  7 21  1  0  0  0  0
  7 22  1  0  0  0  0
  7 23  1  0  0  0  0
  8 24  1  0  0  0  0
  8 25  1  0  0  0  0
  9 26  1  0  0  0  0
  9 27  1  0  0  0  0
 10 28  1  0  0  0  0
 12 29  1  0  0  0  0
 12 30  1  0  0  0  0
 13 31  1  0  0  0  0
 14 32  1  0  0  0  0
M  END
> <FRED Chemgauss4 score>
-9.704712

$$$$
C89086820	P139339947
  -OEChem-05122015313D

 44 45  0     1  0  0  0  0  0999 V2000
  123.8328  109.0487  109.2386 C   0  0  0  0  0  0  0  0  0  0  0  0
  121.9834  106.8881  106.0837 C   0  0  0  0  0  0  0  0  0  0  0  0
  118.0146  103.6710  105.1015 C   0  0  0  0  0  0  0  0  0  0  0  0
  119.0758  103.3992  106.1379 C   0  0  0  0  0  0  0  0  0  0  0  0
  126.2094  106.9727  106.5032 C   0  0  0  0  0  0  0  0  0  0  0  0
  124.7829  107.3232  106.0790 C   0  0  0  0  0  0  0  0  0  0  0  0
  126.0438  108.4713  108.3601 C   0  0  0  0  0  0  0  0  0  0  0  0
  118.7891  104.4460  104.0564 C   0  0  0  0  0  0  0  0  0  0  0  0
  124.5997  108.8201  107.9713 C   0  0  1  0  0  0  0  0  0  0  0  0
  119.8674  104.6952  106.1076 C   0  0  1  0  0  0  0  0  0  0  0  0
  123.2006  110.7924  110.8947 C   0  0  0  0  0  0  0  0  0  0  0  0
  122.6122  108.0750  106.7677 C   0  0  0  0  0  0  0  0  0  0  0  0
  121.3073  104.5355  106.5553 C   0  0  0  0  0  0  0  0  0  0  0  0
  126.8471  108.0910  107.1979 N   0  0  0  0  0  0  0  0  0  0  0  0
  123.9574  107.7195  107.2326 N   0  0  1  0  0  0  0  0  0  0  0  0
  123.8727  110.3532  109.6929 N   0  0  0  0  0  0  0  0  0  0  0  0
  121.8761  105.8057  106.9451 N   0  0  0  0  0  0  0  0  0  0  0  0
  123.2456  108.1118  109.7669 O   0  0  0  0  0  0  0  0  0  0  0  0
  121.6169  106.8995  104.9115 O   0  0  0  0  0  0  0  0  0  0  0  0
  119.8276  105.1571  104.7467 O   0  0  0  0  0  0  0  0  0  0  0  0
  117.5461  102.7675  104.7029 H   0  0  0  0  0  0  0  0  0  0  0  0
  117.2287  104.3038  105.5306 H   0  0  0  0  0  0  0  0  0  0  0  0
  118.6690  103.1723  107.1272 H   0  0  0  0  0  0  0  0  0  0  0  0
  119.6942  102.5519  105.8174 H   0  0  0  0  0  0  0  0  0  0  0  0
  126.2100  106.0805  107.1423 H   0  0  0  0  0  0  0  0  0  0  0  0
  126.7992  106.7284  105.6128 H   0  0  0  0  0  0  0  0  0  0  0  0
  124.8127  108.1264  105.3298 H   0  0  0  0  0  0  0  0  0  0  0  0
  124.3424  106.4426  105.5957 H   0  0  0  0  0  0  0  0  0  0  0  0
  126.5110  109.3404  108.8390 H   0  0  0  0  0  0  0  0  0  0  0  0
  126.0664  107.6633  109.1043 H   0  0  0  0  0  0  0  0  0  0  0  0
  119.2683  103.7722  103.3383 H   0  0  0  0  0  0  0  0  0  0  0  0
  118.1610  105.1525  103.5066 H   0  0  0  0  0  0  0  0  0  0  0  0
  124.5868  109.7478  107.3845 H   0  0  0  0  0  0  0  0  0  0  0  0
  119.3812  105.4562  106.7260 H   0  0  0  0  0  0  0  0  0  0  0  0
  122.1860  111.1235  110.6581 H   0  0  0  0  0  0  0  0  0  0  0  0
  123.7451  111.6243  111.3497 H   0  0  0  0  0  0  0  0  0  0  0  0
  123.1442  109.9736  111.6170 H   0  0  0  0  0  0  0  0  0  0  0  0
  122.6832  108.9104  106.0649 H   0  0  0  0  0  0  0  0  0  0  0  0
  122.0032  108.3742  107.6257 H   0  0  0  0  0  0  0  0  0  0  0  0
  121.9188  104.1312  105.7430 H   0  0  0  0  0  0  0  0  0  0  0  0
  121.3740  103.8626  107.4152 H   0  0  0  0  0  0  0  0  0  0  0  0
  127.7794  107.8150  107.5041 H   0  0  0  0  0  0  0  0  0  0  0  0
  124.3996  111.0359  109.1565 H   0  0  0  0  0  0  0  0  0  0  0  0
  122.2141  105.9112  107.8973 H   0  0  0  0  0  0  0  0  0  0  0  0
  1  9  1  0  0  0  0
  1 16  1  0  0  0  0
  1 18  2  0  0  0  0
  2 12  1  0  0  0  0
  2 17  1  0  0  0  0
  2 19  2  0  0  0  0
  3  4  1  0  0  0  0
  3  8  1  0  0  0  0
  4 10  1  0  0  0  0
  5  6  1  0  0  0  0
  5 14  1  0  0  0  0
  6 15  1  0  0  0  0
  7  9  1  0  0  0  0
  7 14  1  0  0  0  0
  8 20  1  0  0  0  0
  9 15  1  0  0  0  0
 10 13  1  0  0  0  0
 10 20  1  0  0  0  0
 11 16  1  0  0  0  0
 12 15  1  0  0  0  0
 13 17  1  0  0  0  0
  3 21  1  0  0  0  0
  3 22  1  0  0  0  0
  4 23  1  0  0  0  0
  4 24  1  0  0  0  0
  5 25  1  0  0  0  0
  5 26  1  0  0  0  0
  6 27  1  0  0  0  0
  6 28  1  0  0  0  0
  7 29  1  0  0  0  0
  7 30  1  0  0  0  0
  8 31  1  0  0  0  0
  8 32  1  0  0  0  0
  9 33  1  0  0  0  0
 10 34  1  0  0  0  0
 11 35  1  0  0  0  0
 11 36  1  0  0  0  0
 11 37  1  0  0  0  0
 12 38  1  0  0  0  0
 12 39  1  0  0  0  0
 13 40  1  0  0  0  0
 13 41  1  0  0  0  0
 14 42  1  0  0  0  0
 16 43  1  0  0  0  0
 17 44  1  0  0  0  0
M  END
> <FRED Chemgauss4 score>
-9.704213

$$$$
C06184878	P09576514
  -OEChem-05122015313D

 35 35  0     1  0  0  0  0  0999 V2000
  124.6581  107.6401  106.4750 C   0  0  1  0  0  0  0  0  0  0  0  0
  125.8647  106.7974  106.9041 C   0  0  2  0  0  0  0  0  0  0  0  0
  124.3577  108.7524  107.4816 C   0  0  1  0  0  0  0  0  0  0  0  0
  125.6773  106.3219  108.3530 C   0  0  1  0  0  0  0  0  0  0  0  0
  124.2407  108.1533  108.8849 C   0  0  1  0  0  0  0  0  0  0  0  0
  126.8913  105.5798  108.8990 C   0  0  0  0  0  0  0  0  0  0  0  0
  122.4340  110.6714  111.7720 C   0  0  0  0  0  0  0  0  0  0  0  0
  123.8901  108.7167  111.1394 C   0  0  0  0  0  0  0  0  0  0  0  0
  123.6906  109.8783  112.1062 C   0  0  2  0  0  0  0  0  0  0  0  0
  125.4324  107.4379  109.2219 O   0  0  0  0  0  0  0  0  0  0  0  0
  124.8744  108.1746  105.1749 O   0  0  0  0  0  0  0  0  0  0  0  0
  127.0526  107.5805  106.7873 O   0  0  0  0  0  0  0  0  0  0  0  0
  125.4130  109.7155  107.4623 O   0  0  0  0  0  0  0  0  0  0  0  0
  128.0103  106.4469  108.8519 O   0  0  0  0  0  0  0  0  0  0  0  0
  121.3091  109.8005  111.8288 O   0  0  0  0  0  0  0  0  0  0  0  0
  123.5432  109.3549  113.4282 O   0  0  0  0  0  0  0  0  0  0  0  0
  124.0086  109.2089  109.8127 O   0  0  0  0  0  0  0  0  0  0  0  0
  123.7838  106.9797  106.4112 H   0  0  0  0  0  0  0  0  0  0  0  0
  125.9778  105.9460  106.2229 H   0  0  0  0  0  0  0  0  0  0  0  0
  123.4445  109.2904  107.2038 H   0  0  0  0  0  0  0  0  0  0  0  0
  124.8123  105.6481  108.4076 H   0  0  0  0  0  0  0  0  0  0  0  0
  123.3833  107.4706  108.9349 H   0  0  0  0  0  0  0  0  0  0  0  0
  127.0946  104.6976  108.2909 H   0  0  0  0  0  0  0  0  0  0  0  0
  126.7125  105.2798  109.9321 H   0  0  0  0  0  0  0  0  0  0  0  0
  122.4854  111.0888  110.7609 H   0  0  0  0  0  0  0  0  0  0  0  0
  122.2741  111.4788  112.4934 H   0  0  0  0  0  0  0  0  0  0  0  0
  123.0470  108.0194  111.1679 H   0  0  0  0  0  0  0  0  0  0  0  0
  124.8099  108.1683  111.3661 H   0  0  0  0  0  0  0  0  0  0  0  0
  124.5678  110.5349  112.1229 H   0  0  0  0  0  0  0  0  0  0  0  0
  124.9916  107.4182  104.5780 H   0  0  0  0  0  0  0  0  0  0  0  0
  127.7848  107.0107  107.0673 H   0  0  0  0  0  0  0  0  0  0  0  0
  125.4463  110.0654  106.5596 H   0  0  0  0  0  0  0  0  0  0  0  0
  128.7694  105.9520  109.2043 H   0  0  0  0  0  0  0  0  0  0  0  0
  120.5309  110.3376  111.6115 H   0  0  0  0  0  0  0  0  0  0  0  0
  122.7569  108.7896  113.4108 H   0  0  0  0  0  0  0  0  0  0  0  0
  1  2  1  0  0  0  0
  1  3  1  0  0  0  0
  1 11  1  0  0  0  0
  2  4  1  0  0  0  0
  2 12  1  0  0  0  0
  3  5  1  0  0  0  0
  3 13  1  0  0  0  0
  4  6  1  0  0  0  0
  4 10  1  0  0  0  0
  5 10  1  0  0  0  0
  5 17  1  0  0  0  0
  6 14  1  0  0  0  0
  7  9  1  0  0  0  0
  7 15  1  0  0  0  0
  8  9  1  0  0  0  0
  8 17  1  0  0  0  0
  9 16  1  0  0  0  0
  1 18  1  0  0  0  0
  2 19  1  0  0  0  0
  3 20  1  0  0  0  0
  4 21  1  0  0  0  0
  5 22  1  0  0  0  0
  6 23  1  0  0  0  0
  6 24  1  0  0  0  0
  7 25  1  0  0  0  0
  7 26  1  0  0  0  0
  8 27  1  0  0  0  0
  8 28  1  0  0  0  0
  9 29  1  0  0  0  0
 11 30  1  0  0  0  0
 12 31  1  0  0  0  0
 13 32  1  0  0  0  0
 14 33  1  0  0  0  0
 15 34  1  0  0  0  0
 16 35  1  0  0  0  0
M  END
> <FRED Chemgauss4 score>
-9.702686

$$$$
C77727057	P121295132
  -OEChem-05122015313D

 33 34  0     0  0  0  0  0  0999 V2000
  124.0694  106.4394  108.4237 C   0  0  0  0  0  0  0  0  0  0  0  0
  117.7701  104.0459  106.0097 C   0  0  0  0  0  0  0  0  0  0  0  0
  126.0516  107.6531  108.4235 C   0  0  0  0  0  0  0  0  0  0  0  0
  124.7380  107.6277  108.8374 C   0  0  0  0  0  0  0  0  0  0  0  0
  116.5104  104.3985  105.4896 C   0  0  0  0  0  0  0  0  0  0  0  0
  124.8975  105.6020  107.7090 C   0  0  0  0  0  0  0  0  0  0  0  0
  118.6343  104.9672  105.4703 C   0  0  0  0  0  0  0  0  0  0  0  0
  120.8724  104.3454  106.3918 C   0  0  0  0  0  0  0  0  0  0  0  0
  122.2942  104.8140  106.3116 C   0  0  0  0  0  0  0  0  0  0  0  0
  115.2190  103.7373  105.7424 C   0  0  0  0  0  0  0  0  0  0  0  0
  118.3193  106.9127  103.9086 C   0  0  0  0  0  0  0  0  0  0  0  0
  124.5781  104.2661  107.1026 C   0  0  0  0  0  0  0  0  0  0  0  0
  116.5649  105.4610  104.6821 N   0  0  0  0  0  0  0  0  0  0  0  0
  117.8694  105.7840  104.6907 N   0  0  0  0  0  0  0  0  0  0  0  0
  120.0310  105.1238  105.6256 N   0  0  0  0  0  0  0  0  0  0  0  0
  123.1553  104.0266  107.0416 N   0  0  0  0  0  0  0  0  0  0  0  0
  120.6559  103.3652  107.0847 O   0  0  0  0  0  0  0  0  0  0  0  0
  122.5361  105.7932  105.6243 O   0  0  0  0  0  0  0  0  0  0  0  0
  126.4741  106.2486  107.5396 S   0  0  0  0  0  0  0  0  0  0  0  0
  123.8833  108.9765  109.8338 Br  0  0  0  0  0  0  0  0  0  0  0  0
  123.0333  106.2055  108.6368 H   0  0  0  0  0  0  0  0  0  0  0  0
  118.0163  103.2363  106.6819 H   0  0  0  0  0  0  0  0  0  0  0  0
  126.7887  108.4256  108.5944 H   0  0  0  0  0  0  0  0  0  0  0  0
  114.7084  104.1763  106.6167 H   0  0  0  0  0  0  0  0  0  0  0  0
  114.5325  103.8194  104.8808 H   0  0  0  0  0  0  0  0  0  0  0  0
  115.3347  102.6554  105.9338 H   0  0  0  0  0  0  0  0  0  0  0  0
  118.5838  106.5488  102.9123 H   0  0  0  0  0  0  0  0  0  0  0  0
  117.5179  107.6540  103.8446 H   0  0  0  0  0  0  0  0  0  0  0  0
  119.1881  107.3657  104.3944 H   0  0  0  0  0  0  0  0  0  0  0  0
  124.9753  104.1997  106.0839 H   0  0  0  0  0  0  0  0  0  0  0  0
  125.0299  103.4537  107.6815 H   0  0  0  0  0  0  0  0  0  0  0  0
  120.4613  105.8935  105.1173 H   0  0  0  0  0  0  0  0  0  0  0  0
  122.7854  103.2386  107.5654 H   0  0  0  0  0  0  0  0  0  0  0  0
  1  4  1  0  0  0  0
  1  6  2  0  0  0  0
  2  5  1  0  0  0  0
  2  7  2  0  0  0  0
  3  4  2  0  0  0  0
  3 19  1  0  0  0  0
  4 20  1  0  0  0  0
  5 10  1  0  0  0  0
  5 13  2  0  0  0  0
  6 12  1  0  0  0  0
  6 19  1  0  0  0  0
  7 14  1  0  0  0  0
  7 15  1  0  0  0  0
  8  9  1  0  0  0  0
  8 15  1  0  0  0  0
  8 17  2  0  0  0  0
  9 16  1  0  0  0  0
  9 18  2  0  0  0  0
 11 14  1  0  0  0  0
 12 16  1  0  0  0  0
 13 14  1  0  0  0  0
  1 21  1  0  0  0  0
  2 22  1  0  0  0  0
  3 23  1  0  0  0  0
 10 24  1  0  0  0  0
 10 25  1  0  0  0  0
 10 26  1  0  0  0  0
 11 27  1  0  0  0  0
 11 28  1  0  0  0  0
 11 29  1  0  0  0  0
 12 30  1  0  0  0  0
 12 31  1  0  0  0  0
 15 32  1  0  0  0  0
 16 33  1  0  0  0  0
M  END
> <FRED Chemgauss4 score>
-9.700918

$$$$
C61594745	P94307894
  -OEChem-05122015313D

 31 32  0     1  0  0  0  0  0999 V2000
  124.4618  108.4706  108.7591 C   0  0  0  0  0  0  0  0  0  0  0  0
  126.0300  107.9177  107.3577 C   0  0  0  0  0  0  0  0  0  0  0  0
  124.6766  105.1518  106.9393 C   0  0  0  0  0  0  0  0  0  0  0  0
  125.6198  104.9224  108.0825 C   0  0  0  0  0  0  0  0  0  0  0  0
  124.6026  106.0278  108.1599 C   0  0  0  0  0  0  0  0  0  0  0  0
  121.5946  111.3635  110.5663 C   0  0  0  0  0  0  0  0  0  0  0  0
  123.0812  111.0397  110.3696 C   0  0  2  0  0  0  0  0  0  0  0  0
  123.5017  109.6776  110.9788 C   0  0  1  0  0  0  0  0  0  0  0  0
  122.8292  109.3767  112.3178 C   0  0  0  0  0  0  0  0  0  0  0  0
  125.0359  109.6092  108.5111 N   0  0  0  0  0  0  0  0  0  0  0  0
  126.0281  109.2928  107.6312 N   0  0  0  0  0  0  0  0  0  0  0  0
  124.9927  107.4011  108.1100 N   0  0  0  0  0  0  0  0  0  0  0  0
  123.8585  112.1287  110.9743 N   0  0  0  0  0  0  0  0  0  0  0  0
  126.7966  107.3285  106.6096 O   0  0  0  0  0  0  0  0  0  0  0  0
  123.1523  110.2895  113.2599 F   0  0  0  0  0  0  0  0  0  0  0  0
  121.4808  109.3616  112.2020 F   0  0  0  0  0  0  0  0  0  0  0  0
  123.1876  108.1610  112.7892 F   0  0  0  0  0  0  0  0  0  0  0  0
  123.1123  108.2934  109.8352 S   0  0  0  0  0  0  0  0  0  0  0  0
  125.0836  105.5707  106.0271 H   0  0  0  0  0  0  0  0  0  0  0  0
  123.8828  104.4307  106.7874 H   0  0  0  0  0  0  0  0  0  0  0  0
  125.4609  104.0471  108.7001 H   0  0  0  0  0  0  0  0  0  0  0  0
  126.6600  105.1871  107.9377 H   0  0  0  0  0  0  0  0  0  0  0  0
  123.7594  105.8670  108.8230 H   0  0  0  0  0  0  0  0  0  0  0  0
  121.3184  111.3757  111.6248 H   0  0  0  0  0  0  0  0  0  0  0  0
  120.9556  110.6345  110.0552 H   0  0  0  0  0  0  0  0  0  0  0  0
  121.3535  112.3570  110.1700 H   0  0  0  0  0  0  0  0  0  0  0  0
  123.2991  111.0413  109.2943 H   0  0  0  0  0  0  0  0  0  0  0  0
  124.5882  109.6641  111.1269 H   0  0  0  0  0  0  0  0  0  0  0  0
  126.6432  110.0091  107.2668 H   0  0  0  0  0  0  0  0  0  0  0  0
  123.4751  113.0443  110.9379 H   0  0  0  0  0  0  0  0  0  0  0  0
  124.8067  111.9449  111.2060 H   0  0  0  0  0  0  0  0  0  0  0  0
  1 10  2  0  0  0  0
  1 12  1  0  0  0  0
  1 18  1  0  0  0  0
  2 11  1  0  0  0  0
  2 12  1  0  0  0  0
  2 14  2  0  0  0  0
  3  4  1  0  0  0  0
  3  5  1  0  0  0  0
  4  5  1  0  0  0  0
  5 12  1  0  0  0  0
  6  7  1  0  0  0  0
  7  8  1  0  0  0  0
  7 13  1  0  0  0  0
  8  9  1  0  0  0  0
  8 18  1  0  0  0  0
  9 15  1  0  0  0  0
  9 16  1  0  0  0  0
  9 17  1  0  0  0  0
 10 11  1  0  0  0  0
  3 19  1  0  0  0  0
  3 20  1  0  0  0  0
  4 21  1  0  0  0  0
  4 22  1  0  0  0  0
  5 23  1  0  0  0  0
  6 24  1  0  0  0  0
  6 25  1  0  0  0  0
  6 26  1  0  0  0  0
  7 27  1  0  0  0  0
  8 28  1  0  0  0  0
 11 29  1  0  0  0  0
 13 30  1  0  0  0  0
 13 31  1  0  0  0  0
M  END
> <FRED Chemgauss4 score>
-9.695513

$$$$
C87344280	P136645279
  -OEChem-05122015313D

 23 24  0     1  0  0  0  0  0999 V2000
  120.1045  105.1505  104.1708 C   0  0  0  0  0  0  0  0  0  0  0  0
  120.0218  104.4416  105.3460 C   0  0  0  0  0  0  0  0  0  0  0  0
  122.7609  106.7532  105.9310 C   0  0  0  0  0  0  0  0  0  0  0  0
  121.6326  105.9436  105.4225 C   0  0  0  0  0  0  0  0  0  0  0  0
  124.2772  107.5312  107.1932 C   0  0  0  0  0  0  0  0  0  0  0  0
  125.4269  106.4832  109.1864 C   0  0  0  0  0  0  0  0  0  0  0  0
  125.1793  107.7583  108.3842 C   0  0  1  0  0  0  0  0  0  0  0  0
  123.3757  107.7216  105.2241 N   0  5  0  0  0  0  0  0  0  0  0  0
  121.1094  106.0837  104.2247 N   0  0  0  0  0  0  0  0  0  0  0  0
  123.2992  106.6165  107.1502 N   0  0  0  0  0  0  0  0  0  0  0  0
  124.3576  108.2247  106.0406 N   0  0  0  0  0  0  0  0  0  0  0  0
  121.0071  104.9605  106.1378 N   0  0  0  0  0  0  0  0  0  0  0  0
  126.5064  108.3318  108.0020 N   0  3  0  0  0  0  0  0  0  0  0  0
  119.4917  105.0361  103.2890 H   0  0  0  0  0  0  0  0  0  0  0  0
  119.3758  103.6432  105.6806 H   0  0  0  0  0  0  0  0  0  0  0  0
  125.8723  105.6914  108.5737 H   0  0  0  0  0  0  0  0  0  0  0  0
  126.1058  106.6758  110.0246 H   0  0  0  0  0  0  0  0  0  0  0  0
  124.4890  106.0954  109.5995 H   0  0  0  0  0  0  0  0  0  0  0  0
  124.7352  108.5086  109.0489 H   0  0  0  0  0  0  0  0  0  0  0  0
  121.2301  104.6690  107.0804 H   0  0  0  0  0  0  0  0  0  0  0  0
  126.6075  109.2754  108.3796 H   0  0  0  0  0  0  0  0  0  0  0  0
  126.5935  108.3768  106.9852 H   0  0  0  0  0  0  0  0  0  0  0  0
  127.2628  107.7514  108.3685 H   0  0  0  0  0  0  0  0  0  0  0  0
  1  2  2  0  0  0  0
  1  9  1  0  0  0  0
  2 12  1  0  0  0  0
  3  4  1  0  0  0  0
  3  8  1  0  0  0  0
  3 10  2  0  0  0  0
  4  9  2  0  0  0  0
  4 12  1  0  0  0  0
  5  7  1  0  0  0  0
  5 10  1  0  0  0  0
  5 11  2  0  0  0  0
  6  7  1  0  0  0  0
  7 13  1  0  0  0  0
  8 11  1  0  0  0  0
  1 14  1  0  0  0  0
  2 15  1  0  0  0  0
  6 16  1  0  0  0  0
  6 17  1  0  0  0  0
  6 18  1  0  0  0  0
  7 19  1  0  0  0  0
 12 20  1  0  0  0  0
 13 21  1  0  0  0  0
 13 22  1  0  0  0  0
 13 23  1  0  0  0  0
M  CHG  2   8  -1  13   1
M  END
> <FRED Chemgauss4 score>
-9.691549

$$$$
C88168122	P137882102
  -OEChem-05122015313D

 30 31  0     0  0  0  0  0  0999 V2000
  118.5605  107.1663  105.9833 C   0  0  0  0  0  0  0  0  0  0  0  0
  119.5223  106.6624  105.1078 C   0  0  0  0  0  0  0  0  0  0  0  0
  118.9540  107.8039  107.1598 C   0  0  0  0  0  0  0  0  0  0  0  0
  124.7074  106.5392  107.6581 C   0  0  0  0  0  0  0  0  0  0  0  0
  121.2713  107.4337  106.5853 C   0  0  0  0  0  0  0  0  0  0  0  0
  120.8777  106.7960  105.4088 C   0  0  0  0  0  0  0  0  0  0  0  0
  120.3094  107.9376  107.4608 C   0  0  0  0  0  0  0  0  0  0  0  0
  125.4528  105.4433  108.1326 C   0  0  0  0  0  0  0  0  0  0  0  0
  125.2241  107.6215  108.3274 C   0  0  0  0  0  0  0  0  0  0  0  0
  125.3193  104.0262  107.7505 C   0  0  0  0  0  0  0  0  0  0  0  0
  124.8948  109.0565  108.2900 C   0  0  0  0  0  0  0  0  0  0  0  0
  123.5975  106.5332  106.6470 C   0  0  0  0  0  0  0  0  0  0  0  0
  126.3731  105.7971  109.0336 N   0  0  0  0  0  0  0  0  0  0  0  0
  126.2095  107.1274  109.1305 N   0  0  0  0  0  0  0  0  0  0  0  0
  122.6476  107.5699  106.8906 N   0  0  0  0  0  0  0  0  0  0  0  0
  122.0320  106.1571  104.2926 Cl  0  0  0  0  0  0  0  0  0  0  0  0
  120.7476  108.7344  108.9305 Cl  0  0  0  0  0  0  0  0  0  0  0  0
  117.5049  107.0626  105.7496 H   0  0  0  0  0  0  0  0  0  0  0  0
  119.1976  106.1685  104.1953 H   0  0  0  0  0  0  0  0  0  0  0  0
  118.1911  108.1908  107.8311 H   0  0  0  0  0  0  0  0  0  0  0  0
  125.9677  103.7809  106.8924 H   0  0  0  0  0  0  0  0  0  0  0  0
  125.5887  103.3452  108.5770 H   0  0  0  0  0  0  0  0  0  0  0  0
  124.2831  103.7667  107.4701 H   0  0  0  0  0  0  0  0  0  0  0  0
  124.1187  109.3089  109.0329 H   0  0  0  0  0  0  0  0  0  0  0  0
  125.7739  109.6918  108.4989 H   0  0  0  0  0  0  0  0  0  0  0  0
  124.5221  109.3732  107.2994 H   0  0  0  0  0  0  0  0  0  0  0  0
  123.9956  106.6713  105.6358 H   0  0  0  0  0  0  0  0  0  0  0  0
  123.0612  105.5785  106.6578 H   0  0  0  0  0  0  0  0  0  0  0  0
  126.8064  107.6376  109.7699 H   0  0  0  0  0  0  0  0  0  0  0  0
  122.9337  108.4391  107.2934 H   0  0  0  0  0  0  0  0  0  0  0  0
  1  2  1  0  0  0  0
  1  3  2  0  0  0  0
  2  6  2  0  0  0  0
  3  7  1  0  0  0  0
  4  8  1  0  0  0  0
  4  9  2  0  0  0  0
  4 12  1  0  0  0  0
  5  6  1  0  0  0  0
  5  7  2  0  0  0  0
  5 15  1  0  0  0  0
  6 16  1  0  0  0  0
  7 17  1  0  0  0  0
  8 10  1  0  0  0  0
  8 13  2  0  0  0  0
  9 11  1  0  0  0  0
  9 14  1  0  0  0  0
 12 15  1  0  0  0  0
 13 14  1  0  0  0  0
  1 18  1  0  0  0  0
  2 19  1  0  0  0  0
  3 20  1  0  0  0  0
 10 21  1  0  0  0  0
 10 22  1  0  0  0  0
 10 23  1  0  0  0  0
 11 24  1  0  0  0  0
 11 25  1  0  0  0  0
 11 26  1  0  0  0  0
 12 27  1  0  0  0  0
 12 28  1  0  0  0  0
 14 29  1  0  0  0  0
 15 30  1  0  0  0  0
M  END
> <FRED Chemgauss4 score>
-9.685307

$$$$
C90312594	P141186229
  -OEChem-05122015313D

 37 38  0     1  0  0  0  0  0999 V2000
  126.4770  106.6857  107.9800 C   0  0  0  0  0  0  0  0  0  0  0  0
  126.5635  105.3198  107.7108 C   0  0  0  0  0  0  0  0  0  0  0  0
  124.0876  106.6030  107.6323 C   0  0  0  0  0  0  0  0  0  0  0  0
  124.1740  105.2371  107.3630 C   0  0  0  0  0  0  0  0  0  0  0  0
  125.2390  107.3273  107.9408 C   0  0  0  0  0  0  0  0  0  0  0  0
  125.4120  104.5955  107.4023 C   0  0  0  0  0  0  0  0  0  0  0  0
  121.8384  105.0206  106.4257 C   0  0  0  0  0  0  0  0  0  0  0  0
  117.4965  104.1484  106.1174 C   0  0  0  0  0  0  0  0  0  0  0  0
  118.5806  103.0655  105.9416 C   0  0  2  0  0  0  0  0  0  0  0  0
  119.5903  104.2089  105.6925 C   0  0  1  0  0  0  0  0  0  0  0  0
  118.6366  105.1203  106.5149 C   0  0  1  0  0  0  0  0  0  0  0  0
  117.0788  108.3382  105.6319 C   0  0  0  0  0  0  0  0  0  0  0  0
  117.1655  106.9136  106.1364 C   0  0  0  0  0  0  0  0  0  0  0  0
  118.3438  102.3550  104.6922 N   0  0  0  0  0  0  0  0  0  0  0  0
  122.9876  104.5320  107.0535 N   0  0  0  0  0  0  0  0  0  0  0  0
  120.8951  104.0036  106.3075 N   0  0  0  0  0  0  0  0  0  0  0  0
  121.6538  106.1675  106.0254 O   0  0  0  0  0  0  0  0  0  0  0  0
  118.5073  106.4730  106.0448 O   0  0  0  0  0  0  0  0  0  0  0  0
  125.1332  109.0126  108.2731 Cl  0  0  0  0  0  0  0  0  0  0  0  0
  125.5649  102.9060  107.0757 Cl  0  0  0  0  0  0  0  0  0  0  0  0
  127.3825  107.2375  108.2189 H   0  0  0  0  0  0  0  0  0  0  0  0
  127.5358  104.8349  107.7456 H   0  0  0  0  0  0  0  0  0  0  0  0
  123.1211  107.1020  107.6013 H   0  0  0  0  0  0  0  0  0  0  0  0
  116.9608  104.4530  105.2096 H   0  0  0  0  0  0  0  0  0  0  0  0
  116.7635  103.9466  106.9041 H   0  0  0  0  0  0  0  0  0  0  0  0
  118.7616  102.4397  106.8214 H   0  0  0  0  0  0  0  0  0  0  0  0
  119.6944  104.5340  104.6489 H   0  0  0  0  0  0  0  0  0  0  0  0
  118.8374  105.1091  107.5945 H   0  0  0  0  0  0  0  0  0  0  0  0
  117.7061  109.0034  106.2318 H   0  0  0  0  0  0  0  0  0  0  0  0
  117.3989  108.3977  104.5865 H   0  0  0  0  0  0  0  0  0  0  0  0
  116.0453  108.6985  105.6693 H   0  0  0  0  0  0  0  0  0  0  0  0
  116.5359  106.2536  105.5323 H   0  0  0  0  0  0  0  0  0  0  0  0
  116.8461  106.8560  107.1812 H   0  0  0  0  0  0  0  0  0  0  0  0
  117.4205  102.0239  104.5042 H   0  0  0  0  0  0  0  0  0  0  0  0
  119.1350  102.0456  104.1670 H   0  0  0  0  0  0  0  0  0  0  0  0
  122.9741  103.5512  107.3217 H   0  0  0  0  0  0  0  0  0  0  0  0
  121.1245  103.0867  106.6622 H   0  0  0  0  0  0  0  0  0  0  0  0
  1  2  2  0  0  0  0
  1  5  1  0  0  0  0
  2  6  1  0  0  0  0
  3  4  1  0  0  0  0
  3  5  2  0  0  0  0
  4  6  2  0  0  0  0
  4 15  1  0  0  0  0
  5 19  1  0  0  0  0
  6 20  1  0  0  0  0
  7 15  1  0  0  0  0
  7 16  1  0  0  0  0
  7 17  2  0  0  0  0
  8  9  1  0  0  0  0
  8 11  1  0  0  0  0
  9 10  1  0  0  0  0
  9 14  1  0  0  0  0
 10 11  1  0  0  0  0
 10 16  1  0  0  0  0
 11 18  1  0  0  0  0
 12 13  1  0  0  0  0
 13 18  1  0  0  0  0
  1 21  1  0  0  0  0
  2 22  1  0  0  0  0
  3 23  1  0  0  0  0
  8 24  1  0  0  0  0
  8 25  1  0  0  0  0
  9 26  1  0  0  0  0
 10 27  1  0  0  0  0
 11 28  1  0  0  0  0
 12 29  1  0  0  0  0
 12 30  1  0  0  0  0
 12 31  1  0  0  0  0
 13 32  1  0  0  0  0
 13 33  1  0  0  0  0
 14 34  1  0  0  0  0
 14 35  1  0  0  0  0
 15 36  1  0  0  0  0
 16 37  1  0  0  0  0
M  END
> <FRED Chemgauss4 score>
-9.684956

$$$$
C82578002	P129061742
  -OEChem-05122015313D

 30 30  0     1  0  0  0  0  0999 V2000
  124.8087  108.9778  107.9945 C   0  0  0  0  0  0  0  0  0  0  0  0
  124.6508  107.7020  108.4822 C   0  0  0  0  0  0  0  0  0  0  0  0
  125.4119  107.6860  106.4141 C   0  0  0  0  0  0  0  0  0  0  0  0
  122.6438  105.2338  106.7555 C   0  0  0  0  0  0  0  0  0  0  0  0
  119.6976  105.5782  106.0954 C   0  0  0  0  0  0  0  0  0  0  0  0
  123.6861  104.8390  107.7860 C   0  0  0  0  0  0  0  0  0  0  0  0
  125.0589  105.4272  107.4758 C   0  0  0  0  0  0  0  0  0  0  0  0
  121.0753  104.4584  104.2644 C   0  0  0  0  0  0  0  0  0  0  0  0
  120.5569  104.3807  105.7021 C   0  0  1  0  0  0  0  0  0  0  0  0
  125.2824  108.9610  106.7066 N   0  0  0  0  0  0  0  0  0  0  0  0
  125.0408  106.8853  107.4584 N   0  0  0  0  0  0  0  0  0  0  0  0
  119.9940  104.5315  103.3084 N   0  0  0  0  0  0  0  0  0  0  0  0
  121.6672  104.2581  106.6183 N   0  0  0  0  0  0  0  0  0  0  0  0
  122.6822  106.2910  106.1320 O   0  0  0  0  0  0  0  0  0  0  0  0
  124.6052  109.9076  108.5053 H   0  0  0  0  0  0  0  0  0  0  0  0
  124.3076  107.3196  109.4333 H   0  0  0  0  0  0  0  0  0  0  0  0
  125.7650  107.2866  105.4731 H   0  0  0  0  0  0  0  0  0  0  0  0
  120.2520  106.5204  106.0255 H   0  0  0  0  0  0  0  0  0  0  0  0
  118.8305  105.6635  105.4309 H   0  0  0  0  0  0  0  0  0  0  0  0
  119.3279  105.4727  107.1205 H   0  0  0  0  0  0  0  0  0  0  0  0
  123.3430  105.1779  108.7714 H   0  0  0  0  0  0  0  0  0  0  0  0
  123.7413  103.7438  107.8166 H   0  0  0  0  0  0  0  0  0  0  0  0
  125.4234  105.0851  106.4994 H   0  0  0  0  0  0  0  0  0  0  0  0
  125.8014  105.1102  108.2183 H   0  0  0  0  0  0  0  0  0  0  0  0
  121.6841  103.5762  104.0363 H   0  0  0  0  0  0  0  0  0  0  0  0
  121.7174  105.3377  104.1437 H   0  0  0  0  0  0  0  0  0  0  0  0
  119.9426  103.4773  105.7946 H   0  0  0  0  0  0  0  0  0  0  0  0
  119.1655  103.9882  103.4719 H   0  0  0  0  0  0  0  0  0  0  0  0
  120.1667  104.9529  102.4134 H   0  0  0  0  0  0  0  0  0  0  0  0
  121.7358  103.4198  107.1878 H   0  0  0  0  0  0  0  0  0  0  0  0
  1  2  2  0  0  0  0
  1 10  1  0  0  0  0
  2 11  1  0  0  0  0
  3 10  2  0  0  0  0
  3 11  1  0  0  0  0
  4  6  1  0  0  0  0
  4 13  1  0  0  0  0
  4 14  2  0  0  0  0
  5  9  1  0  0  0  0
  6  7  1  0  0  0  0
  7 11  1  0  0  0  0
  8  9  1  0  0  0  0
  8 12  1  0  0  0  0
  9 13  1  0  0  0  0
  1 15  1  0  0  0  0
  2 16  1  0  0  0  0
  3 17  1  0  0  0  0
  5 18  1  0  0  0  0
  5 19  1  0  0  0  0
  5 20  1  0  0  0  0
  6 21  1  0  0  0  0
  6 22  1  0  0  0  0
  7 23  1  0  0  0  0
  7 24  1  0  0  0  0
  8 25  1  0  0  0  0
  8 26  1  0  0  0  0
  9 27  1  0  0  0  0
 12 28  1  0  0  0  0
 12 29  1  0  0  0  0
 13 30  1  0  0  0  0
M  END
> <FRED Chemgauss4 score>
-9.678185

$$$$
C61656861	P94432918
  -OEChem-05122015313D

 38 40  0     1  0  0  0  0  0999 V2000
  126.6095  106.0971  108.2763 C   0  0  0  0  0  0  0  0  0  0  0  0
  125.3372  105.6702  108.6399 C   0  0  0  0  0  0  0  0  0  0  0  0
  118.2886  105.2871  106.4946 C   0  0  0  0  0  0  0  0  0  0  0  0
  126.7133  107.2436  107.5053 C   0  0  0  0  0  0  0  0  0  0  0  0
  117.8305  104.6132  105.3825 C   0  0  0  0  0  0  0  0  0  0  0  0
  119.7096  105.1894  106.6496 C   0  0  0  0  0  0  0  0  0  0  0  0
  124.2232  106.3927  108.2272 C   0  0  0  0  0  0  0  0  0  0  0  0
  120.2477  104.3975  105.6551 C   0  0  0  0  0  0  0  0  0  0  0  0
  124.4337  107.5262  107.4585 C   0  0  0  0  0  0  0  0  0  0  0  0
  121.6942  104.0634  105.5594 C   0  0  0  0  0  0  0  0  0  0  0  0
  122.3562  104.3143  106.9220 C   0  0  0  0  0  0  0  0  0  0  0  0
  120.5540  105.7877  107.7635 C   0  0  2  0  0  0  0  0  0  0  0  0
  120.1906  107.2652  107.9825 C   0  0  0  0  0  0  0  0  0  0  0  0
  122.8467  105.9371  108.6168 C   0  0  0  0  0  0  0  0  0  0  0  0
  123.2739  108.3404  106.9864 C   0  0  0  0  0  0  0  0  0  0  0  0
  125.6544  107.9718  107.0855 N   0  0  0  0  0  0  0  0  0  0  0  0
  122.0091  105.6546  107.4445 N   0  0  1  0  0  0  0  0  0  0  0  0
  122.5746  107.7124  105.8954 N   0  0  0  0  0  0  0  0  0  0  0  0
  119.0996  103.8401  104.5349 S   0  0  0  0  0  0  0  0  0  0  0  0
  127.4930  105.5511  108.5866 H   0  0  0  0  0  0  0  0  0  0  0  0
  125.2241  104.7748  109.2449 H   0  0  0  0  0  0  0  0  0  0  0  0
  117.6299  105.8266  107.1629 H   0  0  0  0  0  0  0  0  0  0  0  0
  127.6831  107.6183  107.1949 H   0  0  0  0  0  0  0  0  0  0  0  0
  116.8106  104.5342  105.0333 H   0  0  0  0  0  0  0  0  0  0  0  0
  121.8430  103.0169  105.2699 H   0  0  0  0  0  0  0  0  0  0  0  0
  122.1634  104.6944  104.7945 H   0  0  0  0  0  0  0  0  0  0  0  0
  122.0584  103.5368  107.6389 H   0  0  0  0  0  0  0  0  0  0  0  0
  123.4410  104.2276  106.7822 H   0  0  0  0  0  0  0  0  0  0  0  0
  120.3240  105.2225  108.6777 H   0  0  0  0  0  0  0  0  0  0  0  0
  120.4160  107.8278  107.0820 H   0  0  0  0  0  0  0  0  0  0  0  0
  120.7697  107.6582  108.8122 H   0  0  0  0  0  0  0  0  0  0  0  0
  119.1316  107.3451  108.2068 H   0  0  0  0  0  0  0  0  0  0  0  0
  122.8986  105.0253  109.2218 H   0  0  0  0  0  0  0  0  0  0  0  0
  122.3364  106.6973  109.2174 H   0  0  0  0  0  0  0  0  0  0  0  0
  122.5496  108.5007  107.7962 H   0  0  0  0  0  0  0  0  0  0  0  0
  123.5942  109.3331  106.6440 H   0  0  0  0  0  0  0  0  0  0  0  0
  122.0565  108.2865  105.2510 H   0  0  0  0  0  0  0  0  0  0  0  0
  122.4436  106.7143  105.9082 H   0  0  0  0  0  0  0  0  0  0  0  0
  1  2  2  0  0  0  0
  1  4  1  0  0  0  0
  2  7  1  0  0  0  0
  3  5  2  0  0  0  0
  3  6  1  0  0  0  0
  4 16  2  0  0  0  0
  5 19  1  0  0  0  0
  6  8  2  0  0  0  0
  6 12  1  0  0  0  0
  7  9  2  0  0  0  0
  7 14  1  0  0  0  0
  8 10  1  0  0  0  0
  8 19  1  0  0  0  0
  9 15  1  0  0  0  0
  9 16  1  0  0  0  0
 10 11  1  0  0  0  0
 11 17  1  0  0  0  0
 12 13  1  0  0  0  0
 12 17  1  0  0  0  0
 14 17  1  0  0  0  0
 15 18  1  0  0  0  0
  1 20  1  0  0  0  0
  2 21  1  0  0  0  0
  3 22  1  0  0  0  0
  4 23  1  0  0  0  0
  5 24  1  0  0  0  0
 10 25  1  0  0  0  0
 10 26  1  0  0  0  0
 11 27  1  0  0  0  0
 11 28  1  0  0  0  0
 12 29  1  0  0  0  0
 13 30  1  0  0  0  0
 13 31  1  0  0  0  0
 13 32  1  0  0  0  0
 14 33  1  0  0  0  0
 14 34  1  0  0  0  0
 15 35  1  0  0  0  0
 15 36  1  0  0  0  0
 18 37  1  0  0  0  0
 18 38  1  0  0  0  0
M  END
> <FRED Chemgauss4 score>
-9.670769

$$$$
C88371168	P138217588
  -OEChem-05122015313D

 46 47  0     1  0  0  0  0  0999 V2000
  117.5898  105.1479  104.6490 C   0  0  0  0  0  0  0  0  0  0  0  0
  122.4472  105.4381  106.1919 C   0  0  0  0  0  0  0  0  0  0  0  0
  120.5213  103.8627  106.2035 C   0  0  0  0  0  0  0  0  0  0  0  0
  121.1597  105.0961  104.0741 C   0  0  0  0  0  0  0  0  0  0  0  0
  119.3476  104.8278  106.3602 C   0  0  0  0  0  0  0  0  0  0  0  0
  119.9538  106.0120  104.2873 C   0  0  0  0  0  0  0  0  0  0  0  0
  116.5487  107.9156  104.0152 C   0  0  0  0  0  0  0  0  0  0  0  0
  115.1348  107.5856  103.5593 C   0  0  0  0  0  0  0  0  0  0  0  0
  115.7640  105.3965  102.9614 C   0  0  0  0  0  0  0  0  0  0  0  0
  117.2244  105.6886  103.2991 C   0  0  1  0  0  0  0  0  0  0  0  0
  121.6630  104.4556  105.3717 C   0  0  0  0  0  0  0  0  0  0  0  0
  125.2496  105.6294  107.9751 C   0  0  0  0  0  0  0  0  0  0  0  0
  123.7603  105.6785  108.2896 C   0  0  0  0  0  0  0  0  0  0  0  0
  126.0896  106.4238  108.9680 C   0  0  0  0  0  0  0  0  0  0  0  0
  117.5236  107.1196  103.2727 N   0  0  0  0  0  0  0  0  0  0  0  0
  118.9105  105.3284  105.0576 N   0  0  0  0  0  0  0  0  0  0  0  0
  122.9714  104.9080  107.3553 N   0  0  0  0  0  0  0  0  0  0  0  0
  116.7280  104.5782  105.3235 O   0  0  0  0  0  0  0  0  0  0  0  0
  122.5696  106.5921  105.7982 O   0  0  0  0  0  0  0  0  0  0  0  0
  114.8739  106.1953  103.7448 O   0  0  0  0  0  0  0  0  0  0  0  0
  127.4558  106.3341  108.5860 O   0  0  0  0  0  0  0  0  0  0  0  0
  120.8801  103.5621  107.1950 H   0  0  0  0  0  0  0  0  0  0  0  0
  120.1628  102.9543  105.7021 H   0  0  0  0  0  0  0  0  0  0  0  0
  120.8672  104.2930  103.3851 H   0  0  0  0  0  0  0  0  0  0  0  0
  121.9628  105.6607  103.5858 H   0  0  0  0  0  0  0  0  0  0  0  0
  118.5262  104.3249  106.8804 H   0  0  0  0  0  0  0  0  0  0  0  0
  119.6337  105.6943  106.9677 H   0  0  0  0  0  0  0  0  0  0  0  0
  120.2403  106.9065  104.8520 H   0  0  0  0  0  0  0  0  0  0  0  0
  119.5882  106.3547  103.3175 H   0  0  0  0  0  0  0  0  0  0  0  0
  116.7547  108.9800  103.8618 H   0  0  0  0  0  0  0  0  0  0  0  0
  116.6557  107.7190  105.0880 H   0  0  0  0  0  0  0  0  0  0  0  0
  114.4103  108.1432  104.1613 H   0  0  0  0  0  0  0  0  0  0  0  0
  114.9707  107.8559  102.5091 H   0  0  0  0  0  0  0  0  0  0  0  0
  115.5692  105.5882  101.9000 H   0  0  0  0  0  0  0  0  0  0  0  0
  115.5212  104.3480  103.1602 H   0  0  0  0  0  0  0  0  0  0  0  0
  117.8738  105.1719  102.5828 H   0  0  0  0  0  0  0  0  0  0  0  0
  122.3668  103.6523  105.1201 H   0  0  0  0  0  0  0  0  0  0  0  0
  125.5866  104.5853  107.9801 H   0  0  0  0  0  0  0  0  0  0  0  0
  125.4393  106.0007  106.9601 H   0  0  0  0  0  0  0  0  0  0  0  0
  123.5721  105.2631  109.2845 H   0  0  0  0  0  0  0  0  0  0  0  0
  123.3881  106.7079  108.2726 H   0  0  0  0  0  0  0  0  0  0  0  0
  125.8026  107.4798  108.9752 H   0  0  0  0  0  0  0  0  0  0  0  0
  125.9844  106.0185  109.9795 H   0  0  0  0  0  0  0  0  0  0  0  0
  117.5063  107.4233  102.2989 H   0  0  0  0  0  0  0  0  0  0  0  0
  122.7939  103.9300  107.5639 H   0  0  0  0  0  0  0  0  0  0  0  0
  127.9624  106.8481  109.2354 H   0  0  0  0  0  0  0  0  0  0  0  0
  1 10  1  0  0  0  0
  1 16  1  0  0  0  0
  1 18  2  0  0  0  0
  2 11  1  0  0  0  0
  2 17  1  0  0  0  0
  2 19  2  0  0  0  0
  3  5  1  0  0  0  0
  3 11  1  0  0  0  0
  4  6  1  0  0  0  0
  4 11  1  0  0  0  0
  5 16  1  0  0  0  0
  6 16  1  0  0  0  0
  7  8  1  0  0  0  0
  7 15  1  0  0  0  0
  8 20  1  0  0  0  0
  9 10  1  0  0  0  0
  9 20  1  0  0  0  0
 10 15  1  0  0  0  0
 12 13  1  0  0  0  0
 12 14  1  0  0  0  0
 13 17  1  0  0  0  0
 14 21  1  0  0  0  0
  3 22  1  0  0  0  0
  3 23  1  0  0  0  0
  4 24  1  0  0  0  0
  4 25  1  0  0  0  0
  5 26  1  0  0  0  0
  5 27  1  0  0  0  0
  6 28  1  0  0  0  0
  6 29  1  0  0  0  0
  7 30  1  0  0  0  0
  7 31  1  0  0  0  0
  8 32  1  0  0  0  0
  8 33  1  0  0  0  0
  9 34  1  0  0  0  0
  9 35  1  0  0  0  0
 10 36  1  0  0  0  0
 11 37  1  0  0  0  0
 12 38  1  0  0  0  0
 12 39  1  0  0  0  0
 13 40  1  0  0  0  0
 13 41  1  0  0  0  0
 14 42  1  0  0  0  0
 14 43  1  0  0  0  0
 15 44  1  0  0  0  0
 17 45  1  0  0  0  0
 21 46  1  0  0  0  0
M  END
> <FRED Chemgauss4 score>
-9.669205

$$$$
C97910502	P155409201
  -OEChem-05122015313D

 42 43  0     1  0  0  0  0  0999 V2000
  122.9255  104.8772  106.2569 C   0  0  0  0  0  0  0  0  0  0  0  0
  125.0362  109.3435  108.0464 C   0  0  0  0  0  0  0  0  0  0  0  0
  124.6235  109.2393  109.5104 C   0  0  0  0  0  0  0  0  0  0  0  0
  125.5371  107.9967  107.5338 C   0  0  0  0  0  0  0  0  0  0  0  0
  118.2985  104.2635  104.9935 C   0  0  0  0  0  0  0  0  0  0  0  0
  117.2795  104.9978  105.8446 C   0  0  0  0  0  0  0  0  0  0  0  0
  119.3540  105.2956  106.9120 C   0  0  0  0  0  0  0  0  0  0  0  0
  123.6706  108.0700  109.7197 C   0  0  0  0  0  0  0  0  0  0  0  0
  124.5254  106.8910  107.8438 C   0  0  1  0  0  0  0  0  0  0  0  0
  119.4833  104.1130  105.9448 C   0  0  2  0  0  0  0  0  0  0  0  0
  123.9444  104.4984  107.3166 C   0  0  0  0  0  0  0  0  0  0  0  0
  125.0644  105.5261  107.4385 C   0  0  0  0  0  0  0  0  0  0  0  0
  120.8228  104.0660  105.2232 C   0  0  0  0  0  0  0  0  0  0  0  0
  118.1018  105.9727  106.5539 N   0  0  0  0  0  0  0  0  0  0  0  0
  121.9141  103.9326  106.1588 N   0  0  0  0  0  0  0  0  0  0  0  0
  123.0033  105.8995  105.5808 O   0  0  0  0  0  0  0  0  0  0  0  0
  124.2498  106.8535  109.2482 O   0  0  0  0  0  0  0  0  0  0  0  0
  119.3259  102.9064  106.6945 O   0  0  0  0  0  0  0  0  0  0  0  0
  124.1757  109.6647  107.4467 H   0  0  0  0  0  0  0  0  0  0  0  0
  125.8144  110.1053  107.9276 H   0  0  0  0  0  0  0  0  0  0  0  0
  125.5238  109.0812  110.1169 H   0  0  0  0  0  0  0  0  0  0  0  0
  124.1596  110.1738  109.8429 H   0  0  0  0  0  0  0  0  0  0  0  0
  125.7296  108.0533  106.4567 H   0  0  0  0  0  0  0  0  0  0  0  0
  126.4913  107.7728  108.0280 H   0  0  0  0  0  0  0  0  0  0  0  0
  117.9046  103.3038  104.6439 H   0  0  0  0  0  0  0  0  0  0  0  0
  118.5625  104.8762  104.1223 H   0  0  0  0  0  0  0  0  0  0  0  0
  116.5058  105.4808  105.2405 H   0  0  0  0  0  0  0  0  0  0  0  0
  116.7908  104.3237  106.5574 H   0  0  0  0  0  0  0  0  0  0  0  0
  119.3050  104.9681  107.9563 H   0  0  0  0  0  0  0  0  0  0  0  0
  120.1841  106.0044  106.8196 H   0  0  0  0  0  0  0  0  0  0  0  0
  123.4607  107.9476  110.7870 H   0  0  0  0  0  0  0  0  0  0  0  0
  122.7139  108.2393  109.2118 H   0  0  0  0  0  0  0  0  0  0  0  0
  123.5866  107.0720  107.3050 H   0  0  0  0  0  0  0  0  0  0  0  0
  123.4209  104.3986  108.2750 H   0  0  0  0  0  0  0  0  0  0  0  0
  124.3610  103.5181  107.0562 H   0  0  0  0  0  0  0  0  0  0  0  0
  125.5950  105.6183  106.4841 H   0  0  0  0  0  0  0  0  0  0  0  0
  125.7991  105.1952  108.1810 H   0  0  0  0  0  0  0  0  0  0  0  0
  120.9832  104.9854  104.6521 H   0  0  0  0  0  0  0  0  0  0  0  0
  120.8649  103.2139  104.5384 H   0  0  0  0  0  0  0  0  0  0  0  0
  118.3231  106.7347  105.9113 H   0  0  0  0  0  0  0  0  0  0  0  0
  121.9425  103.1190  106.7664 H   0  0  0  0  0  0  0  0  0  0  0  0
  120.0936  102.8488  107.2824 H   0  0  0  0  0  0  0  0  0  0  0  0
  1 11  1  0  0  0  0
  1 15  1  0  0  0  0
  1 16  2  0  0  0  0
  2  3  1  0  0  0  0
  2  4  1  0  0  0  0
  3  8  1  0  0  0  0
  4  9  1  0  0  0  0
  5  6  1  0  0  0  0
  5 10  1  0  0  0  0
  6 14  1  0  0  0  0
  7 10  1  0  0  0  0
  7 14  1  0  0  0  0
  8 17  1  0  0  0  0
  9 12  1  0  0  0  0
  9 17  1  0  0  0  0
 10 13  1  0  0  0  0
 10 18  1  0  0  0  0
 11 12  1  0  0  0  0
 13 15  1  0  0  0  0
  2 19  1  0  0  0  0
  2 20  1  0  0  0  0
  3 21  1  0  0  0  0
  3 22  1  0  0  0  0
  4 23  1  0  0  0  0
  4 24  1  0  0  0  0
  5 25  1  0  0  0  0
  5 26  1  0  0  0  0
  6 27  1  0  0  0  0
  6 28  1  0  0  0  0
  7 29  1  0  0  0  0
  7 30  1  0  0  0  0
  8 31  1  0  0  0  0
  8 32  1  0  0  0  0
  9 33  1  0  0  0  0
 11 34  1  0  0  0  0
 11 35  1  0  0  0  0
 12 36  1  0  0  0  0
 12 37  1  0  0  0  0
 13 38  1  0  0  0  0
 13 39  1  0  0  0  0
 14 40  1  0  0  0  0
 15 41  1  0  0  0  0
 18 42  1  0  0  0  0
M  END
> <FRED Chemgauss4 score>
-9.656459

$$$$
C91018745	P142410634
  -OEChem-05122015313D

 37 39  0     0  0  0  0  0  0999 V2000
  119.6872  108.8815  107.4064 C   0  0  0  0  0  0  0  0  0  0  0  0
  118.5944  108.5551  106.6055 C   0  0  0  0  0  0  0  0  0  0  0  0
  120.5536  107.8699  107.7987 C   0  0  0  0  0  0  0  0  0  0  0  0
  117.8879  105.1535  105.4785 C   0  0  0  0  0  0  0  0  0  0  0  0
  118.4297  107.2100  106.2374 C   0  0  0  0  0  0  0  0  0  0  0  0
  117.4934  106.4740  105.4641 C   0  0  0  0  0  0  0  0  0  0  0  0
  119.3739  106.2988  106.7015 C   0  0  0  0  0  0  0  0  0  0  0  0
  121.9879  104.8378  105.8799 C   0  0  0  0  0  0  0  0  0  0  0  0
  125.1727  104.8850  107.9915 C   0  0  0  0  0  0  0  0  0  0  0  0
  125.2478  105.4816  106.6156 C   0  0  0  0  0  0  0  0  0  0  0  0
  123.9285  105.4060  107.3303 C   0  0  0  0  0  0  0  0  0  0  0  0
  116.3094  107.0150  104.7673 C   0  0  0  0  0  0  0  0  0  0  0  0
  121.0028  103.7120  105.6232 C   0  0  0  0  0  0  0  0  0  0  0  0
  119.7499  103.8310  106.4851 C   0  0  0  0  0  0  0  0  0  0  0  0
  120.4445  106.5604  107.4751 N   0  0  0  0  0  0  0  0  0  0  0  0
  119.0291  105.0588  106.2321 N   0  0  0  0  0  0  0  0  0  0  0  0
  115.2205  107.3267  105.6673 N   0  0  0  0  0  0  0  0  0  0  0  0
  122.8850  104.5109  106.8863 N   0  0  0  0  0  0  0  0  0  0  0  0
  121.9723  105.8985  105.2612 O   0  0  0  0  0  0  0  0  0  0  0  0
  119.8568  109.9070  107.7167 H   0  0  0  0  0  0  0  0  0  0  0  0
  117.8983  109.3220  106.2814 H   0  0  0  0  0  0  0  0  0  0  0  0
  121.4109  108.1067  108.4232 H   0  0  0  0  0  0  0  0  0  0  0  0
  117.4532  104.2765  105.0172 H   0  0  0  0  0  0  0  0  0  0  0  0
  125.3001  103.8133  108.0824 H   0  0  0  0  0  0  0  0  0  0  0  0
  125.5854  105.4577  108.8130 H   0  0  0  0  0  0  0  0  0  0  0  0
  125.7110  106.4551  106.5124 H   0  0  0  0  0  0  0  0  0  0  0  0
  125.4252  104.8091  105.7852 H   0  0  0  0  0  0  0  0  0  0  0  0
  123.5291  106.3390  107.7134 H   0  0  0  0  0  0  0  0  0  0  0  0
  116.5447  107.9438  104.2179 H   0  0  0  0  0  0  0  0  0  0  0  0
  115.9080  106.3110  104.0173 H   0  0  0  0  0  0  0  0  0  0  0  0
  120.7333  103.7248  104.5598 H   0  0  0  0  0  0  0  0  0  0  0  0
  121.5100  102.7597  105.8216 H   0  0  0  0  0  0  0  0  0  0  0  0
  120.0011  103.8040  107.5525 H   0  0  0  0  0  0  0  0  0  0  0  0
  119.0633  102.9955  106.3015 H   0  0  0  0  0  0  0  0  0  0  0  0
  114.2815  107.3070  105.3140 H   0  0  0  0  0  0  0  0  0  0  0  0
  115.4320  107.7483  106.5530 H   0  0  0  0  0  0  0  0  0  0  0  0
  122.8045  103.6013  107.3311 H   0  0  0  0  0  0  0  0  0  0  0  0
  1  2  1  0  0  0  0
  1  3  2  0  0  0  0
  2  5  2  0  0  0  0
  3 15  1  0  0  0  0
  4  6  2  0  0  0  0
  4 16  1  0  0  0  0
  5  6  1  0  0  0  0
  5  7  1  0  0  0  0
  6 12  1  0  0  0  0
  7 15  2  0  0  0  0
  7 16  1  0  0  0  0
  8 13  1  0  0  0  0
  8 18  1  0  0  0  0
  8 19  2  0  0  0  0
  9 10  1  0  0  0  0
  9 11  1  0  0  0  0
 10 11  1  0  0  0  0
 11 18  1  0  0  0  0
 12 17  1  0  0  0  0
 13 14  1  0  0  0  0
 14 16  1  0  0  0  0
  1 20  1  0  0  0  0
  2 21  1  0  0  0  0
  3 22  1  0  0  0  0
  4 23  1  0  0  0  0
  9 24  1  0  0  0  0
  9 25  1  0  0  0  0
 10 26  1  0  0  0  0
 10 27  1  0  0  0  0
 11 28  1  0  0  0  0
 12 29  1  0  0  0  0
 12 30  1  0  0  0  0
 13 31  1  0  0  0  0
 13 32  1  0  0  0  0
 14 33  1  0  0  0  0
 14 34  1  0  0  0  0
 17 35  1  0  0  0  0
 17 36  1  0  0  0  0
 18 37  1  0  0  0  0
M  END
> <FRED Chemgauss4 score>
-9.654150

$$$$
C86106023	P134821924
  -OEChem-05122015313D

 41 42  0     1  0  0  0  0  0999 V2000
  118.8845  105.8835  105.0208 C   0  0  0  0  0  0  0  0  0  0  0  0
  117.8373  103.9962  106.0199 C   0  0  0  0  0  0  0  0  0  0  0  0
  120.0744  105.5109  105.6361 C   0  0  0  0  0  0  0  0  0  0  0  0
  117.7401  105.1171  105.2113 C   0  0  0  0  0  0  0  0  0  0  0  0
  120.0671  104.3725  106.4259 C   0  0  0  0  0  0  0  0  0  0  0  0
  121.2924  106.3351  105.4260 C   0  0  0  0  0  0  0  0  0  0  0  0
  125.0014  108.3561  107.8114 C   0  0  0  0  0  0  0  0  0  0  0  0
  123.5066  108.1616  107.5423 C   0  0  0  0  0  0  0  0  0  0  0  0
  125.7299  107.4131  106.8447 C   0  0  2  0  0  0  0  0  0  0  0  0
  124.7093  106.2938  106.5620 C   0  0  2  0  0  0  0  0  0  0  0  0
  123.4162  107.1168  106.4286 C   0  0  1  0  0  0  0  0  0  0  0  0
  124.6451  105.2189  107.6520 C   0  0  0  0  0  0  0  0  0  0  0  0
  127.9979  108.1264  107.6036 C   0  0  0  0  0  0  0  0  0  0  0  0
  127.0880  106.9660  107.3625 C   0  0  0  0  0  0  0  0  0  0  0  0
  118.9754  103.6027  106.6344 N   0  0  0  0  0  0  0  0  0  0  0  0
  121.3111  103.6204  108.3776 N   0  0  0  0  0  0  0  0  0  0  0  0
  121.2762  103.9857  107.0560 N   0  0  0  0  0  0  0  0  0  0  0  0
  122.2048  106.3493  106.4717 N   0  0  0  0  0  0  0  0  0  0  0  0
  121.4192  106.9617  104.3772 O   0  0  0  0  0  0  0  0  0  0  0  0
  116.1087  105.5880  104.3965 Br  0  0  0  0  0  0  0  0  0  0  0  0
  118.8531  106.7717  104.3937 H   0  0  0  0  0  0  0  0  0  0  0  0
  116.9813  103.3553  106.2091 H   0  0  0  0  0  0  0  0  0  0  0  0
  125.2944  109.4002  107.6622 H   0  0  0  0  0  0  0  0  0  0  0  0
  125.2185  108.1024  108.8559 H   0  0  0  0  0  0  0  0  0  0  0  0
  122.9656  107.8689  108.4549 H   0  0  0  0  0  0  0  0  0  0  0  0
  123.0729  109.1140  107.1964 H   0  0  0  0  0  0  0  0  0  0  0  0
  125.9035  107.9485  105.8974 H   0  0  0  0  0  0  0  0  0  0  0  0
  124.9346  105.8546  105.6422 H   0  0  0  0  0  0  0  0  0  0  0  0
  123.3997  107.6310  105.4259 H   0  0  0  0  0  0  0  0  0  0  0  0
  124.4098  105.6754  108.6138 H   0  0  0  0  0  0  0  0  0  0  0  0
  125.6050  104.7075  107.7295 H   0  0  0  0  0  0  0  0  0  0  0  0
  123.8737  104.4872  107.4104 H   0  0  0  0  0  0  0  0  0  0  0  0
  128.1362  108.6867  106.6715 H   0  0  0  0  0  0  0  0  0  0  0  0
  128.9816  107.7868  107.9447 H   0  0  0  0  0  0  0  0  0  0  0  0
  127.5730  108.8068  108.3492 H   0  0  0  0  0  0  0  0  0  0  0  0
  126.9516  106.4086  108.2935 H   0  0  0  0  0  0  0  0  0  0  0  0
  127.5443  106.2887  106.6350 H   0  0  0  0  0  0  0  0  0  0  0  0
  122.1229  104.0627  108.8061 H   0  0  0  0  0  0  0  0  0  0  0  0
  121.4768  102.6162  108.4318 H   0  0  0  0  0  0  0  0  0  0  0  0
  122.0661  103.7801  106.4665 H   0  0  0  0  0  0  0  0  0  0  0  0
  121.9984  105.8535  107.3348 H   0  0  0  0  0  0  0  0  0  0  0  0
  1  3  1  0  0  0  0
  1  4  2  0  0  0  0
  2  4  1  0  0  0  0
  2 15  2  0  0  0  0
  3  5  2  0  0  0  0
  3  6  1  0  0  0  0
  4 20  1  0  0  0  0
  5 15  1  0  0  0  0
  5 17  1  0  0  0  0
  6 18  1  0  0  0  0
  6 19  2  0  0  0  0
  7  8  1  0  0  0  0
  7  9  1  0  0  0  0
  8 11  1  0  0  0  0
  9 10  1  0  0  0  0
  9 14  1  0  0  0  0
 10 11  1  0  0  0  0
 10 12  1  0  0  0  0
 11 18  1  0  0  0  0
 13 14  1  0  0  0  0
 16 17  1  0  0  0  0
  1 21  1  0  0  0  0
  2 22  1  0  0  0  0
  7 23  1  0  0  0  0
  7 24  1  0  0  0  0
  8 25  1  0  0  0  0
  8 26  1  0  0  0  0
  9 27  1  0  0  0  0
 10 28  1  0  0  0  0
 11 29  1  0  0  0  0
 12 30  1  0  0  0  0
 12 31  1  0  0  0  0
 12 32  1  0  0  0  0
 13 33  1  0  0  0  0
 13 34  1  0  0  0  0
 13 35  1  0  0  0  0
 14 36  1  0  0  0  0
 14 37  1  0  0  0  0
 16 38  1  0  0  0  0
 16 39  1  0  0  0  0
 17 40  1  0  0  0  0
 18 41  1  0  0  0  0
M  END
> <FRED Chemgauss4 score>
-9.642977

$$$$
C87513557	P136883589
  -OEChem-05122015313D

 26 27  0     0  0  0  0  0  0999 V2000
  124.3963  104.3422  107.6445 C   0  0  0  0  0  0  0  0  0  0  0  0
  125.5328  104.5388  108.4289 C   0  0  0  0  0  0  0  0  0  0  0  0
  124.1633  106.7327  107.3827 C   0  0  0  0  0  0  0  0  0  0  0  0
  123.7115  105.4391  107.1213 C   0  0  0  0  0  0  0  0  0  0  0  0
  125.9846  105.8324  108.6902 C   0  0  0  0  0  0  0  0  0  0  0  0
  125.2998  106.9293  108.1671 C   0  0  0  0  0  0  0  0  0  0  0  0
  118.2904  105.9958  105.2037 C   0  0  0  0  0  0  0  0  0  0  0  0
  119.7968  104.7663  106.1809 C   0  0  0  0  0  0  0  0  0  0  0  0
  117.6299  107.2649  104.8533 C   0  0  0  0  0  0  0  0  0  0  0  0
  122.4965  105.2289  106.2826 C   0  0  0  0  0  0  0  0  0  0  0  0
  119.4042  106.0117  106.0261 N   0  0  0  0  0  0  0  0  0  0  0  0
  117.8098  104.8472  104.7278 N   0  0  0  0  0  0  0  0  0  0  0  0
  127.1340  106.0285  109.4837 N   0  0  0  0  0  0  0  0  0  0  0  0
  125.7254  108.1768  108.4119 F   0  0  0  0  0  0  0  0  0  0  0  0
  118.8083  103.6485  105.3334 S   0  0  0  0  0  0  0  0  0  0  0  0
  121.1940  104.3115  107.1601 S   0  0  0  0  0  0  0  0  0  0  0  0
  124.0515  103.3308  107.4461 H   0  0  0  0  0  0  0  0  0  0  0  0
  126.0587  103.6769  108.8314 H   0  0  0  0  0  0  0  0  0  0  0  0
  123.6364  107.5933  106.9794 H   0  0  0  0  0  0  0  0  0  0  0  0
  118.0581  107.6984  103.9333 H   0  0  0  0  0  0  0  0  0  0  0  0
  116.5452  107.1384  104.6877 H   0  0  0  0  0  0  0  0  0  0  0  0
  117.7272  108.0202  105.6535 H   0  0  0  0  0  0  0  0  0  0  0  0
  122.0781  106.1907  105.9508 H   0  0  0  0  0  0  0  0  0  0  0  0
  122.7478  104.6761  105.3653 H   0  0  0  0  0  0  0  0  0  0  0  0
  127.5869  105.2354  109.8908 H   0  0  0  0  0  0  0  0  0  0  0  0
  127.4214  106.9607  109.7036 H   0  0  0  0  0  0  0  0  0  0  0  0
  1  2  2  0  0  0  0
  1  4  1  0  0  0  0
  2  5  1  0  0  0  0
  3  4  2  0  0  0  0
  3  6  1  0  0  0  0
  4 10  1  0  0  0  0
  5  6  2  0  0  0  0
  5 13  1  0  0  0  0
  6 14  1  0  0  0  0
  7  9  1  0  0  0  0
  7 11  1  0  0  0  0
  7 12  2  0  0  0  0
  8 11  2  0  0  0  0
  8 15  1  0  0  0  0
  8 16  1  0  0  0  0
 10 16  1  0  0  0  0
 12 15  1  0  0  0  0
  1 17  1  0  0  0  0
  2 18  1  0  0  0  0
  3 19  1  0  0  0  0
  9 20  1  0  0  0  0
  9 21  1  0  0  0  0
  9 22  1  0  0  0  0
 10 23  1  0  0  0  0
 10 24  1  0  0  0  0
 13 25  1  0  0  0  0
 13 26  1  0  0  0  0
M  END
> <FRED Chemgauss4 score>
-9.641929

$$$$
C05002210	P07335902
  -OEChem-05122015313D

 36 39  0     1  0  0  0  0  0999 V2000
  124.4131  106.4767  106.1474 C   0  0  0  0  0  0  0  0  0  0  0  0
  124.2438  105.6276  107.2354 C   0  0  0  0  0  0  0  0  0  0  0  0
  118.2109  108.4043  104.2037 C   0  0  0  0  0  0  0  0  0  0  0  0
  116.8893  106.8770  105.5295 C   0  0  0  0  0  0  0  0  0  0  0  0
  117.7918  109.4646  105.0073 C   0  0  0  0  0  0  0  0  0  0  0  0
  116.4702  107.9373  106.3331 C   0  0  0  0  0  0  0  0  0  0  0  0
  123.3954  106.6309  105.2016 C   0  0  0  0  0  0  0  0  0  0  0  0
  123.0567  104.9113  107.4078 C   0  0  0  0  0  0  0  0  0  0  0  0
  117.7596  107.1105  104.4648 C   0  0  0  0  0  0  0  0  0  0  0  0
  116.9214  109.2311  106.0720 C   0  0  0  0  0  0  0  0  0  0  0  0
  122.1857  105.9189  105.3519 C   0  0  0  0  0  0  0  0  0  0  0  0
  122.0387  105.0710  106.4539 C   0  0  0  0  0  0  0  0  0  0  0  0
  120.1464  105.1812  104.9465 C   0  0  0  0  0  0  0  0  0  0  0  0
  118.2359  103.7266  104.5365 C   0  0  0  0  0  0  0  0  0  0  0  0
  116.8639  103.7441  103.9064 C   0  0  0  0  0  0  0  0  0  0  0  0
  118.2073  105.9764  103.6063 C   0  0  1  0  0  0  0  0  0  0  0  0
  116.4751  110.3651  106.9317 C   0  0  0  0  0  0  0  0  0  0  0  0
  121.0937  105.9711  104.4978 N   0  0  0  0  0  0  0  0  0  0  0  0
  118.9144  104.9555  104.3923 N   0  0  0  0  0  0  0  0  0  0  0  0
  118.6576  102.7383  105.1340 O   0  0  0  0  0  0  0  0  0  0  0  0
  120.4818  104.3326  106.3933 S   0  0  0  0  0  0  0  0  0  0  0  0
  116.7797  105.1730  102.8349 S   0  0  0  0  0  0  0  0  0  0  0  0
  125.3432  107.0260  106.0301 H   0  0  0  0  0  0  0  0  0  0  0  0
  125.0449  105.5179  107.9622 H   0  0  0  0  0  0  0  0  0  0  0  0
  118.8887  108.5956  103.3759 H   0  0  0  0  0  0  0  0  0  0  0  0
  116.5337  105.8718  105.7407 H   0  0  0  0  0  0  0  0  0  0  0  0
  118.1497  110.4690  104.7974 H   0  0  0  0  0  0  0  0  0  0  0  0
  115.7917  107.7466  107.1605 H   0  0  0  0  0  0  0  0  0  0  0  0
  123.5387  107.2964  104.3549 H   0  0  0  0  0  0  0  0  0  0  0  0
  122.9310  104.2511  108.2605 H   0  0  0  0  0  0  0  0  0  0  0  0
  116.7117  102.8291  103.3284 H   0  0  0  0  0  0  0  0  0  0  0  0
  116.1094  103.8141  104.6945 H   0  0  0  0  0  0  0  0  0  0  0  0
  118.8816  106.3496  102.8291 H   0  0  0  0  0  0  0  0  0  0  0  0
  115.5574  110.8113  106.5293 H   0  0  0  0  0  0  0  0  0  0  0  0
  116.2788  110.0327  107.9593 H   0  0  0  0  0  0  0  0  0  0  0  0
  117.2443  111.1460  106.9921 H   0  0  0  0  0  0  0  0  0  0  0  0
  1  2  1  0  0  0  0
  1  7  2  0  0  0  0
  2  8  2  0  0  0  0
  3  5  2  0  0  0  0
  3  9  1  0  0  0  0
  4  6  1  0  0  0  0
  4  9  2  0  0  0  0
  5 10  1  0  0  0  0
  6 10  2  0  0  0  0
  7 11  1  0  0  0  0
  8 12  1  0  0  0  0
  9 16  1  0  0  0  0
 10 17  1  0  0  0  0
 11 12  2  0  0  0  0
 11 18  1  0  0  0  0
 12 21  1  0  0  0  0
 13 18  2  0  0  0  0
 13 19  1  0  0  0  0
 13 21  1  0  0  0  0
 14 15  1  0  0  0  0
 14 19  1  0  0  0  0
 14 20  2  0  0  0  0
 15 22  1  0  0  0  0
 16 19  1  0  0  0  0
 16 22  1  0  0  0  0
  1 23  1  0  0  0  0
  2 24  1  0  0  0  0
  3 25  1  0  0  0  0
  4 26  1  0  0  0  0
  5 27  1  0  0  0  0
  6 28  1  0  0  0  0
  7 29  1  0  0  0  0
  8 30  1  0  0  0  0
 15 31  1  0  0  0  0
 15 32  1  0  0  0  0
 16 33  1  0  0  0  0
 17 34  1  0  0  0  0
 17 35  1  0  0  0  0
 17 36  1  0  0  0  0
M  END
> <FRED Chemgauss4 score>
-9.637838

$$$$
C88870650	P139021098
  -OEChem-05122015313D

 33 35  0     0  0  0  0  0  0999 V2000
  116.0456  108.1163  106.0620 C   0  0  0  0  0  0  0  0  0  0  0  0
  123.4145  104.6240  107.0843 C   0  0  0  0  0  0  0  0  0  0  0  0
  123.0483  106.7155  108.2370 C   0  0  0  0  0  0  0  0  0  0  0  0
  124.7689  104.6798  107.4132 C   0  0  0  0  0  0  0  0  0  0  0  0
  124.4027  106.7713  108.5659 C   0  0  0  0  0  0  0  0  0  0  0  0
  116.8823  107.0010  105.8184 C   0  0  0  0  0  0  0  0  0  0  0  0
  116.6596  108.8450  107.0539 C   0  0  0  0  0  0  0  0  0  0  0  0
  122.5542  105.6419  107.4962 C   0  0  0  0  0  0  0  0  0  0  0  0
  125.2630  105.7534  108.1540 C   0  0  0  0  0  0  0  0  0  0  0  0
  119.0788  106.1842  106.7751 C   0  0  0  0  0  0  0  0  0  0  0  0
  117.9480  107.1277  106.6787 C   0  0  0  0  0  0  0  0  0  0  0  0
  118.9582  104.8373  106.5043 C   0  0  0  0  0  0  0  0  0  0  0  0
  121.1536  105.5842  107.1561 C   0  0  0  0  0  0  0  0  0  0  0  0
  117.7841  104.0440  106.0849 C   0  0  0  0  0  0  0  0  0  0  0  0
  126.7111  105.8133  108.5051 C   0  0  0  0  0  0  0  0  0  0  0  0
  120.3369  106.6143  107.1494 N   0  0  0  0  0  0  0  0  0  0  0  0
  127.1938  107.1669  108.6108 N   0  0  0  0  0  0  0  0  0  0  0  0
  117.8199  108.2492  107.4353 O   0  0  0  0  0  0  0  0  0  0  0  0
  120.4758  104.0686  106.7220 S   0  0  0  0  0  0  0  0  0  0  0  0
  115.1121  108.3588  105.5752 H   0  0  0  0  0  0  0  0  0  0  0  0
  123.0446  103.7806  106.5061 H   0  0  0  0  0  0  0  0  0  0  0  0
  122.3904  107.5164  108.5657 H   0  0  0  0  0  0  0  0  0  0  0  0
  125.4320  103.8826  107.0878 H   0  0  0  0  0  0  0  0  0  0  0  0
  124.7787  107.6117  109.1434 H   0  0  0  0  0  0  0  0  0  0  0  0
  116.7199  106.2082  105.1013 H   0  0  0  0  0  0  0  0  0  0  0  0
  116.4132  109.7611  107.5701 H   0  0  0  0  0  0  0  0  0  0  0  0
  117.7020  104.0091  104.9868 H   0  0  0  0  0  0  0  0  0  0  0  0
  117.8362  103.0054  106.4517 H   0  0  0  0  0  0  0  0  0  0  0  0
  116.8426  104.4612  106.4797 H   0  0  0  0  0  0  0  0  0  0  0  0
  126.9065  105.3174  109.4663 H   0  0  0  0  0  0  0  0  0  0  0  0
  127.3295  105.3030  107.7538 H   0  0  0  0  0  0  0  0  0  0  0  0
  128.1701  107.3511  108.4518 H   0  0  0  0  0  0  0  0  0  0  0  0
  126.6045  107.8638  109.0346 H   0  0  0  0  0  0  0  0  0  0  0  0
  1  6  1  0  0  0  0
  1  7  2  0  0  0  0
  2  4  2  0  0  0  0
  2  8  1  0  0  0  0
  3  5  1  0  0  0  0
  3  8  2  0  0  0  0
  4  9  1  0  0  0  0
  5  9  2  0  0  0  0
  6 11  2  0  0  0  0
  7 18  1  0  0  0  0
  8 13  1  0  0  0  0
  9 15  1  0  0  0  0
 10 11  1  0  0  0  0
 10 12  2  0  0  0  0
 10 16  1  0  0  0  0
 11 18  1  0  0  0  0
 12 14  1  0  0  0  0
 12 19  1  0  0  0  0
 13 16  2  0  0  0  0
 13 19  1  0  0  0  0
 15 17  1  0  0  0  0
  1 20  1  0  0  0  0
  2 21  1  0  0  0  0
  3 22  1  0  0  0  0
  4 23  1  0  0  0  0
  5 24  1  0  0  0  0
  6 25  1  0  0  0  0
  7 26  1  0  0  0  0
 14 27  1  0  0  0  0
 14 28  1  0  0  0  0
 14 29  1  0  0  0  0
 15 30  1  0  0  0  0
 15 31  1  0  0  0  0
 17 32  1  0  0  0  0
 17 33  1  0  0  0  0
M  END
> <FRED Chemgauss4 score>
-9.635371

$$$$
C83993337	P131402648
  -OEChem-05122015313D

 27 28  0     1  0  0  0  0  0999 V2000
  121.6847  106.1681  105.3019 C   0  0  0  0  0  0  0  0  0  0  0  0
  122.9744  109.1193  110.0027 C   0  0  0  0  0  0  0  0  0  0  0  0
  124.0707  108.4184  108.3706 C   0  0  0  0  0  0  0  0  0  0  0  0
  123.5784  106.4035  106.1479 C   0  0  0  0  0  0  0  0  0  0  0  0
  124.5252  103.3942  106.9756 C   0  0  0  0  0  0  0  0  0  0  0  0
  124.9559  106.8554  106.5629 C   0  0  0  0  0  0  0  0  0  0  0  0
  123.5070  104.3371  107.5935 C   0  0  0  0  0  0  0  0  0  0  0  0
  124.9801  108.2672  107.1716 C   0  0  1  0  0  0  0  0  0  0  0  0
  122.7735  106.9921  105.2940 N   0  0  0  0  0  0  0  0  0  0  0  0
  121.7652  105.1066  106.1071 N   0  0  0  0  0  0  0  0  0  0  0  0
  123.8534  109.5264  109.0403 N   0  0  0  0  0  0  0  0  0  0  0  0
  123.3489  107.4038  108.9178 N   0  0  0  0  0  0  0  0  0  0  0  0
  122.6341  107.8291  109.9706 N   0  0  0  0  0  0  0  0  0  0  0  0
  122.9858  105.2809  106.6362 N   0  0  0  0  0  0  0  0  0  0  0  0
  124.5740  109.2101  106.1778 O   0  0  0  0  0  0  0  0  0  0  0  0
  120.8051  106.3467  104.7021 H   0  0  0  0  0  0  0  0  0  0  0  0
  122.5776  109.7988  110.7455 H   0  0  0  0  0  0  0  0  0  0  0  0
  124.0859  102.8225  106.1512 H   0  0  0  0  0  0  0  0  0  0  0  0
  124.8905  102.6859  107.7256 H   0  0  0  0  0  0  0  0  0  0  0  0
  125.3845  103.9451  106.5788 H   0  0  0  0  0  0  0  0  0  0  0  0
  125.3535  106.1360  107.2920 H   0  0  0  0  0  0  0  0  0  0  0  0
  125.6491  106.7897  105.7137 H   0  0  0  0  0  0  0  0  0  0  0  0
  123.9557  104.9044  108.4168 H   0  0  0  0  0  0  0  0  0  0  0  0
  122.6622  103.7754  108.0080 H   0  0  0  0  0  0  0  0  0  0  0  0
  126.0054  108.5381  107.4524 H   0  0  0  0  0  0  0  0  0  0  0  0
  122.0300  107.2186  110.5139 H   0  0  0  0  0  0  0  0  0  0  0  0
  125.1730  109.0888  105.4261 H   0  0  0  0  0  0  0  0  0  0  0  0
  1  9  1  0  0  0  0
  1 10  2  0  0  0  0
  2 11  2  0  0  0  0
  2 13  1  0  0  0  0
  3  8  1  0  0  0  0
  3 11  1  0  0  0  0
  3 12  2  0  0  0  0
  4  6  1  0  0  0  0
  4  9  2  0  0  0  0
  4 14  1  0  0  0  0
  5  7  1  0  0  0  0
  6  8  1  0  0  0  0
  7 14  1  0  0  0  0
  8 15  1  0  0  0  0
 10 14  1  0  0  0  0
 12 13  1  0  0  0  0
  1 16  1  0  0  0  0
  2 17  1  0  0  0  0
  5 18  1  0  0  0  0
  5 19  1  0  0  0  0
  5 20  1  0  0  0  0
  6 21  1  0  0  0  0
  6 22  1  0  0  0  0
  7 23  1  0  0  0  0
  7 24  1  0  0  0  0
  8 25  1  0  0  0  0
 13 26  1  0  0  0  0
 15 27  1  0  0  0  0
M  END
> <FRED Chemgauss4 score>
-9.632010

$$$$
C71266836	P110163305
  -OEChem-05122015313D

 38 39  0     1  0  0  0  0  0999 V2000
  123.7950  105.1313  107.2328 C   0  0  0  0  0  0  0  0  0  0  0  0
  124.7052  105.4503  106.2314 C   0  0  0  0  0  0  0  0  0  0  0  0
  117.7338  106.9879  103.5365 C   0  0  0  0  0  0  0  0  0  0  0  0
  116.6465  106.2942  103.0054 C   0  0  0  0  0  0  0  0  0  0  0  0
  122.6268  105.8737  107.3650 C   0  0  0  0  0  0  0  0  0  0  0  0
  117.7415  104.1984  103.5008 C   0  0  0  0  0  0  0  0  0  0  0  0
  124.4030  106.5126  105.3946 C   0  0  0  0  0  0  0  0  0  0  0  0
  118.8289  104.8921  104.0319 C   0  0  0  0  0  0  0  0  0  0  0  0
  118.8251  106.2868  104.0498 C   0  0  0  0  0  0  0  0  0  0  0  0
  116.6503  104.8995  102.9876 C   0  0  0  0  0  0  0  0  0  0  0  0
  122.4177  106.9171  106.4777 C   0  0  0  0  0  0  0  0  0  0  0  0
  119.9562  104.1353  104.5599 C   0  0  0  0  0  0  0  0  0  0  0  0
  118.7678  107.6172  106.6117 C   0  0  0  0  0  0  0  0  0  0  0  0
  119.9823  107.0582  104.6154 C   0  0  0  0  0  0  0  0  0  0  0  0
  121.1672  107.7402  106.5912 C   0  0  0  0  0  0  0  0  0  0  0  0
  123.2787  107.2568  105.4923 N   0  0  0  0  0  0  0  0  0  0  0  0
  119.8990  103.8145  105.8392 N   0  0  0  0  0  0  0  0  0  0  0  0
  121.0467  103.7626  103.7702 N   0  0  0  0  0  0  0  0  0  0  0  0
  119.9962  107.0303  106.0775 N   0  0  1  0  0  0  0  0  0  0  0  0
  121.0248  103.0917  106.2467 O   0  0  0  0  0  0  0  0  0  0  0  0
  115.6063  104.2334  102.4771 F   0  0  0  0  0  0  0  0  0  0  0  0
  123.9956  104.3056  107.9088 H   0  0  0  0  0  0  0  0  0  0  0  0
  125.6223  104.8854  106.1096 H   0  0  0  0  0  0  0  0  0  0  0  0
  117.7219  108.0746  103.5454 H   0  0  0  0  0  0  0  0  0  0  0  0
  115.7969  106.8399  102.6057 H   0  0  0  0  0  0  0  0  0  0  0  0
  121.9086  105.6350  108.1421 H   0  0  0  0  0  0  0  0  0  0  0  0
  117.7309  103.1116  103.4815 H   0  0  0  0  0  0  0  0  0  0  0  0
  125.0802  106.8017  104.5976 H   0  0  0  0  0  0  0  0  0  0  0  0
  118.7843  107.5934  107.7044 H   0  0  0  0  0  0  0  0  0  0  0  0
  117.8973  107.0564  106.2606 H   0  0  0  0  0  0  0  0  0  0  0  0
  118.6714  108.6556  106.2837 H   0  0  0  0  0  0  0  0  0  0  0  0
  120.9325  106.6439  104.2611 H   0  0  0  0  0  0  0  0  0  0  0  0
  119.9471  108.1065  104.3009 H   0  0  0  0  0  0  0  0  0  0  0  0
  120.9709  108.0021  107.6367 H   0  0  0  0  0  0  0  0  0  0  0  0
  121.2617  108.6777  106.0333 H   0  0  0  0  0  0  0  0  0  0  0  0
  121.0957  103.9842  102.7824 H   0  0  0  0  0  0  0  0  0  0  0  0
  121.8122  103.2177  104.1526 H   0  0  0  0  0  0  0  0  0  0  0  0
  120.8288  102.9396  107.1866 H   0  0  0  0  0  0  0  0  0  0  0  0
  1  2  1  0  0  0  0
  1  5  2  0  0  0  0
  2  7  2  0  0  0  0
  3  4  2  0  0  0  0
  3  9  1  0  0  0  0
  4 10  1  0  0  0  0
  5 11  1  0  0  0  0
  6  8  1  0  0  0  0
  6 10  2  0  0  0  0
  7 16  1  0  0  0  0
  8  9  2  0  0  0  0
  8 12  1  0  0  0  0
  9 14  1  0  0  0  0
 10 21  1  0  0  0  0
 11 15  1  0  0  0  0
 11 16  2  0  0  0  0
 12 17  2  0  0  0  0
 12 18  1  0  0  0  0
 13 19  1  0  0  0  0
 14 19  1  0  0  0  0
 15 19  1  0  0  0  0
 17 20  1  0  0  0  0
  1 22  1  0  0  0  0
  2 23  1  0  0  0  0
  3 24  1  0  0  0  0
  4 25  1  0  0  0  0
  5 26  1  0  0  0  0
  6 27  1  0  0  0  0
  7 28  1  0  0  0  0
 13 29  1  0  0  0  0
 13 30  1  0  0  0  0
 13 31  1  0  0  0  0
 14 32  1  0  0  0  0
 14 33  1  0  0  0  0
 15 34  1  0  0  0  0
 15 35  1  0  0  0  0
 18 36  1  0  0  0  0
 18 37  1  0  0  0  0
 20 38  1  0  0  0  0
M  END
> <FRED Chemgauss4 score>
-9.629970

$$$$
C49587665	P74065899
  -OEChem-05122015313D

 41 41  0     1  0  0  0  0  0999 V2000
  124.6879  104.7461  107.2432 C   0  0  0  0  0  0  0  0  0  0  0  0
  124.8651  103.5946  106.9506 C   0  0  0  0  0  0  0  0  0  0  0  0
  124.9087  107.9618  109.0925 C   0  0  0  0  0  0  0  0  0  0  0  0
  124.1014  108.7875  108.3101 C   0  0  0  0  0  0  0  0  0  0  0  0
  125.0974  106.6273  108.7328 C   0  0  0  0  0  0  0  0  0  0  0  0
  123.4827  108.2788  107.1682 C   0  0  0  0  0  0  0  0  0  0  0  0
  124.4787  106.1186  107.5909 C   0  0  0  0  0  0  0  0  0  0  0  0
  123.6714  106.9443  106.8085 C   0  0  0  0  0  0  0  0  0  0  0  0
  117.9505  103.3005  104.7645 C   0  0  0  0  0  0  0  0  0  0  0  0
  119.8498  103.5855  106.3946 C   0  0  0  0  0  0  0  0  0  0  0  0
  118.4428  105.9485  106.2219 C   0  0  0  0  0  0  0  0  0  0  0  0
  125.0781  102.1928  106.5934 C   0  0  0  0  0  0  0  0  0  0  0  0
  122.9895  106.4319  105.5729 C   0  0  0  0  0  0  0  0  0  0  0  0
  119.2891  103.9724  105.0339 C   0  0  0  0  0  0  0  0  0  0  0  0
  126.4649  101.8366  106.7031 N   0  0  0  0  0  0  0  0  0  0  0  0
  121.5468  106.2098  105.7901 N   0  0  0  0  0  0  0  0  0  0  0  0
  119.1111  105.4494  104.9883 N   0  0  2  0  0  0  0  0  0  0  0  0
  120.1124  107.7382  104.3004 O   0  0  0  0  0  0  0  0  0  0  0  0
  121.0903  105.6413  103.3204 O   0  0  0  0  0  0  0  0  0  0  0  0
  120.4926  106.3443  104.4414 S   0  0  0  0  0  0  0  0  0  0  0  0
  125.3903  108.3581  109.9816 H   0  0  0  0  0  0  0  0  0  0  0  0
  123.9546  109.8265  108.5903 H   0  0  0  0  0  0  0  0  0  0  0  0
  125.7299  105.9972  109.3538 H   0  0  0  0  0  0  0  0  0  0  0  0
  122.8557  108.9307  106.5656 H   0  0  0  0  0  0  0  0  0  0  0  0
  117.2191  103.5656  105.5349 H   0  0  0  0  0  0  0  0  0  0  0  0
  117.5433  103.5962  103.7911 H   0  0  0  0  0  0  0  0  0  0  0  0
  118.0571  102.2102  104.7589 H   0  0  0  0  0  0  0  0  0  0  0  0
  119.1506  103.8554  107.1936 H   0  0  0  0  0  0  0  0  0  0  0  0
  120.7978  104.0988  106.5859 H   0  0  0  0  0  0  0  0  0  0  0  0
  120.0264  102.5061  106.4627 H   0  0  0  0  0  0  0  0  0  0  0  0
  118.3208  107.0335  106.1703 H   0  0  0  0  0  0  0  0  0  0  0  0
  119.0429  105.7032  107.1024 H   0  0  0  0  0  0  0  0  0  0  0  0
  117.4570  105.4882  106.3303 H   0  0  0  0  0  0  0  0  0  0  0  0
  124.7688  102.0014  105.5617 H   0  0  0  0  0  0  0  0  0  0  0  0
  124.5144  101.5265  107.2527 H   0  0  0  0  0  0  0  0  0  0  0  0
  123.1007  107.1434  104.7474 H   0  0  0  0  0  0  0  0  0  0  0  0
  123.4288  105.4835  105.2463 H   0  0  0  0  0  0  0  0  0  0  0  0
  120.0039  103.6934  104.2520 H   0  0  0  0  0  0  0  0  0  0  0  0
  127.1689  102.5021  106.4225 H   0  0  0  0  0  0  0  0  0  0  0  0
  126.7155  100.8724  106.8608 H   0  0  0  0  0  0  0  0  0  0  0  0
  121.2010  106.5911  106.6803 H   0  0  0  0  0  0  0  0  0  0  0  0
  1  2  3  0  0  0  0
  1  7  1  0  0  0  0
  2 12  1  0  0  0  0
  3  4  1  0  0  0  0
  3  5  2  0  0  0  0
  4  6  2  0  0  0  0
  5  7  1  0  0  0  0
  6  8  1  0  0  0  0
  7  8  2  0  0  0  0
  8 13  1  0  0  0  0
  9 14  1  0  0  0  0
 10 14  1  0  0  0  0
 11 17  1  0  0  0  0
 12 15  1  0  0  0  0
 13 16  1  0  0  0  0
 14 17  1  0  0  0  0
 16 20  1  0  0  0  0
 17 20  1  0  0  0  0
 18 20  2  0  0  0  0
 19 20  2  0  0  0  0
  3 21  1  0  0  0  0
  4 22  1  0  0  0  0
  5 23  1  0  0  0  0
  6 24  1  0  0  0  0
  9 25  1  0  0  0  0
  9 26  1  0  0  0  0
  9 27  1  0  0  0  0
 10 28  1  0  0  0  0
 10 29  1  0  0  0  0
 10 30  1  0  0  0  0
 11 31  1  0  0  0  0
 11 32  1  0  0  0  0
 11 33  1  0  0  0  0
 12 34  1  0  0  0  0
 12 35  1  0  0  0  0
 13 36  1  0  0  0  0
 13 37  1  0  0  0  0
 14 38  1  0  0  0  0
 15 39  1  0  0  0  0
 15 40  1  0  0  0  0
 16 41  1  0  0  0  0
M  END
> <FRED Chemgauss4 score>
-9.626985

$$$$
C05749668	P112644024
  -OEChem-05122015313D

 36 37  0     1  0  0  0  0  0999 V2000
  123.2597  104.6866  106.4480 C   0  0  0  0  0  0  0  0  0  0  0  0
  124.1890  106.7599  108.0669 C   0  0  0  0  0  0  0  0  0  0  0  0
  124.4328  104.5239  107.1848 C   0  0  0  0  0  0  0  0  0  0  0  0
  122.5512  105.8860  106.5206 C   0  0  0  0  0  0  0  0  0  0  0  0
  124.8975  105.5605  107.9942 C   0  0  0  0  0  0  0  0  0  0  0  0
  123.0158  106.9226  107.3301 C   0  0  0  0  0  0  0  0  0  0  0  0
  118.6237  103.6518  105.6118 C   0  0  0  0  0  0  0  0  0  0  0  0
  117.3483  104.4760  105.7805 C   0  0  0  0  0  0  0  0  0  0  0  0
  119.6479  103.9917  106.6873 C   0  0  0  0  0  0  0  0  0  0  0  0
  118.7084  106.2729  106.9125 C   0  0  0  0  0  0  0  0  0  0  0  0
  117.6617  105.9787  105.8324 C   0  0  2  0  0  0  0  0  0  0  0  0
  125.1617  103.2234  107.0807 C   0  0  0  0  0  0  0  0  0  0  0  0
  116.3900  106.7867  106.0808 C   0  0  0  0  0  0  0  0  0  0  0  0
  119.9326  105.4526  106.6929 N   0  0  2  0  0  0  0  0  0  0  0  0
  120.8343  107.4418  105.3353 O   0  0  0  0  0  0  0  0  0  0  0  0
  121.1606  105.1008  104.4629 O   0  0  0  0  0  0  0  0  0  0  0  0
  121.0745  106.0339  105.5652 S   0  0  0  0  0  0  0  0  0  0  0  0
  126.3452  105.3955  108.9197 Cl  0  0  0  0  0  0  0  0  0  0  0  0
  122.1752  108.4260  107.4561 Cl  0  0  0  0  0  0  0  0  0  0  0  0
  122.8992  103.8763  105.8185 H   0  0  0  0  0  0  0  0  0  0  0  0
  124.5521  107.5681  108.6986 H   0  0  0  0  0  0  0  0  0  0  0  0
  118.3817  102.5844  105.6533 H   0  0  0  0  0  0  0  0  0  0  0  0
  119.0514  103.8488  104.6210 H   0  0  0  0  0  0  0  0  0  0  0  0
  116.6636  104.2625  104.9496 H   0  0  0  0  0  0  0  0  0  0  0  0
  116.8354  104.1668  106.7018 H   0  0  0  0  0  0  0  0  0  0  0  0
  119.2851  103.6816  107.6790 H   0  0  0  0  0  0  0  0  0  0  0  0
  120.5761  103.4389  106.4813 H   0  0  0  0  0  0  0  0  0  0  0  0
  118.9786  107.3390  106.8721 H   0  0  0  0  0  0  0  0  0  0  0  0
  118.3061  106.0694  107.9173 H   0  0  0  0  0  0  0  0  0  0  0  0
  118.0715  106.2768  104.8587 H   0  0  0  0  0  0  0  0  0  0  0  0
  125.8930  103.2631  106.2656 H   0  0  0  0  0  0  0  0  0  0  0  0
  125.6889  102.9898  108.0134 H   0  0  0  0  0  0  0  0  0  0  0  0
  124.4680  102.3957  106.8892 H   0  0  0  0  0  0  0  0  0  0  0  0
  115.9595  106.5117  107.0425 H   0  0  0  0  0  0  0  0  0  0  0  0
  115.6643  106.5844  105.2947 H   0  0  0  0  0  0  0  0  0  0  0  0
  116.6231  107.8504  106.0857 H   0  0  0  0  0  0  0  0  0  0  0  0
  1  3  1  0  0  0  0
  1  4  2  0  0  0  0
  2  5  1  0  0  0  0
  2  6  2  0  0  0  0
  3  5  2  0  0  0  0
  3 12  1  0  0  0  0
  4  6  1  0  0  0  0
  4 17  1  0  0  0  0
  5 18  1  0  0  0  0
  6 19  1  0  0  0  0
  7  8  1  0  0  0  0
  7  9  1  0  0  0  0
  8 11  1  0  0  0  0
  9 14  1  0  0  0  0
 10 11  1  0  0  0  0
 10 14  1  0  0  0  0
 11 13  1  0  0  0  0
 14 17  1  0  0  0  0
 15 17  2  0  0  0  0
 16 17  2  0  0  0  0
  1 20  1  0  0  0  0
  2 21  1  0  0  0  0
  7 22  1  0  0  0  0
  7 23  1  0  0  0  0
  8 24  1  0  0  0  0
  8 25  1  0  0  0  0
  9 26  1  0  0  0  0
  9 27  1  0  0  0  0
 10 28  1  0  0  0  0
 10 29  1  0  0  0  0
 11 30  1  0  0  0  0
 12 31  1  0  0  0  0
 12 32  1  0  0  0  0
 12 33  1  0  0  0  0
 13 34  1  0  0  0  0
 13 35  1  0  0  0  0
 13 36  1  0  0  0  0
M  END
> <FRED Chemgauss4 score>
-9.623935

$$$$
C80590635	P125852228
  -OEChem-05122015313D

 29 30  0     0  0  0  0  0  0999 V2000
  117.1306  106.9777  103.2980 C   0  0  0  0  0  0  0  0  0  0  0  0
  117.0563  105.9318  104.2112 C   0  0  0  0  0  0  0  0  0  0  0  0
  118.3669  107.5657  103.0845 C   0  0  0  0  0  0  0  0  0  0  0  0
  125.9046  107.6072  106.8394 C   0  0  0  0  0  0  0  0  0  0  0  0
  118.2044  105.5118  104.8736 C   0  0  0  0  0  0  0  0  0  0  0  0
  119.3927  106.1652  104.5894 C   0  0  0  0  0  0  0  0  0  0  0  0
  124.0807  106.7573  106.2843 C   0  0  0  0  0  0  0  0  0  0  0  0
  118.1153  104.4188  105.8321 C   0  0  0  0  0  0  0  0  0  0  0  0
  122.8607  105.8823  106.1330 C   0  0  0  0  0  0  0  0  0  0  0  0
  121.7251  106.5692  105.3783 C   0  0  0  0  0  0  0  0  0  0  0  0
  119.5039  107.1850  103.7089 N   0  0  0  0  0  0  0  0  0  0  0  0
  125.0947  106.5363  107.0883 N   0  0  0  0  0  0  0  0  0  0  0  0
  124.2877  107.9100  105.5928 N   0  0  0  0  0  0  0  0  0  0  0  0
  125.4555  108.4768  105.9320 N   0  0  0  0  0  0  0  0  0  0  0  0
  116.8667  103.8420  106.0390 N   0  0  0  0  0  0  0  0  0  0  0  0
  120.5673  105.7444  105.2626 N   0  0  0  0  0  0  0  0  0  0  0  0
  119.1141  104.0244  106.4570 O   0  0  0  0  0  0  0  0  0  0  0  0
  116.2481  107.3228  102.7715 H   0  0  0  0  0  0  0  0  0  0  0  0
  116.0990  105.4526  104.3985 H   0  0  0  0  0  0  0  0  0  0  0  0
  118.4779  108.3853  102.3822 H   0  0  0  0  0  0  0  0  0  0  0  0
  126.8514  107.7436  107.3453 H   0  0  0  0  0  0  0  0  0  0  0  0
  122.5108  105.5970  107.1332 H   0  0  0  0  0  0  0  0  0  0  0  0
  123.1356  104.9458  105.6309 H   0  0  0  0  0  0  0  0  0  0  0  0
  121.4163  107.4737  105.9117 H   0  0  0  0  0  0  0  0  0  0  0  0
  122.0284  106.8565  104.3662 H   0  0  0  0  0  0  0  0  0  0  0  0
  125.7895  109.3457  105.5242 H   0  0  0  0  0  0  0  0  0  0  0  0
  116.0661  104.1932  105.5248 H   0  0  0  0  0  0  0  0  0  0  0  0
  116.7399  103.0770  106.6939 H   0  0  0  0  0  0  0  0  0  0  0  0
  120.5509  104.8276  105.6596 H   0  0  0  0  0  0  0  0  0  0  0  0
  1  2  1  0  0  0  0
  1  3  2  0  0  0  0
  2  5  2  0  0  0  0
  3 11  1  0  0  0  0
  4 12  2  0  0  0  0
  4 14  1  0  0  0  0
  5  6  1  0  0  0  0
  5  8  1  0  0  0  0
  6 11  2  0  0  0  0
  6 16  1  0  0  0  0
  7  9  1  0  0  0  0
  7 12  1  0  0  0  0
  7 13  2  0  0  0  0
  8 15  1  0  0  0  0
  8 17  2  0  0  0  0
  9 10  1  0  0  0  0
 10 16  1  0  0  0  0
 13 14  1  0  0  0  0
  1 18  1  0  0  0  0
  2 19  1  0  0  0  0
  3 20  1  0  0  0  0
  4 21  1  0  0  0  0
  9 22  1  0  0  0  0
  9 23  1  0  0  0  0
 10 24  1  0  0  0  0
 10 25  1  0  0  0  0
 14 26  1  0  0  0  0
 15 27  1  0  0  0  0
 15 28  1  0  0  0  0
 16 29  1  0  0  0  0
M  END
> <FRED Chemgauss4 score>
-9.615272

$$$$
C69232463	P106461500
  -OEChem-05122015313D

 48 50  0     1  0  0  0  0  0999 V2000
  124.3773  108.6404  106.9640 C   0  0  0  0  0  0  0  0  0  0  0  0
  116.9386  106.1740  104.2559 C   0  0  0  0  0  0  0  0  0  0  0  0
  125.1566  106.5674  108.7574 C   0  0  0  0  0  0  0  0  0  0  0  0
  124.9141  105.5599  107.6685 C   0  0  0  0  0  0  0  0  0  0  0  0
  118.3273  106.7003  103.9042 C   0  0  0  0  0  0  0  0  0  0  0  0
  120.4942  103.9672  106.5842 C   0  0  0  0  0  0  0  0  0  0  0  0
  117.1494  105.2765  105.4705 C   0  0  0  0  0  0  0  0  0  0  0  0
  119.0791  104.5192  106.7553 C   0  0  0  0  0  0  0  0  0  0  0  0
  121.6351  104.9909  106.6569 C   0  0  0  0  0  0  0  0  0  0  0  0
  120.6752  106.3128  104.8030 C   0  0  0  0  0  0  0  0  0  0  0  0
  123.7996  106.4639  108.1180 C   0  0  0  0  0  0  0  0  0  0  0  0
  119.1785  106.3544  105.1240 C   0  0  2  0  0  0  0  0  0  0  0  0
  122.5245  108.3605  109.3369 C   0  0  0  0  0  0  0  0  0  0  0  0
  122.7276  106.9880  105.8901 C   0  0  0  0  0  0  0  0  0  0  0  0
  123.2971  107.5710  107.2061 C   0  0  2  0  0  0  0  0  0  0  0  0
  118.5963  105.0628  105.4913 N   0  0  2  0  0  0  0  0  0  0  0  0
  121.4398  106.3122  106.0514 N   0  0  2  0  0  0  0  0  0  0  0  0
  125.1916  108.4083  105.8766 N   0  0  0  0  0  0  0  0  0  0  0  0
  122.1997  108.2374  107.9282 N   0  0  0  0  0  0  0  0  0  0  0  0
  124.5079  109.6293  107.6851 O   0  0  0  0  0  0  0  0  0  0  0  0
  116.2543  106.9949  104.4954 H   0  0  0  0  0  0  0  0  0  0  0  0
  116.5188  105.6179  103.4106 H   0  0  0  0  0  0  0  0  0  0  0  0
  125.2843  106.1965  109.7669 H   0  0  0  0  0  0  0  0  0  0  0  0
  125.7619  107.4330  108.5175 H   0  0  0  0  0  0  0  0  0  0  0  0
  125.3571  105.7499  106.6986 H   0  0  0  0  0  0  0  0  0  0  0  0
  124.8792  104.5145  107.9490 H   0  0  0  0  0  0  0  0  0  0  0  0
  118.6967  106.1948  103.0027 H   0  0  0  0  0  0  0  0  0  0  0  0
  118.3130  107.7765  103.7033 H   0  0  0  0  0  0  0  0  0  0  0  0
  120.6699  103.2184  107.3678 H   0  0  0  0  0  0  0  0  0  0  0  0
  120.5606  103.4172  105.6352 H   0  0  0  0  0  0  0  0  0  0  0  0
  116.8026  105.7899  106.3764 H   0  0  0  0  0  0  0  0  0  0  0  0
  116.5990  104.3356  105.3725 H   0  0  0  0  0  0  0  0  0  0  0  0
  118.4376  103.6749  107.0385 H   0  0  0  0  0  0  0  0  0  0  0  0
  119.0279  105.2485  107.5729 H   0  0  0  0  0  0  0  0  0  0  0  0
  121.8661  105.1525  107.7180 H   0  0  0  0  0  0  0  0  0  0  0  0
  122.5198  104.5030  106.2246 H   0  0  0  0  0  0  0  0  0  0  0  0
  120.9443  105.4706  104.1527 H   0  0  0  0  0  0  0  0  0  0  0  0
  120.9020  107.2225  104.2306 H   0  0  0  0  0  0  0  0  0  0  0  0
  123.0005  106.0243  108.7025 H   0  0  0  0  0  0  0  0  0  0  0  0
  118.9837  107.1055  105.9049 H   0  0  0  0  0  0  0  0  0  0  0  0
  123.4305  108.9590  109.4627 H   0  0  0  0  0  0  0  0  0  0  0  0
  122.6920  107.3723  109.7739 H   0  0  0  0  0  0  0  0  0  0  0  0
  121.7046  108.8462  109.8727 H   0  0  0  0  0  0  0  0  0  0  0  0
  122.5946  107.7724  105.1357 H   0  0  0  0  0  0  0  0  0  0  0  0
  123.4338  106.2668  105.4597 H   0  0  0  0  0  0  0  0  0  0  0  0
  125.0566  107.5889  105.2936 H   0  0  0  0  0  0  0  0  0  0  0  0
  125.9359  109.0401  105.6019 H   0  0  0  0  0  0  0  0  0  0  0  0
  121.3588  107.6817  107.8139 H   0  0  0  0  0  0  0  0  0  0  0  0
  1 15  1  0  0  0  0
  1 18  1  0  0  0  0
  1 20  2  0  0  0  0
  2  5  1  0  0  0  0
  2  7  1  0  0  0  0
  3  4  1  0  0  0  0
  3 11  1  0  0  0  0
  4 11  1  0  0  0  0
  5 12  1  0  0  0  0
  6  8  1  0  0  0  0
  6  9  1  0  0  0  0
  7 16  1  0  0  0  0
  8 16  1  0  0  0  0
  9 17  1  0  0  0  0
 10 12  1  0  0  0  0
 10 17  1  0  0  0  0
 11 15  1  0  0  0  0
 12 16  1  0  0  0  0
 13 19  1  0  0  0  0
 14 15  1  0  0  0  0
 14 17  1  0  0  0  0
 15 19  1  0  0  0  0
  2 21  1  0  0  0  0
  2 22  1  0  0  0  0
  3 23  1  0  0  0  0
  3 24  1  0  0  0  0
  4 25  1  0  0  0  0
  4 26  1  0  0  0  0
  5 27  1  0  0  0  0
  5 28  1  0  0  0  0
  6 29  1  0  0  0  0
  6 30  1  0  0  0  0
  7 31  1  0  0  0  0
  7 32  1  0  0  0  0
  8 33  1  0  0  0  0
  8 34  1  0  0  0  0
  9 35  1  0  0  0  0
  9 36  1  0  0  0  0
 10 37  1  0  0  0  0
 10 38  1  0  0  0  0
 11 39  1  0  0  0  0
 12 40  1  0  0  0  0
 13 41  1  0  0  0  0
 13 42  1  0  0  0  0
 13 43  1  0  0  0  0
 14 44  1  0  0  0  0
 14 45  1  0  0  0  0
 18 46  1  0  0  0  0
 18 47  1  0  0  0  0
 19 48  1  0  0  0  0
M  END
> <FRED Chemgauss4 score>
-9.613548

$$$$
C97831917	P155269791
  -OEChem-05122015313D

 38 38  0     1  0  0  0  0  0999 V2000
  124.9503  107.5666  108.5551 C   0  0  0  0  0  0  0  0  0  0  0  0
  124.1086  107.8802  109.5942 C   0  0  0  0  0  0  0  0  0  0  0  0
  125.5036  108.8010  108.1656 C   0  0  0  0  0  0  0  0  0  0  0  0
  123.2365  107.0356  110.4327 C   0  0  0  0  0  0  0  0  0  0  0  0
  119.6921  105.6220  106.5137 C   0  0  0  0  0  0  0  0  0  0  0  0
  123.5075  110.0402  110.7295 C   0  0  0  0  0  0  0  0  0  0  0  0
  124.1139  106.9016  105.5561 C   0  0  0  0  0  0  0  0  0  0  0  0
  121.9672  104.7418  105.8779 C   0  0  0  0  0  0  0  0  0  0  0  0
  122.6895  105.4979  106.9920 C   0  0  0  0  0  0  0  0  0  0  0  0
  120.5197  104.3757  106.2264 C   0  0  1  0  0  0  0  0  0  0  0  0
  125.0514  109.8227  108.8974 N   0  0  0  0  0  0  0  0  0  0  0  0
  124.2049  109.2309  109.7572 N   0  0  0  0  0  0  0  0  0  0  0  0
  126.3993  108.8996  107.1482 N   0  0  0  0  0  0  0  0  0  0  0  0
  124.0341  105.8514  106.6294 N   0  0  2  0  0  0  0  0  0  0  0  0
  126.5576  105.9987  107.2410 O   0  0  0  0  0  0  0  0  0  0  0  0
  125.0021  104.9928  108.9300 O   0  0  0  0  0  0  0  0  0  0  0  0
  120.5134  103.5438  107.3830 O   0  0  0  0  0  0  0  0  0  0  0  0
  125.2535  105.9590  107.8766 S   0  0  0  0  0  0  0  0  0  0  0  0
  123.7729  106.6723  111.3248 H   0  0  0  0  0  0  0  0  0  0  0  0
  122.3412  107.5801  110.7792 H   0  0  0  0  0  0  0  0  0  0  0  0
  122.8627  106.1535  109.8845 H   0  0  0  0  0  0  0  0  0  0  0  0
  120.1290  106.2027  107.3337 H   0  0  0  0  0  0  0  0  0  0  0  0
  119.6173  106.2624  105.6296 H   0  0  0  0  0  0  0  0  0  0  0  0
  118.6802  105.3456  106.8291 H   0  0  0  0  0  0  0  0  0  0  0  0
  124.1249  110.0922  111.6302 H   0  0  0  0  0  0  0  0  0  0  0  0
  123.3437  111.0409  110.3200 H   0  0  0  0  0  0  0  0  0  0  0  0
  122.5401  109.5822  110.9538 H   0  0  0  0  0  0  0  0  0  0  0  0
  125.1589  107.1254  105.3264 H   0  0  0  0  0  0  0  0  0  0  0  0
  123.6222  107.8199  105.8886 H   0  0  0  0  0  0  0  0  0  0  0  0
  123.6209  106.5499  104.6458 H   0  0  0  0  0  0  0  0  0  0  0  0
  121.9703  105.3826  104.9870 H   0  0  0  0  0  0  0  0  0  0  0  0
  122.5271  103.8315  105.6311 H   0  0  0  0  0  0  0  0  0  0  0  0
  122.1621  106.4325  107.2092 H   0  0  0  0  0  0  0  0  0  0  0  0
  122.7333  104.9139  107.9160 H   0  0  0  0  0  0  0  0  0  0  0  0
  120.0603  103.8163  105.4043 H   0  0  0  0  0  0  0  0  0  0  0  0
  126.7453  108.0708  106.6522 H   0  0  0  0  0  0  0  0  0  0  0  0
  126.8354  109.7942  106.8988 H   0  0  0  0  0  0  0  0  0  0  0  0
  119.5864  103.3172  107.5558 H   0  0  0  0  0  0  0  0  0  0  0  0
  1  2  2  0  0  0  0
  1  3  1  0  0  0  0
  1 18  1  0  0  0  0
  2  4  1  0  0  0  0
  2 12  1  0  0  0  0
  3 11  2  0  0  0  0
  3 13  1  0  0  0  0
  5 10  1  0  0  0  0
  6 12  1  0  0  0  0
  7 14  1  0  0  0  0
  8  9  1  0  0  0  0
  8 10  1  0  0  0  0
  9 14  1  0  0  0  0
 10 17  1  0  0  0  0
 11 12  1  0  0  0  0
 14 18  1  0  0  0  0
 15 18  2  0  0  0  0
 16 18  2  0  0  0  0
  4 19  1  0  0  0  0
  4 20  1  0  0  0  0
  4 21  1  0  0  0  0
  5 22  1  0  0  0  0
  5 23  1  0  0  0  0
  5 24  1  0  0  0  0
  6 25  1  0  0  0  0
  6 26  1  0  0  0  0
  6 27  1  0  0  0  0
  7 28  1  0  0  0  0
  7 29  1  0  0  0  0
  7 30  1  0  0  0  0
  8 31  1  0  0  0  0
  8 32  1  0  0  0  0
  9 33  1  0  0  0  0
  9 34  1  0  0  0  0
 10 35  1  0  0  0  0
 13 36  1  0  0  0  0
 13 37  1  0  0  0  0
 17 38  1  0  0  0  0
M  END
> <FRED Chemgauss4 score>
-9.613422

$$$$
C40304308	P61186967
  -OEChem-05122015313D

 34 34  0     0  0  0  0  0  0999 V2000
  123.9690  107.2213  105.8818 C   0  0  0  0  0  0  0  0  0  0  0  0
  123.7467  105.1640  107.1287 C   0  0  0  0  0  0  0  0  0  0  0  0
  123.2180  106.1027  106.2428 C   0  0  0  0  0  0  0  0  0  0  0  0
  125.2489  107.4011  106.4067 C   0  0  0  0  0  0  0  0  0  0  0  0
  125.0265  105.3437  107.6537 C   0  0  0  0  0  0  0  0  0  0  0  0
  125.7775  106.4623  107.2926 C   0  0  0  0  0  0  0  0  0  0  0  0
  121.8552  105.9111  105.6831 C   0  0  0  0  0  0  0  0  0  0  0  0
  118.7031  105.9723  106.5204 C   0  0  0  0  0  0  0  0  0  0  0  0
  117.2898  108.5492  105.1705 C   0  0  0  0  0  0  0  0  0  0  0  0
  119.6276  104.8805  106.0458 C   0  0  0  0  0  0  0  0  0  0  0  0
  116.0675  107.6702  105.3940 C   0  0  0  0  0  0  0  0  0  0  0  0
  116.2934  106.6081  106.4633 C   0  0  0  0  0  0  0  0  0  0  0  0
  125.9806  108.5467  106.0180 N   0  0  0  0  0  0  0  0  0  0  0  0
  121.0028  105.1790  106.4715 N   0  0  0  0  0  0  0  0  0  0  0  0
  117.3917  105.7261  106.1398 N   0  0  0  0  0  0  0  0  0  0  0  0
  121.5874  106.3828  104.5812 O   0  0  0  0  0  0  0  0  0  0  0  0
  119.0827  106.9471  107.1639 O   0  0  0  0  0  0  0  0  0  0  0  0
  125.6190  104.1406  108.7460 Cl  0  0  0  0  0  0  0  0  0  0  0  0
  127.3725  106.7044  107.9367 Cl  0  0  0  0  0  0  0  0  0  0  0  0
  123.5548  107.9528  105.1910 H   0  0  0  0  0  0  0  0  0  0  0  0
  123.1550  104.2937  107.4051 H   0  0  0  0  0  0  0  0  0  0  0  0
  117.5758  109.0650  106.0927 H   0  0  0  0  0  0  0  0  0  0  0  0
  118.1389  107.9384  104.8472 H   0  0  0  0  0  0  0  0  0  0  0  0
  117.1044  109.3016  104.3977 H   0  0  0  0  0  0  0  0  0  0  0  0
  119.3177  103.9230  106.4746 H   0  0  0  0  0  0  0  0  0  0  0  0
  119.5956  104.8158  104.9542 H   0  0  0  0  0  0  0  0  0  0  0  0
  115.8156  107.1738  104.4497 H   0  0  0  0  0  0  0  0  0  0  0  0
  115.2140  108.3025  105.6660 H   0  0  0  0  0  0  0  0  0  0  0  0
  116.5361  107.0841  107.4185 H   0  0  0  0  0  0  0  0  0  0  0  0
  115.4000  105.9922  106.6068 H   0  0  0  0  0  0  0  0  0  0  0  0
  125.5846  109.1693  105.3456 H   0  0  0  0  0  0  0  0  0  0  0  0
  126.9149  108.6604  106.3508 H   0  0  0  0  0  0  0  0  0  0  0  0
  121.2921  104.7619  107.3373 H   0  0  0  0  0  0  0  0  0  0  0  0
  117.1937  104.8840  105.6071 H   0  0  0  0  0  0  0  0  0  0  0  0
  1  3  1  0  0  0  0
  1  4  2  0  0  0  0
  2  3  2  0  0  0  0
  2  5  1  0  0  0  0
  3  7  1  0  0  0  0
  4  6  1  0  0  0  0
  4 13  1  0  0  0  0
  5  6  2  0  0  0  0
  5 18  1  0  0  0  0
  6 19  1  0  0  0  0
  7 14  1  0  0  0  0
  7 16  2  0  0  0  0
  8 10  1  0  0  0  0
  8 15  1  0  0  0  0
  8 17  2  0  0  0  0
  9 11  1  0  0  0  0
 10 14  1  0  0  0  0
 11 12  1  0  0  0  0
 12 15  1  0  0  0  0
  1 20  1  0  0  0  0
  2 21  1  0  0  0  0
  9 22  1  0  0  0  0
  9 23  1  0  0  0  0
  9 24  1  0  0  0  0
 10 25  1  0  0  0  0
 10 26  1  0  0  0  0
 11 27  1  0  0  0  0
 11 28  1  0  0  0  0
 12 29  1  0  0  0  0
 12 30  1  0  0  0  0
 13 31  1  0  0  0  0
 13 32  1  0  0  0  0
 14 33  1  0  0  0  0
 15 34  1  0  0  0  0
M  END
> <FRED Chemgauss4 score>
-9.612867

$$$$
C41058875	P62326300
  -OEChem-05122015313D

 35 36  0     1  0  0  0  0  0999 V2000
  124.3686  108.2054  107.2148 C   0  0  0  0  0  0  0  0  0  0  0  0
  123.8690  109.2874  108.9285 C   0  0  0  0  0  0  0  0  0  0  0  0
  124.4748  104.2053  107.1441 C   0  0  0  0  0  0  0  0  0  0  0  0
  123.1864  105.0168  107.1853 C   0  0  0  0  0  0  0  0  0  0  0  0
  125.7028  105.0811  107.3558 C   0  0  0  0  0  0  0  0  0  0  0  0
  123.2034  106.1674  106.1819 C   0  0  0  0  0  0  0  0  0  0  0  0
  125.7626  106.2321  106.3546 C   0  0  0  0  0  0  0  0  0  0  0  0
  124.4640  107.0499  106.2315 C   0  0  0  0  0  0  0  0  0  0  0  0
  122.8032  109.1628  112.6655 C   0  0  0  0  0  0  0  0  0  0  0  0
  123.2581  108.6636  111.2995 C   0  0  0  0  0  0  0  0  0  0  0  0
  123.3752  109.7806  110.2242 C   0  0  1  0  0  0  0  0  0  0  0  0
  123.7117  108.0931  108.4066 N   0  0  0  0  0  0  0  0  0  0  0  0
  124.9225  109.3941  106.9665 N   0  0  0  0  0  0  0  0  0  0  0  0
  124.5884  110.0674  108.0778 N   0  0  0  0  0  0  0  0  0  0  0  0
  124.1857  110.8824  110.7398 N   0  0  0  0  0  0  0  0  0  0  0  0
  124.4420  103.4285  107.9199 H   0  0  0  0  0  0  0  0  0  0  0  0
  124.5533  103.6868  106.1803 H   0  0  0  0  0  0  0  0  0  0  0  0
  122.3325  104.3596  106.9707 H   0  0  0  0  0  0  0  0  0  0  0  0
  123.0323  105.4137  108.1969 H   0  0  0  0  0  0  0  0  0  0  0  0
  125.6985  105.4822  108.3773 H   0  0  0  0  0  0  0  0  0  0  0  0
  126.6101  104.4689  107.2609 H   0  0  0  0  0  0  0  0  0  0  0  0
  123.0753  105.7548  105.1572 H   0  0  0  0  0  0  0  0  0  0  0  0
  122.3004  106.7979  106.3423 H   0  0  0  0  0  0  0  0  0  0  0  0
  126.6032  106.9067  106.6322 H   0  0  0  0  0  0  0  0  0  0  0  0
  126.0476  105.8291  105.3582 H   0  0  0  0  0  0  0  0  0  0  0  0
  124.5201  107.5686  105.2036 H   0  0  0  0  0  0  0  0  0  0  0  0
  121.8432  109.6837  112.5929 H   0  0  0  0  0  0  0  0  0  0  0  0
  122.6792  108.3192  113.3519 H   0  0  0  0  0  0  0  0  0  0  0  0
  123.5353  109.8475  113.1047 H   0  0  0  0  0  0  0  0  0  0  0  0
  124.2204  108.1496  111.4173 H   0  0  0  0  0  0  0  0  0  0  0  0
  122.5383  107.9126  110.9497 H   0  0  0  0  0  0  0  0  0  0  0  0
  122.3626  110.2291  110.1228 H   0  0  0  0  0  0  0  0  0  0  0  0
  124.8812  111.0322  108.1790 H   0  0  0  0  0  0  0  0  0  0  0  0
  124.1729  111.0530  111.7213 H   0  0  0  0  0  0  0  0  0  0  0  0
  124.5520  111.5391  110.0861 H   0  0  0  0  0  0  0  0  0  0  0  0
  1  8  1  0  0  0  0
  1 12  1  0  0  0  0
  1 13  2  0  0  0  0
  2 11  1  0  0  0  0
  2 12  2  0  0  0  0
  2 14  1  0  0  0  0
  3  4  1  0  0  0  0
  3  5  1  0  0  0  0
  4  6  1  0  0  0  0
  5  7  1  0  0  0  0
  6  8  1  0  0  0  0
  7  8  1  0  0  0  0
  9 10  1  0  0  0  0
 10 11  1  0  0  0  0
 11 15  1  0  0  0  0
 13 14  1  0  0  0  0
  3 16  1  0  0  0  0
  3 17  1  0  0  0  0
  4 18  1  0  0  0  0
  4 19  1  0  0  0  0
  5 20  1  0  0  0  0
  5 21  1  0  0  0  0
  6 22  1  0  0  0  0
  6 23  1  0  0  0  0
  7 24  1  0  0  0  0
  7 25  1  0  0  0  0
  8 26  1  0  0  0  0
  9 27  1  0  0  0  0
  9 28  1  0  0  0  0
  9 29  1  0  0  0  0
 10 30  1  0  0  0  0
 10 31  1  0  0  0  0
 11 32  1  0  0  0  0
 14 33  1  0  0  0  0
 15 34  1  0  0  0  0
 15 35  1  0  0  0  0
M  END
> <FRED Chemgauss4 score>
-9.608761

$$$$
C63135618	P96947687
  -OEChem-05122015313D

 39 41  0     1  0  0  0  0  0999 V2000
  119.4759  103.8667  106.2793 C   0  0  0  0  0  0  0  0  0  0  0  0
  118.3819  103.2176  105.6974 C   0  0  0  0  0  0  0  0  0  0  0  0
  117.0413  105.2484  105.7772 C   0  0  0  0  0  0  0  0  0  0  0  0
  126.0335  104.7795  107.6667 C   0  0  0  0  0  0  0  0  0  0  0  0
  118.1301  105.9162  106.3628 C   0  0  0  0  0  0  0  0  0  0  0  0
  119.3096  105.2150  106.5970 C   0  0  0  0  0  0  0  0  0  0  0  0
  117.1853  103.8943  105.4499 C   0  0  0  0  0  0  0  0  0  0  0  0
  126.0209  106.1441  107.4667 C   0  0  0  0  0  0  0  0  0  0  0  0
  119.4703  107.3235  107.2475 C   0  0  0  0  0  0  0  0  0  0  0  0
  123.9467  105.7089  106.9025 C   0  0  0  0  0  0  0  0  0  0  0  0
  127.1611  107.0573  107.6799 C   0  0  0  0  0  0  0  0  0  0  0  0
  119.1622  109.7702  107.7647 C   0  0  0  0  0  0  0  0  0  0  0  0
  122.5223  105.9015  106.4441 C   0  0  0  0  0  0  0  0  0  0  0  0
  121.5085  105.9012  107.5931 C   0  0  0  0  0  0  0  0  0  0  0  0
  120.0829  108.5429  107.8136 C   0  0  2  0  0  0  0  0  0  0  0  0
  118.2488  107.2242  106.7731 N   0  0  0  0  0  0  0  0  0  0  0  0
  124.8252  106.6787  107.0281 N   0  0  0  0  0  0  0  0  0  0  0  0
  120.1491  106.1398  107.1633 N   0  0  0  0  0  0  0  0  0  0  0  0
  116.1026  103.2037  104.8603 N   0  0  0  0  0  0  0  0  0  0  0  0
  121.2779  108.8653  107.0837 O   0  0  0  0  0  0  0  0  0  0  0  0
  124.4906  104.1294  107.2953 S   0  0  0  0  0  0  0  0  0  0  0  0
  120.4042  103.3406  106.4710 H   0  0  0  0  0  0  0  0  0  0  0  0
  118.4771  102.1653  105.4369 H   0  0  0  0  0  0  0  0  0  0  0  0
  116.1115  105.7757  105.5852 H   0  0  0  0  0  0  0  0  0  0  0  0
  126.8463  104.1511  108.0026 H   0  0  0  0  0  0  0  0  0  0  0  0
  127.7623  107.1628  106.7621 H   0  0  0  0  0  0  0  0  0  0  0  0
  126.8321  108.0658  107.9830 H   0  0  0  0  0  0  0  0  0  0  0  0
  127.8314  106.7017  108.4810 H   0  0  0  0  0  0  0  0  0  0  0  0
  118.8133  109.9554  106.7438 H   0  0  0  0  0  0  0  0  0  0  0  0
  119.6810  110.6674  108.1209 H   0  0  0  0  0  0  0  0  0  0  0  0
  118.2892  109.6398  108.4135 H   0  0  0  0  0  0  0  0  0  0  0  0
  122.2630  105.1314  105.7065 H   0  0  0  0  0  0  0  0  0  0  0  0
  122.4578  106.8582  105.9099 H   0  0  0  0  0  0  0  0  0  0  0  0
  121.5298  104.9549  108.1468 H   0  0  0  0  0  0  0  0  0  0  0  0
  121.7568  106.6939  108.3095 H   0  0  0  0  0  0  0  0  0  0  0  0
  120.3990  108.4112  108.8681 H   0  0  0  0  0  0  0  0  0  0  0  0
  116.2261  102.2515  104.5858 H   0  0  0  0  0  0  0  0  0  0  0  0
  115.2672  103.7063  104.6435 H   0  0  0  0  0  0  0  0  0  0  0  0
  121.6317  109.6649  107.4956 H   0  0  0  0  0  0  0  0  0  0  0  0
  1  2  2  0  0  0  0
  1  6  1  0  0  0  0
  2  7  1  0  0  0  0
  3  5  1  0  0  0  0
  3  7  2  0  0  0  0
  4  8  2  0  0  0  0
  4 21  1  0  0  0  0
  5  6  2  0  0  0  0
  5 16  1  0  0  0  0
  6 18  1  0  0  0  0
  7 19  1  0  0  0  0
  8 11  1  0  0  0  0
  8 17  1  0  0  0  0
  9 15  1  0  0  0  0
  9 16  2  0  0  0  0
  9 18  1  0  0  0  0
 10 13  1  0  0  0  0
 10 17  2  0  0  0  0
 10 21  1  0  0  0  0
 12 15  1  0  0  0  0
 13 14  1  0  0  0  0
 14 18  1  0  0  0  0
 15 20  1  0  0  0  0
  1 22  1  0  0  0  0
  2 23  1  0  0  0  0
  3 24  1  0  0  0  0
  4 25  1  0  0  0  0
 11 26  1  0  0  0  0
 11 27  1  0  0  0  0
 11 28  1  0  0  0  0
 12 29  1  0  0  0  0
 12 30  1  0  0  0  0
 12 31  1  0  0  0  0
 13 32  1  0  0  0  0
 13 33  1  0  0  0  0
 14 34  1  0  0  0  0
 14 35  1  0  0  0  0
 15 36  1  0  0  0  0
 19 37  1  0  0  0  0
 19 38  1  0  0  0  0
 20 39  1  0  0  0  0
M  END
> <FRED Chemgauss4 score>
-9.602492

$$$$
C54497698	P82017927
  -OEChem-05122015313D

 29 30  0     1  0  0  0  0  0999 V2000
  124.9274  107.0030  108.7097 C   0  0  0  0  0  0  0  0  0  0  0  0
  126.2482  105.3902  109.4245 C   0  0  0  0  0  0  0  0  0  0  0  0
  120.2716  105.6922  104.2654 C   0  0  0  0  0  0  0  0  0  0  0  0
  124.5439  105.7805  108.2107 C   0  0  0  0  0  0  0  0  0  0  0  0
  121.7430  106.5135  105.6327 C   0  0  0  0  0  0  0  0  0  0  0  0
  118.8899  104.2584  106.4105 C   0  0  0  0  0  0  0  0  0  0  0  0
  123.3876  105.4673  107.2886 C   0  0  0  0  0  0  0  0  0  0  0  0
  120.3664  104.5994  106.5167 C   0  0  0  0  0  0  0  0  0  0  0  0
  122.5714  106.7171  106.8898 C   0  0  2  0  0  0  0  0  0  0  0  0
  125.3699  104.7807  108.6597 N   0  0  0  0  0  0  0  0  0  0  0  0
  120.8888  106.6695  103.6406 N   0  0  0  0  0  0  0  0  0  0  0  0
  121.8249  107.1920  104.5105 N   0  0  0  0  0  0  0  0  0  0  0  0
  126.0201  106.7369  109.4858 N   0  0  0  0  0  0  0  0  0  0  0  0
  120.7776  105.5591  105.5228 N   0  0  0  0  0  0  0  0  0  0  0  0
  121.7218  107.1381  108.0121 N   0  0  0  0  0  0  0  0  0  0  0  0
  124.5386  108.0041  108.5903 H   0  0  0  0  0  0  0  0  0  0  0  0
  127.0640  104.9210  109.9561 H   0  0  0  0  0  0  0  0  0  0  0  0
  119.4808  105.0716  103.8688 H   0  0  0  0  0  0  0  0  0  0  0  0
  118.2678  105.1512  106.5338 H   0  0  0  0  0  0  0  0  0  0  0  0
  118.6103  103.5379  107.1853 H   0  0  0  0  0  0  0  0  0  0  0  0
  118.6546  103.8198  105.4351 H   0  0  0  0  0  0  0  0  0  0  0  0
  122.7374  104.7469  107.8046 H   0  0  0  0  0  0  0  0  0  0  0  0
  123.7575  104.9393  106.3998 H   0  0  0  0  0  0  0  0  0  0  0  0
  120.9805  103.7003  106.3921 H   0  0  0  0  0  0  0  0  0  0  0  0
  120.5966  105.0162  107.5038 H   0  0  0  0  0  0  0  0  0  0  0  0
  123.2710  107.5438  106.7115 H   0  0  0  0  0  0  0  0  0  0  0  0
  126.5616  107.4121  110.0088 H   0  0  0  0  0  0  0  0  0  0  0  0
  120.9413  107.7163  107.8068 H   0  0  0  0  0  0  0  0  0  0  0  0
  122.0724  107.0016  108.9310 H   0  0  0  0  0  0  0  0  0  0  0  0
  1  4  2  0  0  0  0
  1 13  1  0  0  0  0
  2 10  2  0  0  0  0
  2 13  1  0  0  0  0
  3 11  2  0  0  0  0
  3 14  1  0  0  0  0
  4  7  1  0  0  0  0
  4 10  1  0  0  0  0
  5  9  1  0  0  0  0
  5 12  2  0  0  0  0
  5 14  1  0  0  0  0
  6  8  1  0  0  0  0
  7  9  1  0  0  0  0
  8 14  1  0  0  0  0
  9 15  1  0  0  0  0
 11 12  1  0  0  0  0
  1 16  1  0  0  0  0
  2 17  1  0  0  0  0
  3 18  1  0  0  0  0
  6 19  1  0  0  0  0
  6 20  1  0  0  0  0
  6 21  1  0  0  0  0
  7 22  1  0  0  0  0
  7 23  1  0  0  0  0
  8 24  1  0  0  0  0
  8 25  1  0  0  0  0
  9 26  1  0  0  0  0
 13 27  1  0  0  0  0
 15 28  1  0  0  0  0
 15 29  1  0  0  0  0
M  END
> <FRED Chemgauss4 score>
-9.599565

$$$$
C02278807	P06824920
  -OEChem-05122015313D

 26 26  0     1  0  0  0  0  0999 V2000
  123.9227  107.9003  109.6240 C   0  0  0  0  0  0  0  0  0  0  0  0
  126.2501  105.8710  108.8430 C   0  0  0  0  0  0  0  0  0  0  0  0
  125.7096  107.5822  107.1919 C   0  0  0  0  0  0  0  0  0  0  0  0
  123.9764  106.8025  108.7209 C   0  0  0  0  0  0  0  0  0  0  0  0
  122.9352  105.9782  108.4698 C   0  0  0  0  0  0  0  0  0  0  0  0
  121.9506  104.5663  105.6884 C   0  0  0  0  0  0  0  0  0  0  0  0
  124.6783  105.2567  107.0045 C   0  0  1  0  0  0  0  0  0  0  0  0
  125.2213  106.4042  107.9317 C   0  0  0  0  0  0  0  0  0  0  0  0
  125.4972  103.9682  106.9779 C   0  0  0  0  0  0  0  0  0  0  0  0
  123.8790  108.7954  110.3607 N   0  0  0  0  0  0  0  0  0  0  0  0
  127.0598  105.4513  109.5603 N   0  0  0  0  0  0  0  0  0  0  0  0
  126.0939  108.5093  106.6098 N   0  0  0  0  0  0  0  0  0  0  0  0
  123.3385  105.0272  107.5420 N   0  0  2  0  0  0  0  0  0  0  0  0
  121.6899  106.0648  109.0236 N   0  0  0  0  0  0  0  0  0  0  0  0
  121.1220  103.5983  105.1501 N   0  0  0  0  0  0  0  0  0  0  0  0
  122.4956  104.1656  106.8932 N   0  0  0  0  0  0  0  0  0  0  0  0
  122.1581  105.6462  105.1363 O   0  0  0  0  0  0  0  0  0  0  0  0
  124.5763  105.6200  105.9716 H   0  0  0  0  0  0  0  0  0  0  0  0
  125.6149  103.5843  107.9900 H   0  0  0  0  0  0  0  0  0  0  0  0
  126.4810  104.1645  106.5546 H   0  0  0  0  0  0  0  0  0  0  0  0
  124.9901  103.2207  106.3698 H   0  0  0  0  0  0  0  0  0  0  0  0
  121.5091  106.7955  109.6760 H   0  0  0  0  0  0  0  0  0  0  0  0
  121.0028  105.3946  108.7574 H   0  0  0  0  0  0  0  0  0  0  0  0
  120.9631  102.7140  105.6212 H   0  0  0  0  0  0  0  0  0  0  0  0
  120.6463  103.7450  104.2661 H   0  0  0  0  0  0  0  0  0  0  0  0
  122.3212  103.2760  107.3433 H   0  0  0  0  0  0  0  0  0  0  0  0
  1  4  1  0  0  0  0
  1 10  3  0  0  0  0
  2  8  1  0  0  0  0
  2 11  3  0  0  0  0
  3  8  1  0  0  0  0
  3 12  3  0  0  0  0
  4  5  2  0  0  0  0
  4  8  1  0  0  0  0
  5 13  1  0  0  0  0
  5 14  1  0  0  0  0
  6 15  1  0  0  0  0
  6 16  1  0  0  0  0
  6 17  2  0  0  0  0
  7  8  1  0  0  0  0
  7  9  1  0  0  0  0
  7 13  1  0  0  0  0
 13 16  1  0  0  0  0
  7 18  1  0  0  0  0
  9 19  1  0  0  0  0
  9 20  1  0  0  0  0
  9 21  1  0  0  0  0
 14 22  1  0  0  0  0
 14 23  1  0  0  0  0
 15 24  1  0  0  0  0
 15 25  1  0  0  0  0
 16 26  1  0  0  0  0
M  END
> <FRED Chemgauss4 score>
-9.599083

$$$$
C35415528	P52545805
  -OEChem-05122015313D

 27 27  0     0  0  0  0  0  0999 V2000
  119.1901  105.2700  106.5509 C   0  0  0  0  0  0  0  0  0  0  0  0
  121.1287  104.4843  106.3496 C   0  0  0  0  0  0  0  0  0  0  0  0
  125.2494  108.0467  107.4885 C   0  0  0  0  0  0  0  0  0  0  0  0
  118.1711  106.3206  106.6669 C   0  0  0  0  0  0  0  0  0  0  0  0
  122.6216  104.5285  106.2071 C   0  0  0  0  0  0  0  0  0  0  0  0
  124.8761  106.6101  107.8690 C   0  0  0  0  0  0  0  0  0  0  0  0
  125.3007  105.5151  106.8950 C   0  0  0  0  0  0  0  0  0  0  0  0
  124.8159  104.1399  107.3352 C   0  0  0  0  0  0  0  0  0  0  0  0
  119.0496  103.9651  106.5387 N   0  0  0  0  0  0  0  0  0  0  0  0
  120.3249  103.4482  106.4064 N   0  0  0  0  0  0  0  0  0  0  0  0
  123.3380  104.1653  107.4602 N   0  3  0  0  0  0  0  0  0  0  0  0
  124.8028  108.9262  108.2802 O   0  5  0  0  0  0  0  0  0  0  0  0
  125.9354  108.1890  106.4393 O   0  0  0  0  0  0  0  0  0  0  0  0
  120.4830  105.6795  106.4351 O   0  0  0  0  0  0  0  0  0  0  0  0
  117.9858  106.5906  107.7224 H   0  0  0  0  0  0  0  0  0  0  0  0
  118.4591  107.2478  106.1364 H   0  0  0  0  0  0  0  0  0  0  0  0
  117.2008  106.0168  106.2303 H   0  0  0  0  0  0  0  0  0  0  0  0
  122.9664  103.8327  105.4347 H   0  0  0  0  0  0  0  0  0  0  0  0
  122.9628  105.5315  105.9291 H   0  0  0  0  0  0  0  0  0  0  0  0
  125.2803  106.3894  108.8649 H   0  0  0  0  0  0  0  0  0  0  0  0
  123.7827  106.5900  107.9595 H   0  0  0  0  0  0  0  0  0  0  0  0
  126.3915  105.5109  106.7795 H   0  0  0  0  0  0  0  0  0  0  0  0
  124.8825  105.7472  105.9073 H   0  0  0  0  0  0  0  0  0  0  0  0
  125.2111  103.8621  108.3167 H   0  0  0  0  0  0  0  0  0  0  0  0
  125.0557  103.3590  106.6086 H   0  0  0  0  0  0  0  0  0  0  0  0
  123.0704  104.8279  108.2026 H   0  0  0  0  0  0  0  0  0  0  0  0
  123.0071  103.2431  107.7793 H   0  0  0  0  0  0  0  0  0  0  0  0
  1  4  1  0  0  0  0
  1  9  2  0  0  0  0
  1 14  1  0  0  0  0
  2  5  1  0  0  0  0
  2 10  2  0  0  0  0
  2 14  1  0  0  0  0
  3  6  1  0  0  0  0
  3 12  1  0  0  0  0
  3 13  2  0  0  0  0
  5 11  1  0  0  0  0
  6  7  1  0  0  0  0
  7  8  1  0  0  0  0
  8 11  1  0  0  0  0
  9 10  1  0  0  0  0
  4 15  1  0  0  0  0
  4 16  1  0  0  0  0
  4 17  1  0  0  0  0
  5 18  1  0  0  0  0
  5 19  1  0  0  0  0
  6 20  1  0  0  0  0
  6 21  1  0  0  0  0
  7 22  1  0  0  0  0
  7 23  1  0  0  0  0
  8 24  1  0  0  0  0
  8 25  1  0  0  0  0
 11 26  1  0  0  0  0
 11 27  1  0  0  0  0
M  CHG  2  11   1  12  -1
M  END
> <FRED Chemgauss4 score>
-9.597003

$$$$
C82574931	P129060506
  -OEChem-05122015313D

 39 39  0     1  0  0  0  0  0999 V2000
  123.7709  103.7662  107.6915 C   0  0  0  0  0  0  0  0  0  0  0  0
  125.7719  105.2379  108.1420 C   0  0  0  0  0  0  0  0  0  0  0  0
  123.9638  106.0628  106.6641 C   0  0  0  0  0  0  0  0  0  0  0  0
  125.2714  103.7939  108.0204 C   0  0  2  0  0  0  0  0  0  0  0  0
  123.4190  104.6424  106.4798 C   0  0  2  0  0  0  0  0  0  0  0  0
  126.0942  103.0002  107.0009 C   0  0  0  0  0  0  0  0  0  0  0  0
  121.9076  104.6712  106.2584 C   0  0  0  0  0  0  0  0  0  0  0  0
  123.4747  108.0808  109.9030 C   0  0  0  0  0  0  0  0  0  0  0  0
  124.5686  109.0348  107.8293 C   0  0  0  0  0  0  0  0  0  0  0  0
  123.8605  109.3488  109.1525 C   0  0  2  0  0  0  0  0  0  0  0  0
  125.7857  108.2633  108.0398 N   0  5  0  0  0  0  0  0  0  0  0  0
  125.4353  106.0077  106.9078 N   0  0  0  0  0  0  0  0  0  0  0  0
  124.7754  110.1372  110.0292 N   0  3  0  0  0  0  0  0  0  0  0  0
  125.7624  108.0576  105.4670 O   0  0  0  0  0  0  0  0  0  0  0  0
  127.6860  107.1377  106.7064 O   0  0  0  0  0  0  0  0  0  0  0  0
  126.2647  107.4962  106.7245 S   0  0  0  0  0  0  0  0  0  0  0  0
  123.4430  102.7341  107.5168 H   0  0  0  0  0  0  0  0  0  0  0  0
  123.2156  104.1240  108.5691 H   0  0  0  0  0  0  0  0  0  0  0  0
  125.3100  105.7272  109.0081 H   0  0  0  0  0  0  0  0  0  0  0  0
  126.8576  105.2412  108.2918 H   0  0  0  0  0  0  0  0  0  0  0  0
  123.7721  106.6437  105.7544 H   0  0  0  0  0  0  0  0  0  0  0  0
  123.4726  106.5694  107.5037 H   0  0  0  0  0  0  0  0  0  0  0  0
  125.4115  103.3044  108.9930 H   0  0  0  0  0  0  0  0  0  0  0  0
  123.8789  104.2041  105.5849 H   0  0  0  0  0  0  0  0  0  0  0  0
  125.9867  103.4493  106.0166 H   0  0  0  0  0  0  0  0  0  0  0  0
  125.7411  101.9724  106.9683 H   0  0  0  0  0  0  0  0  0  0  0  0
  127.1423  103.0121  107.2898 H   0  0  0  0  0  0  0  0  0  0  0  0
  121.4157  105.1014  107.1290 H   0  0  0  0  0  0  0  0  0  0  0  0
  121.5385  103.6589  106.1037 H   0  0  0  0  0  0  0  0  0  0  0  0
  121.6749  105.2742  105.3824 H   0  0  0  0  0  0  0  0  0  0  0  0
  124.3530  107.4474  110.0665 H   0  0  0  0  0  0  0  0  0  0  0  0
  122.7437  107.4955  109.3345 H   0  0  0  0  0  0  0  0  0  0  0  0
  123.0370  108.3098  110.8809 H   0  0  0  0  0  0  0  0  0  0  0  0
  124.8215  109.9814  107.3350 H   0  0  0  0  0  0  0  0  0  0  0  0
  123.8844  108.5120  107.1488 H   0  0  0  0  0  0  0  0  0  0  0  0
  122.9752  109.9752  108.9941 H   0  0  0  0  0  0  0  0  0  0  0  0
  124.8867  109.6778  110.9359 H   0  0  0  0  0  0  0  0  0  0  0  0
  124.3998  111.0753  110.1862 H   0  0  0  0  0  0  0  0  0  0  0  0
  125.6976  110.2262  109.5964 H   0  0  0  0  0  0  0  0  0  0  0  0
  1  4  1  0  0  0  0
  1  5  1  0  0  0  0
  2  4  1  0  0  0  0
  2 12  1  0  0  0  0
  3  5  1  0  0  0  0
  3 12  1  0  0  0  0
  4  6  1  0  0  0  0
  5  7  1  0  0  0  0
  8 10  1  0  0  0  0
  9 10  1  0  0  0  0
  9 11  1  0  0  0  0
 10 13  1  0  0  0  0
 11 16  1  0  0  0  0
 12 16  1  0  0  0  0
 14 16  2  0  0  0  0
 15 16  2  0  0  0  0
  1 17  1  0  0  0  0
  1 18  1  0  0  0  0
  2 19  1  0  0  0  0
  2 20  1  0  0  0  0
  3 21  1  0  0  0  0
  3 22  1  0  0  0  0
  4 23  1  0  0  0  0
  5 24  1  0  0  0  0
  6 25  1  0  0  0  0
  6 26  1  0  0  0  0
  6 27  1  0  0  0  0
  7 28  1  0  0  0  0
  7 29  1  0  0  0  0
  7 30  1  0  0  0  0
  8 31  1  0  0  0  0
  8 32  1  0  0  0  0
  8 33  1  0  0  0  0
  9 34  1  0  0  0  0
  9 35  1  0  0  0  0
 10 36  1  0  0  0  0
 13 37  1  0  0  0  0
 13 38  1  0  0  0  0
 13 39  1  0  0  0  0
M  CHG  2  11  -1  13   1
M  END
> <FRED Chemgauss4 score>
-9.593872

$$$$
C37036752	P55054206
  -OEChem-05122015313D

 40 41  0     1  0  0  0  0  0999 V2000
  125.0049  105.2551  107.3170 C   0  0  0  0  0  0  0  0  0  0  0  0
  124.0280  106.1715  107.6453 C   0  0  0  0  0  0  0  0  0  0  0  0
  126.3018  106.9154  107.9266 C   0  0  0  0  0  0  0  0  0  0  0  0
  120.7397  106.1062  105.2659 C   0  0  0  0  0  0  0  0  0  0  0  0
  117.8247  106.6391  104.6428 C   0  0  0  0  0  0  0  0  0  0  0  0
  116.6592  107.5836  104.9138 C   0  0  0  0  0  0  0  0  0  0  0  0
  118.5388  107.5208  106.8057 C   0  0  0  0  0  0  0  0  0  0  0  0
  118.3602  106.2262  106.0154 C   0  0  2  0  0  0  0  0  0  0  0  0
  124.7933  103.8797  106.8159 C   0  0  0  0  0  0  0  0  0  0  0  0
  119.2385  103.1604  105.4117 C   0  0  0  0  0  0  0  0  0  0  0  0
  122.0806  105.6269  105.7949 C   0  0  0  0  0  0  0  0  0  0  0  0
  119.6403  104.1657  106.4367 C   0  0  0  0  0  0  0  0  0  0  0  0
  126.3094  105.6800  107.4773 N   0  0  0  0  0  0  0  0  0  0  0  0
  127.4208  107.6394  108.1953 N   0  0  0  0  0  0  0  0  0  0  0  0
  119.6121  105.5235  105.8853 N   0  0  0  0  0  0  0  0  0  0  0  0
  120.6623  106.9432  104.3629 O   0  0  0  0  0  0  0  0  0  0  0  0
  116.1315  108.4603  107.3418 O   0  0  0  0  0  0  0  0  0  0  0  0
  117.6754  109.8254  105.8619 O   0  0  0  0  0  0  0  0  0  0  0  0
  124.7608  107.6272  108.1794 S   0  0  0  0  0  0  0  0  0  0  0  0
  122.2746  105.9677  107.5630 S   0  0  0  0  0  0  0  0  0  0  0  0
  117.1607  108.5544  106.3274 S   0  0  0  0  0  0  0  0  0  0  0  0
  117.4572  105.7533  104.1185 H   0  0  0  0  0  0  0  0  0  0  0  0
  118.5822  107.1168  104.0211 H   0  0  0  0  0  0  0  0  0  0  0  0
  116.4991  108.2679  104.0760 H   0  0  0  0  0  0  0  0  0  0  0  0
  115.7339  107.0511  105.1418 H   0  0  0  0  0  0  0  0  0  0  0  0
  118.4406  107.3340  107.8771 H   0  0  0  0  0  0  0  0  0  0  0  0
  119.4735  108.0400  106.5953 H   0  0  0  0  0  0  0  0  0  0  0  0
  117.6766  105.5498  106.5243 H   0  0  0  0  0  0  0  0  0  0  0  0
  124.7418  103.8643  105.7160 H   0  0  0  0  0  0  0  0  0  0  0  0
  125.6043  103.2003  107.1254 H   0  0  0  0  0  0  0  0  0  0  0  0
  123.8597  103.4402  107.2040 H   0  0  0  0  0  0  0  0  0  0  0  0
  118.2205  103.3512  105.0552 H   0  0  0  0  0  0  0  0  0  0  0  0
  119.9277  103.1743  104.5603 H   0  0  0  0  0  0  0  0  0  0  0  0
  119.2605  102.1550  105.8490 H   0  0  0  0  0  0  0  0  0  0  0  0
  122.1654  104.5465  105.6480 H   0  0  0  0  0  0  0  0  0  0  0  0
  122.8874  106.1397  105.2638 H   0  0  0  0  0  0  0  0  0  0  0  0
  120.6577  103.9693  106.7882 H   0  0  0  0  0  0  0  0  0  0  0  0
  118.9603  104.1396  107.2932 H   0  0  0  0  0  0  0  0  0  0  0  0
  128.3589  107.2350  108.1033 H   0  0  0  0  0  0  0  0  0  0  0  0
  127.3686  108.5848  108.5896 H   0  0  0  0  0  0  0  0  0  0  0  0
  1  2  2  0  0  0  0
  1  9  1  0  0  0  0
  1 13  1  0  0  0  0
  2 19  1  0  0  0  0
  2 20  1  0  0  0  0
  3 13  2  0  0  0  0
  3 14  1  0  0  0  0
  3 19  1  0  0  0  0
  4 11  1  0  0  0  0
  4 15  1  0  0  0  0
  4 16  2  0  0  0  0
  5  6  1  0  0  0  0
  5  8  1  0  0  0  0
  6 21  1  0  0  0  0
  7  8  1  0  0  0  0
  7 21  1  0  0  0  0
  8 15  1  0  0  0  0
 10 12  1  0  0  0  0
 11 20  1  0  0  0  0
 12 15  1  0  0  0  0
 17 21  2  0  0  0  0
 18 21  2  0  0  0  0
  5 22  1  0  0  0  0
  5 23  1  0  0  0  0
  6 24  1  0  0  0  0
  6 25  1  0  0  0  0
  7 26  1  0  0  0  0
  7 27  1  0  0  0  0
  8 28  1  0  0  0  0
  9 29  1  0  0  0  0
  9 30  1  0  0  0  0
  9 31  1  0  0  0  0
 10 32  1  0  0  0  0
 10 33  1  0  0  0  0
 10 34  1  0  0  0  0
 11 35  1  0  0  0  0
 11 36  1  0  0  0  0
 12 37  1  0  0  0  0
 12 38  1  0  0  0  0
 14 39  1  0  0  0  0
 14 40  1  0  0  0  0
M  END
> <FRED Chemgauss4 score>
-9.590400

$$$$
C87303022	P136588315
  -OEChem-05122015313D

 37 38  0     1  0  0  0  0  0999 V2000
  126.6572  107.7120  107.6210 C   0  0  0  0  0  0  0  0  0  0  0  0
  125.8978  106.5835  107.3121 C   0  0  0  0  0  0  0  0  0  0  0  0
  126.0280  108.8783  108.0565 C   0  0  0  0  0  0  0  0  0  0  0  0
  123.8799  107.7877  107.8737 C   0  0  0  0  0  0  0  0  0  0  0  0
  124.5092  106.6214  107.4383 C   0  0  0  0  0  0  0  0  0  0  0  0
  124.6394  108.9161  108.1827 C   0  0  0  0  0  0  0  0  0  0  0  0
  119.2184  105.9732  106.4699 C   0  0  0  0  0  0  0  0  0  0  0  0
  119.3542  104.8213  105.7236 C   0  0  0  0  0  0  0  0  0  0  0  0
  121.2163  105.3745  107.1481 C   0  0  0  0  0  0  0  0  0  0  0  0
  118.0498  106.8768  106.4686 C   0  0  0  0  0  0  0  0  0  0  0  0
  118.4238  104.1948  104.7634 C   0  0  0  0  0  0  0  0  0  0  0  0
  124.4417  104.0932  107.3492 C   0  0  0  0  0  0  0  0  0  0  0  0
  122.4756  105.3420  109.2866 C   0  0  0  0  0  0  0  0  0  0  0  0
  123.6976  105.4149  107.1072 C   0  0  1  0  0  0  0  0  0  0  0  0
  120.2850  106.2918  107.2876 N   0  0  0  0  0  0  0  0  0  0  0  0
  124.0032  110.0953  108.6234 N   0  0  0  0  0  0  0  0  0  0  0  0
  122.4364  105.3818  107.8284 N   0  0  0  0  0  0  0  0  0  0  0  0
  120.8760  104.1007  106.0496 S   0  0  0  0  0  0  0  0  0  0  0  0
  127.7386  107.6824  107.5228 H   0  0  0  0  0  0  0  0  0  0  0  0
  126.3965  105.6789  106.9735 H   0  0  0  0  0  0  0  0  0  0  0  0
  126.6294  109.7518  108.2948 H   0  0  0  0  0  0  0  0  0  0  0  0
  122.7971  107.8154  107.9719 H   0  0  0  0  0  0  0  0  0  0  0  0
  117.3146  106.5747  107.2318 H   0  0  0  0  0  0  0  0  0  0  0  0
  118.3362  107.9221  106.6730 H   0  0  0  0  0  0  0  0  0  0  0  0
  117.5364  106.8860  105.4923 H   0  0  0  0  0  0  0  0  0  0  0  0
  118.5954  104.5709  103.7417 H   0  0  0  0  0  0  0  0  0  0  0  0
  118.5317  103.0971  104.7394 H   0  0  0  0  0  0  0  0  0  0  0  0
  117.3693  104.3921  105.0210 H   0  0  0  0  0  0  0  0  0  0  0  0
  124.7581  104.0133  108.3950 H   0  0  0  0  0  0  0  0  0  0  0  0
  123.8052  103.2310  107.1205 H   0  0  0  0  0  0  0  0  0  0  0  0
  125.3342  104.0105  106.7188 H   0  0  0  0  0  0  0  0  0  0  0  0
  123.5116  105.3546  109.6351 H   0  0  0  0  0  0  0  0  0  0  0  0
  121.9920  104.4324  109.6531 H   0  0  0  0  0  0  0  0  0  0  0  0
  121.9539  106.2082  109.7025 H   0  0  0  0  0  0  0  0  0  0  0  0
  123.4094  105.4295  106.0411 H   0  0  0  0  0  0  0  0  0  0  0  0
  124.5618  110.8817  108.8870 H   0  0  0  0  0  0  0  0  0  0  0  0
  123.0119  110.0947  108.7547 H   0  0  0  0  0  0  0  0  0  0  0  0
  1  2  2  0  0  0  0
  1  3  1  0  0  0  0
  2  5  1  0  0  0  0
  3  6  2  0  0  0  0
  4  5  2  0  0  0  0
  4  6  1  0  0  0  0
  5 14  1  0  0  0  0
  6 16  1  0  0  0  0
  7  8  2  0  0  0  0
  7 10  1  0  0  0  0
  7 15  1  0  0  0  0
  8 11  1  0  0  0  0
  8 18  1  0  0  0  0
  9 15  2  0  0  0  0
  9 17  1  0  0  0  0
  9 18  1  0  0  0  0
 12 14  1  0  0  0  0
 13 17  1  0  0  0  0
 14 17  1  0  0  0  0
  1 19  1  0  0  0  0
  2 20  1  0  0  0  0
  3 21  1  0  0  0  0
  4 22  1  0  0  0  0
 10 23  1  0  0  0  0
 10 24  1  0  0  0  0
 10 25  1  0  0  0  0
 11 26  1  0  0  0  0
 11 27  1  0  0  0  0
 11 28  1  0  0  0  0
 12 29  1  0  0  0  0
 12 30  1  0  0  0  0
 12 31  1  0  0  0  0
 13 32  1  0  0  0  0
 13 33  1  0  0  0  0
 13 34  1  0  0  0  0
 14 35  1  0  0  0  0
 16 36  1  0  0  0  0
 16 37  1  0  0  0  0
M  END
> <FRED Chemgauss4 score>
-9.589260

$$$$
C43258832	P65426456
  -OEChem-05122015313D

 42 43  0     1  0  0  0  0  0999 V2000
  119.8341  104.2024  106.8643 C   0  0  0  0  0  0  0  0  0  0  0  0
  119.1978  103.6864  105.6984 C   0  0  0  0  0  0  0  0  0  0  0  0
  120.0486  105.5604  106.7785 C   0  0  0  0  0  0  0  0  0  0  0  0
  118.9501  104.6699  104.7661 C   0  0  0  0  0  0  0  0  0  0  0  0
  124.6043  107.9284  106.3951 C   0  0  0  0  0  0  0  0  0  0  0  0
  124.2690  105.3460  108.1684 C   0  0  0  0  0  0  0  0  0  0  0  0
  124.7351  105.4681  106.7199 C   0  0  0  0  0  0  0  0  0  0  0  0
  122.7448  105.3069  108.2658 C   0  0  0  0  0  0  0  0  0  0  0  0
  122.5056  106.5755  106.2123 C   0  0  0  0  0  0  0  0  0  0  0  0
  124.0223  106.6047  105.9879 C   0  0  1  0  0  0  0  0  0  0  0  0
  118.0271  109.3863  108.0470 C   0  0  0  0  0  0  0  0  0  0  0  0
  118.6178  107.9808  108.0527 C   0  0  0  0  0  0  0  0  0  0  0  0
  120.6956  106.4848  107.8023 C   0  0  2  0  0  0  0  0  0  0  0  0
  120.1367  107.9395  107.7651 C   0  0  2  0  0  0  0  0  0  0  0  0
  122.1490  106.4922  107.6372 N   0  0  1  0  0  0  0  0  0  0  0  0
  125.6829  108.3169  105.6363 N   0  0  0  0  0  0  0  0  0  0  0  0
  120.8636  108.7593  108.7446 N   0  0  0  0  0  0  0  0  0  0  0  0
  124.1329  108.5938  107.3140 O   0  0  0  0  0  0  0  0  0  0  0  0
  119.4840  106.2078  105.2972 S   0  0  0  0  0  0  0  0  0  0  0  0
  118.1164  104.3725  103.0857 Br  0  0  0  0  0  0  0  0  0  0  0  0
  120.1184  103.6040  107.7205 H   0  0  0  0  0  0  0  0  0  0  0  0
  118.9389  102.6440  105.5605 H   0  0  0  0  0  0  0  0  0  0  0  0
  124.6910  104.4340  108.6115 H   0  0  0  0  0  0  0  0  0  0  0  0
  124.6564  106.1901  108.7516 H   0  0  0  0  0  0  0  0  0  0  0  0
  125.8267  105.6324  106.7017 H   0  0  0  0  0  0  0  0  0  0  0  0
  124.5704  104.5133  106.1935 H   0  0  0  0  0  0  0  0  0  0  0  0
  122.3936  104.4011  107.7582 H   0  0  0  0  0  0  0  0  0  0  0  0
  122.4449  105.2296  109.3186 H   0  0  0  0  0  0  0  0  0  0  0  0
  122.0356  107.4613  105.7468 H   0  0  0  0  0  0  0  0  0  0  0  0
  122.0930  105.7022  105.6780 H   0  0  0  0  0  0  0  0  0  0  0  0
  124.2233  106.4979  104.8942 H   0  0  0  0  0  0  0  0  0  0  0  0
  118.5198  110.0222  108.7892 H   0  0  0  0  0  0  0  0  0  0  0  0
  118.1657  109.8457  107.0629 H   0  0  0  0  0  0  0  0  0  0  0  0
  116.9532  109.3752  108.2548 H   0  0  0  0  0  0  0  0  0  0  0  0
  118.0834  107.3999  107.2920 H   0  0  0  0  0  0  0  0  0  0  0  0
  118.4023  107.5064  109.0184 H   0  0  0  0  0  0  0  0  0  0  0  0
  120.5010  106.0797  108.8047 H   0  0  0  0  0  0  0  0  0  0  0  0
  120.3117  108.3745  106.7730 H   0  0  0  0  0  0  0  0  0  0  0  0
  125.9959  107.7082  104.8872 H   0  0  0  0  0  0  0  0  0  0  0  0
  126.1787  109.1880  105.7952 H   0  0  0  0  0  0  0  0  0  0  0  0
  120.4199  109.5840  109.0734 H   0  0  0  0  0  0  0  0  0  0  0  0
  121.8289  108.5692  108.8770 H   0  0  0  0  0  0  0  0  0  0  0  0
  1  2  1  0  0  0  0
  1  3  2  0  0  0  0
  2  4  2  0  0  0  0
  3 13  1  0  0  0  0
  3 19  1  0  0  0  0
  4 19  1  0  0  0  0
  4 20  1  0  0  0  0
  5 10  1  0  0  0  0
  5 16  1  0  0  0  0
  5 18  2  0  0  0  0
  6  7  1  0  0  0  0
  6  8  1  0  0  0  0
  7 10  1  0  0  0  0
  8 15  1  0  0  0  0
  9 10  1  0  0  0  0
  9 15  1  0  0  0  0
 11 12  1  0  0  0  0
 12 14  1  0  0  0  0
 13 14  1  0  0  0  0
 13 15  1  0  0  0  0
 14 17  1  0  0  0  0
  1 21  1  0  0  0  0
  2 22  1  0  0  0  0
  6 23  1  0  0  0  0
  6 24  1  0  0  0  0
  7 25  1  0  0  0  0
  7 26  1  0  0  0  0
  8 27  1  0  0  0  0
  8 28  1  0  0  0  0
  9 29  1  0  0  0  0
  9 30  1  0  0  0  0
 10 31  1  0  0  0  0
 11 32  1  0  0  0  0
 11 33  1  0  0  0  0
 11 34  1  0  0  0  0
 12 35  1  0  0  0  0
 12 36  1  0  0  0  0
 13 37  1  0  0  0  0
 14 38  1  0  0  0  0
 16 39  1  0  0  0  0
 16 40  1  0  0  0  0
 17 41  1  0  0  0  0
 17 42  1  0  0  0  0
M  END
> <FRED Chemgauss4 score>
-9.584794

$$$$
C86276238	P135094255
  -OEChem-05122015313D

 29 29  0     0  0  0  0  0  0999 V2000
  125.3967  107.9789  107.2026 C   0  0  0  0  0  0  0  0  0  0  0  0
  124.8941  109.0392  108.1336 C   0  0  0  0  0  0  0  0  0  0  0  0
  122.8844  105.0457  106.2448 C   0  0  0  0  0  0  0  0  0  0  0  0
  119.5021  105.0512  106.6437 C   0  0  0  0  0  0  0  0  0  0  0  0
  119.3505  103.5892  106.3385 C   0  0  0  0  0  0  0  0  0  0  0  0
  120.5361  104.3477  105.8077 C   0  0  0  0  0  0  0  0  0  0  0  0
  124.1732  104.5201  106.8511 C   0  0  0  0  0  0  0  0  0  0  0  0
  125.3040  105.5377  106.7888 C   0  0  0  0  0  0  0  0  0  0  0  0
  122.9268  110.1104  108.9066 N   0  0  0  0  0  0  0  0  0  0  0  0
  124.9364  106.7219  107.5260 N   0  0  0  0  0  0  0  0  0  0  0  0
  123.5257  109.1560  108.1118 N   0  0  0  0  0  0  0  0  0  0  0  0
  121.8681  104.1039  106.3117 N   0  0  0  0  0  0  0  0  0  0  0  0
  126.1467  108.3179  106.3013 O   0  0  0  0  0  0  0  0  0  0  0  0
  125.7176  109.6735  108.7742 O   0  0  0  0  0  0  0  0  0  0  0  0
  122.7780  106.1698  105.7622 O   0  0  0  0  0  0  0  0  0  0  0  0
  118.8245  105.7406  106.1549 H   0  0  0  0  0  0  0  0  0  0  0  0
  119.7752  105.3308  107.6539 H   0  0  0  0  0  0  0  0  0  0  0  0
  119.5220  102.8850  107.1433 H   0  0  0  0  0  0  0  0  0  0  0  0
  118.5707  103.2988  105.6451 H   0  0  0  0  0  0  0  0  0  0  0  0
  120.5355  104.5668  104.7455 H   0  0  0  0  0  0  0  0  0  0  0  0
  123.9757  104.2411  107.8936 H   0  0  0  0  0  0  0  0  0  0  0  0
  124.4598  103.6065  106.3155 H   0  0  0  0  0  0  0  0  0  0  0  0
  125.5194  105.8104  105.7500 H   0  0  0  0  0  0  0  0  0  0  0  0
  126.2229  105.1183  107.2125 H   0  0  0  0  0  0  0  0  0  0  0  0
  122.1041  110.4406  108.4037 H   0  0  0  0  0  0  0  0  0  0  0  0
  123.5661  110.9028  108.9501 H   0  0  0  0  0  0  0  0  0  0  0  0
  124.3172  106.6110  108.3245 H   0  0  0  0  0  0  0  0  0  0  0  0
  122.9651  108.5502  107.5208 H   0  0  0  0  0  0  0  0  0  0  0  0
  122.0694  103.2023  106.7341 H   0  0  0  0  0  0  0  0  0  0  0  0
  1  2  1  0  0  0  0
  1 10  1  0  0  0  0
  1 13  2  0  0  0  0
  2 11  1  0  0  0  0
  2 14  2  0  0  0  0
  3  7  1  0  0  0  0
  3 12  1  0  0  0  0
  3 15  2  0  0  0  0
  4  5  1  0  0  0  0
  4  6  1  0  0  0  0
  5  6  1  0  0  0  0
  6 12  1  0  0  0  0
  7  8  1  0  0  0  0
  8 10  1  0  0  0  0
  9 11  1  0  0  0  0
  4 16  1  0  0  0  0
  4 17  1  0  0  0  0
  5 18  1  0  0  0  0
  5 19  1  0  0  0  0
  6 20  1  0  0  0  0
  7 21  1  0  0  0  0
  7 22  1  0  0  0  0
  8 23  1  0  0  0  0
  8 24  1  0  0  0  0
  9 25  1  0  0  0  0
  9 26  1  0  0  0  0
 10 27  1  0  0  0  0
 11 28  1  0  0  0  0
 12 29  1  0  0  0  0
M  END
> <FRED Chemgauss4 score>
-9.584701

$$$$
C84057443	P131532065
  -OEChem-05122015313D

 25 26  0     1  0  0  0  0  0999 V2000
  123.1477  105.0610  106.6127 C   0  0  0  0  0  0  0  0  0  0  0  0
  122.6169  106.0239  105.7868 C   0  0  0  0  0  0  0  0  0  0  0  0
  121.1009  104.5498  105.9986 C   0  0  0  0  0  0  0  0  0  0  0  0
  124.4603  105.1181  107.1709 C   0  0  0  0  0  0  0  0  0  0  0  0
  124.5453  107.2529  105.9104 C   0  0  0  0  0  0  0  0  0  0  0  0
  118.6062  104.5147  106.4233 C   0  0  0  0  0  0  0  0  0  0  0  0
  119.8575  103.7605  105.9176 C   0  0  1  0  0  0  0  0  0  0  0  0
  121.3410  105.7013  105.4061 N   0  0  0  0  0  0  0  0  0  0  0  0
  123.3333  107.1742  105.4103 N   0  0  0  0  0  0  0  0  0  0  0  0
  122.1687  104.1198  106.7427 N   0  0  0  0  0  0  0  0  0  0  0  0
  125.1083  106.2808  106.7565 N   0  0  0  0  0  0  0  0  0  0  0  0
  125.3636  108.3180  105.6320 N   0  0  0  0  0  0  0  0  0  0  0  0
  119.6041  103.2674  104.5654 N   0  0  0  0  0  0  0  0  0  0  0  0
  124.9558  104.2741  107.9094 O   0  0  0  0  0  0  0  0  0  0  0  0
  118.3742  105.6794  105.6376 O   0  0  0  0  0  0  0  0  0  0  0  0
  117.7215  103.8745  106.3359 H   0  0  0  0  0  0  0  0  0  0  0  0
  118.7153  104.8217  107.4692 H   0  0  0  0  0  0  0  0  0  0  0  0
  119.9313  102.8288  106.5178 H   0  0  0  0  0  0  0  0  0  0  0  0
  122.2205  103.2666  107.2841 H   0  0  0  0  0  0  0  0  0  0  0  0
  126.0552  106.4371  107.0897 H   0  0  0  0  0  0  0  0  0  0  0  0
  125.0162  109.0348  105.0387 H   0  0  0  0  0  0  0  0  0  0  0  0
  126.2715  108.3310  106.0346 H   0  0  0  0  0  0  0  0  0  0  0  0
  118.6656  103.0418  104.3177 H   0  0  0  0  0  0  0  0  0  0  0  0
  120.3860  102.9840  104.0165 H   0  0  0  0  0  0  0  0  0  0  0  0
  117.5824  106.1060  106.0010 H   0  0  0  0  0  0  0  0  0  0  0  0
  1  2  2  0  0  0  0
  1  4  1  0  0  0  0
  1 10  1  0  0  0  0
  2  8  1  0  0  0  0
  2  9  1  0  0  0  0
  3  7  1  0  0  0  0
  3  8  2  0  0  0  0
  3 10  1  0  0  0  0
  4 11  1  0  0  0  0
  4 14  2  0  0  0  0
  5  9  2  0  0  0  0
  5 11  1  0  0  0  0
  5 12  1  0  0  0  0
  6  7  1  0  0  0  0
  6 15  1  0  0  0  0
  7 13  1  0  0  0  0
  6 16  1  0  0  0  0
  6 17  1  0  0  0  0
  7 18  1  0  0  0  0
 10 19  1  0  0  0  0
 11 20  1  0  0  0  0
 12 21  1  0  0  0  0
 12 22  1  0  0  0  0
 13 23  1  0  0  0  0
 13 24  1  0  0  0  0
 15 25  1  0  0  0  0
M  END
> <FRED Chemgauss4 score>
-9.583261

$$$$
C80043308	P125038908
  -OEChem-05122015313D

 39 40  0     1  0  0  0  0  0999 V2000
  124.9725  105.3839  108.2695 C   0  0  0  0  0  0  0  0  0  0  0  0
  124.7643  106.5058  107.4448 C   0  0  0  0  0  0  0  0  0  0  0  0
  125.6760  107.4321  107.8888 C   0  0  0  0  0  0  0  0  0  0  0  0
  123.8052  106.6864  106.3495 C   0  0  0  0  0  0  0  0  0  0  0  0
  120.5043  106.1502  105.1266 C   0  0  0  0  0  0  0  0  0  0  0  0
  119.7155  105.7815  106.3840 C   0  0  0  0  0  0  0  0  0  0  0  0
  121.9224  105.5916  105.1817 C   0  0  0  0  0  0  0  0  0  0  0  0
  121.8958  105.6117  107.6530 C   0  0  0  0  0  0  0  0  0  0  0  0
  120.4592  106.1564  107.6765 C   0  0  1  0  0  0  0  0  0  0  0  0
  125.9816  108.8077  107.4592 C   0  0  0  0  0  0  0  0  0  0  0  0
  120.4459  107.6687  107.9186 C   0  0  0  0  0  0  0  0  0  0  0  0
  125.9405  105.5778  109.1691 N   0  0  0  0  0  0  0  0  0  0  0  0
  126.3488  106.8322  108.9123 N   0  0  0  0  0  0  0  0  0  0  0  0
  122.5946  105.9930  106.4170 N   0  0  0  0  0  0  0  0  0  0  0  0
  120.4761  110.5507  108.9315 N   0  0  0  0  0  0  0  0  0  0  0  0
  120.7021  107.9400  109.2932 N   0  0  0  0  0  0  0  0  0  0  0  0
  124.1496  107.4471  105.4466 O   0  0  0  0  0  0  0  0  0  0  0  0
  121.3316  109.6381  111.1754 O   0  0  0  0  0  0  0  0  0  0  0  0
  122.7988  109.4559  109.1361 O   0  0  0  0  0  0  0  0  0  0  0  0
  121.4842  109.4270  109.7481 S   0  0  0  0  0  0  0  0  0  0  0  0
  124.4605  104.4322  108.2547 H   0  0  0  0  0  0  0  0  0  0  0  0
  119.9869  105.7456  104.2484 H   0  0  0  0  0  0  0  0  0  0  0  0
  120.5360  107.2388  105.0130 H   0  0  0  0  0  0  0  0  0  0  0  0
  118.7362  106.2892  106.3562 H   0  0  0  0  0  0  0  0  0  0  0  0
  119.5002  104.7005  106.3746 H   0  0  0  0  0  0  0  0  0  0  0  0
  121.8946  104.4992  105.0902 H   0  0  0  0  0  0  0  0  0  0  0  0
  122.5200  105.9729  104.3428 H   0  0  0  0  0  0  0  0  0  0  0  0
  122.4807  106.0189  108.4922 H   0  0  0  0  0  0  0  0  0  0  0  0
  121.8797  104.5223  107.7838 H   0  0  0  0  0  0  0  0  0  0  0  0
  119.9283  105.6763  108.5224 H   0  0  0  0  0  0  0  0  0  0  0  0
  125.3713  109.5438  108.0098 H   0  0  0  0  0  0  0  0  0  0  0  0
  127.0427  109.0685  107.6199 H   0  0  0  0  0  0  0  0  0  0  0  0
  125.7933  108.9591  106.3813 H   0  0  0  0  0  0  0  0  0  0  0  0
  119.4706  108.0550  107.6528 H   0  0  0  0  0  0  0  0  0  0  0  0
  121.2154  108.1293  107.3135 H   0  0  0  0  0  0  0  0  0  0  0  0
  127.0929  107.2184  109.4800 H   0  0  0  0  0  0  0  0  0  0  0  0
  119.5056  110.6039  109.2695 H   0  0  0  0  0  0  0  0  0  0  0  0
  120.4972  110.5004  107.9039 H   0  0  0  0  0  0  0  0  0  0  0  0
  119.9516  107.6503  109.9679 H   0  0  0  0  0  0  0  0  0  0  0  0
  1  2  1  0  0  0  0
  1 12  2  0  0  0  0
  2  3  2  0  0  0  0
  2  4  1  0  0  0  0
  3 10  1  0  0  0  0
  3 13  1  0  0  0  0
  4 14  1  0  0  0  0
  4 17  2  0  0  0  0
  5  6  1  0  0  0  0
  5  7  1  0  0  0  0
  6  9  1  0  0  0  0
  7 14  1  0  0  0  0
  8  9  1  0  0  0  0
  8 14  1  0  0  0  0
  9 11  1  0  0  0  0
 11 16  1  0  0  0  0
 12 13  1  0  0  0  0
 15 20  1  0  0  0  0
 16 20  1  0  0  0  0
 18 20  2  0  0  0  0
 19 20  2  0  0  0  0
  1 21  1  0  0  0  0
  5 22  1  0  0  0  0
  5 23  1  0  0  0  0
  6 24  1  0  0  0  0
  6 25  1  0  0  0  0
  7 26  1  0  0  0  0
  7 27  1  0  0  0  0
  8 28  1  0  0  0  0
  8 29  1  0  0  0  0
  9 30  1  0  0  0  0
 10 31  1  0  0  0  0
 10 32  1  0  0  0  0
 10 33  1  0  0  0  0
 11 34  1  0  0  0  0
 11 35  1  0  0  0  0
 13 36  1  0  0  0  0
 15 37  1  0  0  0  0
 15 38  1  0  0  0  0
 16 39  1  0  0  0  0
M  END
> <FRED Chemgauss4 score>
-9.577307

$$$$
C94232859	P147685151
  -OEChem-05122015313D

 42 42  0     1  0  0  0  0  0999 V2000
  124.9176  107.3202  106.3557 C   0  0  0  0  0  0  0  0  0  0  0  0
  118.0565  104.8836  106.4028 C   0  0  0  0  0  0  0  0  0  0  0  0
  121.2187  106.2903  107.7287 C   0  0  0  0  0  0  0  0  0  0  0  0
  121.2949  104.5592  105.8981 C   0  0  0  0  0  0  0  0  0  0  0  0
  121.8500  107.2843  106.7467 C   0  0  0  0  0  0  0  0  0  0  0  0
  121.9316  105.6171  104.9887 C   0  0  0  0  0  0  0  0  0  0  0  0
  120.4470  105.1810  107.0110 C   0  0  0  0  0  0  0  0  0  0  0  0
  116.4627  106.8190  106.7164 C   0  0  0  0  0  0  0  0  0  0  0  0
  126.8600  108.0502  107.7370 C   0  0  0  0  0  0  0  0  0  0  0  0
  123.9503  106.1713  106.2273 C   0  0  0  0  0  0  0  0  0  0  0  0
  116.8325  105.6244  105.8312 C   0  0  1  0  0  0  0  0  0  0  0  0
  117.0704  106.0615  104.3871 C   0  0  0  0  0  0  0  0  0  0  0  0
  122.6758  106.6595  105.7061 N   0  0  0  0  0  0  0  0  0  0  0  0
  115.7019  104.6861  105.8450 N   0  0  0  0  0  0  0  0  0  0  0  0
  119.1902  105.6765  106.4975 N   0  0  0  0  0  0  0  0  0  0  0  0
  125.8182  107.1105  107.3902 N   0  0  0  0  0  0  0  0  0  0  0  0
  124.8956  108.3070  105.6248 O   0  0  0  0  0  0  0  0  0  0  0  0
  118.0188  103.7010  106.7432 O   0  0  0  0  0  0  0  0  0  0  0  0
  117.3148  104.9991  103.5850 F   0  0  0  0  0  0  0  0  0  0  0  0
  118.1311  106.8949  104.2900 F   0  0  0  0  0  0  0  0  0  0  0  0
  115.9992  106.7063  103.8733 F   0  0  0  0  0  0  0  0  0  0  0  0
  122.0139  105.8374  108.3356 H   0  0  0  0  0  0  0  0  0  0  0  0
  120.5614  106.8308  108.4207 H   0  0  0  0  0  0  0  0  0  0  0  0
  120.6895  103.8744  105.2903 H   0  0  0  0  0  0  0  0  0  0  0  0
  122.0927  103.9554  106.3524 H   0  0  0  0  0  0  0  0  0  0  0  0
  121.0527  107.9088  106.2887 H   0  0  0  0  0  0  0  0  0  0  0  0
  122.4721  107.9896  107.3357 H   0  0  0  0  0  0  0  0  0  0  0  0
  122.6153  105.0920  104.2897 H   0  0  0  0  0  0  0  0  0  0  0  0
  121.1473  106.0713  104.3448 H   0  0  0  0  0  0  0  0  0  0  0  0
  120.1749  104.4016  107.7382 H   0  0  0  0  0  0  0  0  0  0  0  0
  115.5932  107.3588  106.3251 H   0  0  0  0  0  0  0  0  0  0  0  0
  117.2872  107.5395  106.7785 H   0  0  0  0  0  0  0  0  0  0  0  0
  116.2156  106.5013  107.7363 H   0  0  0  0  0  0  0  0  0  0  0  0
  127.7705  107.8258  107.1753 H   0  0  0  0  0  0  0  0  0  0  0  0
  127.0823  107.9906  108.8059 H   0  0  0  0  0  0  0  0  0  0  0  0
  126.5433  109.0697  107.5012 H   0  0  0  0  0  0  0  0  0  0  0  0
  124.3569  105.4223  105.5413 H   0  0  0  0  0  0  0  0  0  0  0  0
  123.7859  105.7136  107.2072 H   0  0  0  0  0  0  0  0  0  0  0  0
  115.1956  104.5881  106.6933 H   0  0  0  0  0  0  0  0  0  0  0  0
  115.6215  104.0515  105.0857 H   0  0  0  0  0  0  0  0  0  0  0  0
  119.1666  106.6308  106.1535 H   0  0  0  0  0  0  0  0  0  0  0  0
  125.7413  106.2538  107.9308 H   0  0  0  0  0  0  0  0  0  0  0  0
  1 10  1  0  0  0  0
  1 16  1  0  0  0  0
  1 17  2  0  0  0  0
  2 11  1  0  0  0  0
  2 15  1  0  0  0  0
  2 18  2  0  0  0  0
  3  5  1  0  0  0  0
  3  7  1  0  0  0  0
  4  6  1  0  0  0  0
  4  7  1  0  0  0  0
  5 13  1  0  0  0  0
  6 13  1  0  0  0  0
  7 15  1  0  0  0  0
  8 11  1  0  0  0  0
  9 16  1  0  0  0  0
 10 13  1  0  0  0  0
 11 12  1  0  0  0  0
 11 14  1  0  0  0  0
 12 19  1  0  0  0  0
 12 20  1  0  0  0  0
 12 21  1  0  0  0  0
  3 22  1  0  0  0  0
  3 23  1  0  0  0  0
  4 24  1  0  0  0  0
  4 25  1  0  0  0  0
  5 26  1  0  0  0  0
  5 27  1  0  0  0  0
  6 28  1  0  0  0  0
  6 29  1  0  0  0  0
  7 30  1  0  0  0  0
  8 31  1  0  0  0  0
  8 32  1  0  0  0  0
  8 33  1  0  0  0  0
  9 34  1  0  0  0  0
  9 35  1  0  0  0  0
  9 36  1  0  0  0  0
 10 37  1  0  0  0  0
 10 38  1  0  0  0  0
 14 39  1  0  0  0  0
 14 40  1  0  0  0  0
 15 41  1  0  0  0  0
 16 42  1  0  0  0  0
M  END
> <FRED Chemgauss4 score>
-9.576882

$$$$
C94628551	P148327832
  -OEChem-05122015313D

 33 34  0     1  0  0  0  0  0999 V2000
  120.3026  105.0220  106.5896 C   0  0  0  0  0  0  0  0  0  0  0  0
  119.8113  103.8619  106.0013 C   0  0  0  0  0  0  0  0  0  0  0  0
  119.4644  106.1186  106.7573 C   0  0  0  0  0  0  0  0  0  0  0  0
  118.4848  103.8493  105.6011 C   0  0  0  0  0  0  0  0  0  0  0  0
  118.1535  106.0051  106.3231 C   0  0  0  0  0  0  0  0  0  0  0  0
  125.7787  105.6168  108.5822 C   0  0  0  0  0  0  0  0  0  0  0  0
  126.6514  106.5792  107.7836 C   0  0  0  0  0  0  0  0  0  0  0  0
  124.6526  105.0386  107.7288 C   0  0  0  0  0  0  0  0  0  0  0  0
  125.8192  107.6816  107.1407 C   0  0  0  0  0  0  0  0  0  0  0  0
  123.8043  106.1412  107.0801 C   0  0  1  0  0  0  0  0  0  0  0  0
  124.6882  107.1145  106.2812 C   0  0  1  0  0  0  0  0  0  0  0  0
  122.7151  105.5242  106.1984 C   0  0  0  0  0  0  0  0  0  0  0  0
  117.6402  104.8948  105.7474 N   0  0  0  0  0  0  0  0  0  0  0  0
  121.6333  105.0857  107.0117 N   0  0  0  0  0  0  0  0  0  0  0  0
  123.8892  108.1927  105.8010 O   0  0  0  0  0  0  0  0  0  0  0  0
  120.5868  102.7851  105.8241 F   0  0  0  0  0  0  0  0  0  0  0  0
  119.9014  107.2527  107.3188 F   0  0  0  0  0  0  0  0  0  0  0  0
  117.9979  102.7355  105.0324 F   0  0  0  0  0  0  0  0  0  0  0  0
  117.3335  107.0555  106.4799 F   0  0  0  0  0  0  0  0  0  0  0  0
  126.3957  104.8024  108.9783 H   0  0  0  0  0  0  0  0  0  0  0  0
  125.3500  106.1416  109.4448 H   0  0  0  0  0  0  0  0  0  0  0  0
  127.4080  107.0229  108.4405 H   0  0  0  0  0  0  0  0  0  0  0  0
  127.1895  106.0253  107.0047 H   0  0  0  0  0  0  0  0  0  0  0  0
  125.0844  104.3954  106.9511 H   0  0  0  0  0  0  0  0  0  0  0  0
  124.0196  104.3988  108.3552 H   0  0  0  0  0  0  0  0  0  0  0  0
  125.4004  108.3335  107.9187 H   0  0  0  0  0  0  0  0  0  0  0  0
  126.4607  108.3275  106.5287 H   0  0  0  0  0  0  0  0  0  0  0  0
  123.2930  106.7064  107.8703 H   0  0  0  0  0  0  0  0  0  0  0  0
  125.1163  106.6015  105.4101 H   0  0  0  0  0  0  0  0  0  0  0  0
  123.1372  104.6800  105.6721 H   0  0  0  0  0  0  0  0  0  0  0  0
  122.3643  106.2736  105.5039 H   0  0  0  0  0  0  0  0  0  0  0  0
  121.8209  104.7912  107.9744 H   0  0  0  0  0  0  0  0  0  0  0  0
  124.4764  108.7600  105.2778 H   0  0  0  0  0  0  0  0  0  0  0  0
  1  2  1  0  0  0  0
  1  3  2  0  0  0  0
  1 14  1  0  0  0  0
  2  4  2  0  0  0  0
  2 16  1  0  0  0  0
  3  5  1  0  0  0  0
  3 17  1  0  0  0  0
  4 13  1  0  0  0  0
  4 18  1  0  0  0  0
  5 13  2  0  0  0  0
  5 19  1  0  0  0  0
  6  7  1  0  0  0  0
  6  8  1  0  0  0  0
  7  9  1  0  0  0  0
  8 10  1  0  0  0  0
  9 11  1  0  0  0  0
 10 11  1  0  0  0  0
 10 12  1  0  0  0  0
 11 15  1  0  0  0  0
 12 14  1  0  0  0  0
  6 20  1  0  0  0  0
  6 21  1  0  0  0  0
  7 22  1  0  0  0  0
  7 23  1  0  0  0  0
  8 24  1  0  0  0  0
  8 25  1  0  0  0  0
  9 26  1  0  0  0  0
  9 27  1  0  0  0  0
 10 28  1  0  0  0  0
 11 29  1  0  0  0  0
 12 30  1  0  0  0  0
 12 31  1  0  0  0  0
 14 32  1  0  0  0  0
 15 33  1  0  0  0  0
M  END
> <FRED Chemgauss4 score>
-9.573358

$$$$
C40710439	P61811697
  -OEChem-05122015313D

 26 27  0     1  0  0  0  0  0999 V2000
  119.2632  104.2033  105.7925 C   0  0  0  0  0  0  0  0  0  0  0  0
  120.4085  104.1511  106.5909 C   0  0  0  0  0  0  0  0  0  0  0  0
  120.1353  106.1147  104.5887 C   0  0  0  0  0  0  0  0  0  0  0  0
  121.3031  106.0844  105.3815 C   0  0  0  0  0  0  0  0  0  0  0  0
  119.1263  105.1715  104.8039 C   0  0  0  0  0  0  0  0  0  0  0  0
  121.4180  105.1017  106.3694 C   0  0  0  0  0  0  0  0  0  0  0  0
  123.2879  106.6285  106.1760 C   0  0  0  0  0  0  0  0  0  0  0  0
  125.1174  107.3359  107.8108 C   0  0  0  0  0  0  0  0  0  0  0  0
  126.4596  108.0491  107.9381 C   0  0  0  0  0  0  0  0  0  0  0  0
  124.5712  107.3410  106.3586 C   0  0  2  0  0  0  0  0  0  0  0  0
  122.3817  106.9513  105.2831 N   0  0  0  0  0  0  0  0  0  0  0  0
  124.4904  108.7214  105.8905 N   0  0  0  0  0  0  0  0  0  0  0  0
  126.2941  109.4062  107.5476 O   0  0  0  0  0  0  0  0  0  0  0  0
  118.0198  105.2002  104.0488 F   0  0  0  0  0  0  0  0  0  0  0  0
  122.9272  105.2923  107.1811 S   0  0  0  0  0  0  0  0  0  0  0  0
  118.4702  103.4765  105.9469 H   0  0  0  0  0  0  0  0  0  0  0  0
  120.5093  103.3917  107.3603 H   0  0  0  0  0  0  0  0  0  0  0  0
  120.0185  106.8663  103.8131 H   0  0  0  0  0  0  0  0  0  0  0  0
  124.4024  107.8153  108.4938 H   0  0  0  0  0  0  0  0  0  0  0  0
  125.2137  106.3082  108.1853 H   0  0  0  0  0  0  0  0  0  0  0  0
  126.8249  108.0330  108.9692 H   0  0  0  0  0  0  0  0  0  0  0  0
  127.2087  107.5894  107.2857 H   0  0  0  0  0  0  0  0  0  0  0  0
  125.3668  106.9001  105.7233 H   0  0  0  0  0  0  0  0  0  0  0  0
  123.9380  108.9116  105.0824 H   0  0  0  0  0  0  0  0  0  0  0  0
  125.1397  109.3815  106.2610 H   0  0  0  0  0  0  0  0  0  0  0  0
  127.1620  109.8313  107.6393 H   0  0  0  0  0  0  0  0  0  0  0  0
  1  2  1  0  0  0  0
  1  5  2  0  0  0  0
  2  6  2  0  0  0  0
  3  4  2  0  0  0  0
  3  5  1  0  0  0  0
  4  6  1  0  0  0  0
  4 11  1  0  0  0  0
  5 14  1  0  0  0  0
  6 15  1  0  0  0  0
  7 10  1  0  0  0  0
  7 11  2  0  0  0  0
  7 15  1  0  0  0  0
  8  9  1  0  0  0  0
  8 10  1  0  0  0  0
  9 13  1  0  0  0  0
 10 12  1  0  0  0  0
  1 16  1  0  0  0  0
  2 17  1  0  0  0  0
  3 18  1  0  0  0  0
  8 19  1  0  0  0  0
  8 20  1  0  0  0  0
  9 21  1  0  0  0  0
  9 22  1  0  0  0  0
 10 23  1  0  0  0  0
 12 24  1  0  0  0  0
 12 25  1  0  0  0  0
 13 26  1  0  0  0  0
M  END
> <FRED Chemgauss4 score>
-9.573196

$$$$
C97248644	P154004608
  -OEChem-05122015313D

 43 44  0     1  0  0  0  0  0999 V2000
  124.9534  104.6683  108.3915 C   0  0  0  0  0  0  0  0  0  0  0  0
  126.1981  106.7089  108.0402 C   0  0  0  0  0  0  0  0  0  0  0  0
  123.9431  105.1402  107.5537 C   0  0  0  0  0  0  0  0  0  0  0  0
  125.1878  107.1809  107.2023 C   0  0  0  0  0  0  0  0  0  0  0  0
  126.0810  105.4526  108.6348 C   0  0  0  0  0  0  0  0  0  0  0  0
  124.0602  106.3966  106.9590 C   0  0  0  0  0  0  0  0  0  0  0  0
  119.6531  108.7179  107.2860 C   0  0  0  0  0  0  0  0  0  0  0  0
  121.8166  108.2395  108.1278 C   0  0  0  0  0  0  0  0  0  0  0  0
  120.4357  108.6798  108.5879 C   0  0  1  0  0  0  0  0  0  0  0  0
  120.1549  107.4942  106.5201 C   0  0  2  0  0  0  0  0  0  0  0  0
  118.6996  105.6191  104.5593 C   0  0  0  0  0  0  0  0  0  0  0  0
  119.1940  103.9240  106.1886 C   0  0  0  0  0  0  0  0  0  0  0  0
  119.3266  106.2458  106.7923 C   0  0  0  0  0  0  0  0  0  0  0  0
  121.5450  107.2682  107.0330 N   0  0  1  0  0  0  0  0  0  0  0  0
  128.0833  105.8065  109.9719 N   0  0  0  0  0  0  0  0  0  0  0  0
  127.1029  104.9758  109.4820 N   0  0  0  0  0  0  0  0  0  0  0  0
  119.5141  105.2941  105.7454 N   0  0  0  0  0  0  0  0  0  0  0  0
  123.2225  108.2647  105.3524 O   0  0  0  0  0  0  0  0  0  0  0  0
  122.3925  105.9095  105.0185 O   0  0  0  0  0  0  0  0  0  0  0  0
  120.4874  109.9541  109.1976 O   0  0  0  0  0  0  0  0  0  0  0  0
  122.7805  106.9956  105.8980 S   0  0  0  0  0  0  0  0  0  0  0  0
  124.8517  103.6879  108.8499 H   0  0  0  0  0  0  0  0  0  0  0  0
  127.0731  107.3279  108.2222 H   0  0  0  0  0  0  0  0  0  0  0  0
  123.0691  104.5207  107.3714 H   0  0  0  0  0  0  0  0  0  0  0  0
  125.2895  108.1614  106.7445 H   0  0  0  0  0  0  0  0  0  0  0  0
  118.5752  108.6355  107.4965 H   0  0  0  0  0  0  0  0  0  0  0  0
  119.8213  109.6406  106.7126 H   0  0  0  0  0  0  0  0  0  0  0  0
  122.4246  109.0776  107.7829 H   0  0  0  0  0  0  0  0  0  0  0  0
  122.3427  107.7044  108.9221 H   0  0  0  0  0  0  0  0  0  0  0  0
  119.9977  107.9688  109.3103 H   0  0  0  0  0  0  0  0  0  0  0  0
  120.1909  107.6997  105.4481 H   0  0  0  0  0  0  0  0  0  0  0  0
  118.9235  106.6325  104.2160 H   0  0  0  0  0  0  0  0  0  0  0  0
  117.6355  105.5572  104.8030 H   0  0  0  0  0  0  0  0  0  0  0  0
  118.9149  104.9174  103.7490 H   0  0  0  0  0  0  0  0  0  0  0  0
  119.7890  103.6650  107.0682 H   0  0  0  0  0  0  0  0  0  0  0  0
  119.4136  103.2081  105.3919 H   0  0  0  0  0  0  0  0  0  0  0  0
  118.1341  103.8479  106.4458 H   0  0  0  0  0  0  0  0  0  0  0  0
  118.2774  106.5177  106.8383 H   0  0  0  0  0  0  0  0  0  0  0  0
  119.6398  105.8028  107.7315 H   0  0  0  0  0  0  0  0  0  0  0  0
  128.9781  105.3256  109.8931 H   0  0  0  0  0  0  0  0  0  0  0  0
  127.9241  105.9424  110.9694 H   0  0  0  0  0  0  0  0  0  0  0  0
  126.9879  104.0622  109.8969 H   0  0  0  0  0  0  0  0  0  0  0  0
  119.5695  110.2170  109.3709 H   0  0  0  0  0  0  0  0  0  0  0  0
  1  3  2  0  0  0  0
  1  5  1  0  0  0  0
  2  4  1  0  0  0  0
  2  5  2  0  0  0  0
  3  6  1  0  0  0  0
  4  6  2  0  0  0  0
  5 16  1  0  0  0  0
  6 21  1  0  0  0  0
  7  9  1  0  0  0  0
  7 10  1  0  0  0  0
  8  9  1  0  0  0  0
  8 14  1  0  0  0  0
  9 20  1  0  0  0  0
 10 13  1  0  0  0  0
 10 14  1  0  0  0  0
 11 17  1  0  0  0  0
 12 17  1  0  0  0  0
 13 17  1  0  0  0  0
 14 21  1  0  0  0  0
 15 16  1  0  0  0  0
 18 21  2  0  0  0  0
 19 21  2  0  0  0  0
  1 22  1  0  0  0  0
  2 23  1  0  0  0  0
  3 24  1  0  0  0  0
  4 25  1  0  0  0  0
  7 26  1  0  0  0  0
  7 27  1  0  0  0  0
  8 28  1  0  0  0  0
  8 29  1  0  0  0  0
  9 30  1  0  0  0  0
 10 31  1  0  0  0  0
 11 32  1  0  0  0  0
 11 33  1  0  0  0  0
 11 34  1  0  0  0  0
 12 35  1  0  0  0  0
 12 36  1  0  0  0  0
 12 37  1  0  0  0  0
 13 38  1  0  0  0  0
 13 39  1  0  0  0  0
 15 40  1  0  0  0  0
 15 41  1  0  0  0  0
 16 42  1  0  0  0  0
 20 43  1  0  0  0  0
M  END
> <FRED Chemgauss4 score>
-9.570463

$$$$
C92954709	P145532580
  -OEChem-05122015313D

 44 45  0     1  0  0  0  0  0999 V2000
  123.5810  107.3336  106.5922 C   0  0  0  0  0  0  0  0  0  0  0  0
  121.7954  104.0156  106.9020 C   0  0  0  0  0  0  0  0  0  0  0  0
  120.4847  104.2873  106.1620 C   0  0  0  0  0  0  0  0  0  0  0  0
  125.6585  106.5316  107.6864 C   0  0  0  0  0  0  0  0  0  0  0  0
  122.4043  105.2828  107.4890 C   0  0  0  0  0  0  0  0  0  0  0  0
  121.8095  106.2454  105.2575 C   0  0  0  0  0  0  0  0  0  0  0  0
  126.6376  107.5160  107.0834 C   0  0  0  0  0  0  0  0  0  0  0  0
  124.3838  107.3450  107.8606 C   0  0  1  0  0  0  0  0  0  0  0  0
  120.4117  105.7024  105.5655 C   0  0  1  0  0  0  0  0  0  0  0  0
  124.8550  108.7604  108.2036 C   0  0  1  0  0  0  0  0  0  0  0  0
  124.7892  109.0657  109.6929 C   0  0  0  0  0  0  0  0  0  0  0  0
  119.5196  105.7301  104.3273 C   0  0  0  0  0  0  0  0  0  0  0  0
  118.1596  105.3573  104.6781 N   0  5  0  0  0  0  0  0  0  0  0  0
  122.6386  106.3112  106.4661 N   0  0  0  0  0  0  0  0  0  0  0  0
  117.7020  105.0045  102.1936 N   0  0  0  0  0  0  0  0  0  0  0  0
  126.3018  108.8037  107.7655 N   0  3  0  0  0  0  0  0  0  0  0  0
  123.7819  108.1993  105.7370 O   0  0  0  0  0  0  0  0  0  0  0  0
  115.7470  105.3371  103.7596 O   0  0  0  0  0  0  0  0  0  0  0  0
  117.1980  107.2571  103.2205 O   0  0  0  0  0  0  0  0  0  0  0  0
  117.1048  105.8469  103.5886 S   0  0  0  0  0  0  0  0  0  0  0  0
  121.6058  103.2920  107.7117 H   0  0  0  0  0  0  0  0  0  0  0  0
  122.5146  103.5381  106.2187 H   0  0  0  0  0  0  0  0  0  0  0  0
  120.3625  103.5365  105.3587 H   0  0  0  0  0  0  0  0  0  0  0  0
  119.6374  104.1273  106.8535 H   0  0  0  0  0  0  0  0  0  0  0  0
  125.5021  105.6786  107.0073 H   0  0  0  0  0  0  0  0  0  0  0  0
  126.0228  106.1197  108.6378 H   0  0  0  0  0  0  0  0  0  0  0  0
  121.7538  105.6716  108.2863 H   0  0  0  0  0  0  0  0  0  0  0  0
  123.3780  105.0632  107.9555 H   0  0  0  0  0  0  0  0  0  0  0  0
  122.3346  105.5890  104.5465 H   0  0  0  0  0  0  0  0  0  0  0  0
  121.7263  107.2243  104.7721 H   0  0  0  0  0  0  0  0  0  0  0  0
  127.6711  107.2770  107.3437 H   0  0  0  0  0  0  0  0  0  0  0  0
  126.5263  107.6476  106.0068 H   0  0  0  0  0  0  0  0  0  0  0  0
  123.7573  106.9178  108.6567 H   0  0  0  0  0  0  0  0  0  0  0  0
  119.9488  106.3618  106.3269 H   0  0  0  0  0  0  0  0  0  0  0  0
  124.3330  109.5303  107.6345 H   0  0  0  0  0  0  0  0  0  0  0  0
  125.3123  108.2936  110.2607 H   0  0  0  0  0  0  0  0  0  0  0  0
  123.7500  109.1008  110.0262 H   0  0  0  0  0  0  0  0  0  0  0  0
  125.2562  110.0303  109.9022 H   0  0  0  0  0  0  0  0  0  0  0  0
  119.9376  105.0473  103.5813 H   0  0  0  0  0  0  0  0  0  0  0  0
  119.5557  106.7345  103.8942 H   0  0  0  0  0  0  0  0  0  0  0  0
  117.0972  104.2598  101.8241 H   0  0  0  0  0  0  0  0  0  0  0  0
  118.1017  105.5914  101.4500 H   0  0  0  0  0  0  0  0  0  0  0  0
  126.9366  108.9588  108.5617 H   0  0  0  0  0  0  0  0  0  0  0  0
  126.4447  109.5986  107.1264 H   0  0  0  0  0  0  0  0  0  0  0  0
  1  8  1  0  0  0  0
  1 14  1  0  0  0  0
  1 17  2  0  0  0  0
  2  3  1  0  0  0  0
  2  5  1  0  0  0  0
  3  9  1  0  0  0  0
  4  7  1  0  0  0  0
  4  8  1  0  0  0  0
  5 14  1  0  0  0  0
  6  9  1  0  0  0  0
  6 14  1  0  0  0  0
  7 16  1  0  0  0  0
  8 10  1  0  0  0  0
  9 12  1  0  0  0  0
 10 11  1  0  0  0  0
 10 16  1  0  0  0  0
 12 13  1  0  0  0  0
 13 20  1  0  0  0  0
 15 20  1  0  0  0  0
 18 20  2  0  0  0  0
 19 20  2  0  0  0  0
  2 21  1  0  0  0  0
  2 22  1  0  0  0  0
  3 23  1  0  0  0  0
  3 24  1  0  0  0  0
  4 25  1  0  0  0  0
  4 26  1  0  0  0  0
  5 27  1  0  0  0  0
  5 28  1  0  0  0  0
  6 29  1  0  0  0  0
  6 30  1  0  0  0  0
  7 31  1  0  0  0  0
  7 32  1  0  0  0  0
  8 33  1  0  0  0  0
  9 34  1  0  0  0  0
 10 35  1  0  0  0  0
 11 36  1  0  0  0  0
 11 37  1  0  0  0  0
 11 38  1  0  0  0  0
 12 39  1  0  0  0  0
 12 40  1  0  0  0  0
 15 41  1  0  0  0  0
 15 42  1  0  0  0  0
 16 43  1  0  0  0  0
 16 44  1  0  0  0  0
M  CHG  2  13  -1  16   1
M  END
> <FRED Chemgauss4 score>
-9.569019

$$$$
C37044345	P55071484
  -OEChem-05122015313D

 35 36  0     1  0  0  0  0  0999 V2000
  121.7549  106.7184  107.1638 C   0  0  0  0  0  0  0  0  0  0  0  0
  126.3608  108.0278  107.3625 C   0  0  0  0  0  0  0  0  0  0  0  0
  125.4984  108.8319  108.3275 C   0  0  0  0  0  0  0  0  0  0  0  0
  126.2084  106.5282  107.5962 C   0  0  0  0  0  0  0  0  0  0  0  0
  124.0357  108.4102  108.2481 C   0  0  0  0  0  0  0  0  0  0  0  0
  120.1479  104.8492  106.8092 C   0  0  0  0  0  0  0  0  0  0  0  0
  118.2396  106.5543  106.2036 C   0  0  0  0  0  0  0  0  0  0  0  0
  120.3257  106.2957  107.2514 C   0  0  2  0  0  0  0  0  0  0  0  0
  124.7407  106.0780  107.5168 C   0  0  2  0  0  0  0  0  0  0  0  0
  123.8586  106.9050  108.4761 C   0  0  2  0  0  0  0  0  0  0  0  0
  124.6467  104.5773  107.8106 C   0  0  0  0  0  0  0  0  0  0  0  0
  119.5732  107.1376  106.3201 N   0  0  0  0  0  0  0  0  0  0  0  0
  122.4613  106.5602  108.3407 N   0  0  0  0  0  0  0  0  0  0  0  0
  122.1917  107.1563  106.1059 O   0  0  0  0  0  0  0  0  0  0  0  0
  125.4126  103.8959  106.9477 F   0  0  0  0  0  0  0  0  0  0  0  0
  125.0669  104.3310  109.0589 F   0  0  0  0  0  0  0  0  0  0  0  0
  123.3766  104.1684  107.6868 F   0  0  0  0  0  0  0  0  0  0  0  0
  118.4094  104.7542  106.3179 S   0  0  0  0  0  0  0  0  0  0  0  0
  126.0787  108.2681  106.3301 H   0  0  0  0  0  0  0  0  0  0  0  0
  127.4119  108.3140  107.4817 H   0  0  0  0  0  0  0  0  0  0  0  0
  125.8650  108.6918  109.3518 H   0  0  0  0  0  0  0  0  0  0  0  0
  125.5872  109.9000  108.0993 H   0  0  0  0  0  0  0  0  0  0  0  0
  126.8053  105.9865  106.8526 H   0  0  0  0  0  0  0  0  0  0  0  0
  126.6222  106.2737  108.5806 H   0  0  0  0  0  0  0  0  0  0  0  0
  123.4535  108.9714  108.9895 H   0  0  0  0  0  0  0  0  0  0  0  0
  123.6311  108.6876  107.2655 H   0  0  0  0  0  0  0  0  0  0  0  0
  120.7793  104.5884  105.9531 H   0  0  0  0  0  0  0  0  0  0  0  0
  120.3568  104.1483  107.6227 H   0  0  0  0  0  0  0  0  0  0  0  0
  117.6005  106.9048  107.0203 H   0  0  0  0  0  0  0  0  0  0  0  0
  117.7696  106.8360  105.2571 H   0  0  0  0  0  0  0  0  0  0  0  0
  119.9844  106.4541  108.2761 H   0  0  0  0  0  0  0  0  0  0  0  0
  124.3882  106.2366  106.4880 H   0  0  0  0  0  0  0  0  0  0  0  0
  124.1311  106.6692  109.5127 H   0  0  0  0  0  0  0  0  0  0  0  0
  120.0170  107.0857  105.4018 H   0  0  0  0  0  0  0  0  0  0  0  0
  121.9757  106.1837  109.1492 H   0  0  0  0  0  0  0  0  0  0  0  0
  1  8  1  0  0  0  0
  1 13  1  0  0  0  0
  1 14  2  0  0  0  0
  2  3  1  0  0  0  0
  2  4  1  0  0  0  0
  3  5  1  0  0  0  0
  4  9  1  0  0  0  0
  5 10  1  0  0  0  0
  6  8  1  0  0  0  0
  6 18  1  0  0  0  0
  7 12  1  0  0  0  0
  7 18  1  0  0  0  0
  8 12  1  0  0  0  0
  9 10  1  0  0  0  0
  9 11  1  0  0  0  0
 10 13  1  0  0  0  0
 11 15  1  0  0  0  0
 11 16  1  0  0  0  0
 11 17  1  0  0  0  0
  2 19  1  0  0  0  0
  2 20  1  0  0  0  0
  3 21  1  0  0  0  0
  3 22  1  0  0  0  0
  4 23  1  0  0  0  0
  4 24  1  0  0  0  0
  5 25  1  0  0  0  0
  5 26  1  0  0  0  0
  6 27  1  0  0  0  0
  6 28  1  0  0  0  0
  7 29  1  0  0  0  0
  7 30  1  0  0  0  0
  8 31  1  0  0  0  0
  9 32  1  0  0  0  0
 10 33  1  0  0  0  0
 12 34  1  0  0  0  0
 13 35  1  0  0  0  0
M  END
> <FRED Chemgauss4 score>
-9.566129

$$$$
C87588301	P137003098
  -OEChem-05122015313D

 27 28  0     1  0  0  0  0  0999 V2000
  120.2464  104.8722  105.0455 C   0  0  0  0  0  0  0  0  0  0  0  0
  119.1523  103.4719  106.2171 C   0  0  0  0  0  0  0  0  0  0  0  0
  120.7751  104.9599  106.3117 C   0  0  0  0  0  0  0  0  0  0  0  0
  124.2139  106.7457  106.4289 C   0  0  0  0  0  0  0  0  0  0  0  0
  125.7733  107.9546  107.3323 C   0  0  0  0  0  0  0  0  0  0  0  0
  121.8818  105.8063  106.8983 C   0  0  0  0  0  0  0  0  0  0  0  0
  123.2424  105.6013  106.1954 C   0  0  2  0  0  0  0  0  0  0  0  0
  119.2364  103.9444  104.9933 N   0  0  0  0  0  0  0  0  0  0  0  0
  124.3515  107.8260  105.6939 N   0  0  0  0  0  0  0  0  0  0  0  0
  125.3435  108.5952  106.2686 N   0  0  0  0  0  0  0  0  0  0  0  0
  120.0638  104.0574  107.0511 N   0  0  0  0  0  0  0  0  0  0  0  0
  125.0895  106.7850  107.4713 N   0  0  0  0  0  0  0  0  0  0  0  0
  126.7334  108.3039  108.2185 N   0  0  0  0  0  0  0  0  0  0  0  0
  123.8327  104.3223  106.6128 N   0  0  0  0  0  0  0  0  0  0  0  0
  125.2476  105.8082  108.4815 N   0  0  0  0  0  0  0  0  0  0  0  0
  120.5399  105.4290  104.1670 H   0  0  0  0  0  0  0  0  0  0  0  0
  118.4622  102.7148  106.5615 H   0  0  0  0  0  0  0  0  0  0  0  0
  121.9696  105.5466  107.9626 H   0  0  0  0  0  0  0  0  0  0  0  0
  121.5858  106.8636  106.8811 H   0  0  0  0  0  0  0  0  0  0  0  0
  123.0637  105.5156  105.1159 H   0  0  0  0  0  0  0  0  0  0  0  0
  120.1875  103.8560  108.0347 H   0  0  0  0  0  0  0  0  0  0  0  0
  127.2947  109.1595  108.1061 H   0  0  0  0  0  0  0  0  0  0  0  0
  127.0121  107.6855  108.9929 H   0  0  0  0  0  0  0  0  0  0  0  0
  124.8107  104.2048  106.4894 H   0  0  0  0  0  0  0  0  0  0  0  0
  123.2132  103.5703  106.8041 H   0  0  0  0  0  0  0  0  0  0  0  0
  124.3793  105.3090  108.7004 H   0  0  0  0  0  0  0  0  0  0  0  0
  125.5511  106.2066  109.3763 H   0  0  0  0  0  0  0  0  0  0  0  0
  1  3  2  0  0  0  0
  1  8  1  0  0  0  0
  2  8  2  0  0  0  0
  2 11  1  0  0  0  0
  3  6  1  0  0  0  0
  3 11  1  0  0  0  0
  4  7  1  0  0  0  0
  4  9  2  0  0  0  0
  4 12  1  0  0  0  0
  5 10  2  0  0  0  0
  5 12  1  0  0  0  0
  5 13  1  0  0  0  0
  6  7  1  0  0  0  0
  7 14  1  0  0  0  0
  9 10  1  0  0  0  0
 12 15  1  0  0  0  0
  1 16  1  0  0  0  0
  2 17  1  0  0  0  0
  6 18  1  0  0  0  0
  6 19  1  0  0  0  0
  7 20  1  0  0  0  0
 11 21  1  0  0  0  0
 13 22  1  0  0  0  0
 13 23  1  0  0  0  0
 14 24  1  0  0  0  0
 14 25  1  0  0  0  0
 15 26  1  0  0  0  0
 15 27  1  0  0  0  0
M  END
> <FRED Chemgauss4 score>
-9.564268

$$$$
C87599797	P137038360
  -OEChem-05122015313D

 30 31  0     1  0  0  0  0  0999 V2000
  124.9818  108.2317  108.4106 C   0  0  0  0  0  0  0  0  0  0  0  0
  125.6085  107.1761  107.7336 C   0  0  0  0  0  0  0  0  0  0  0  0
  119.9170  104.6513  105.9975 C   0  0  0  0  0  0  0  0  0  0  0  0
  121.3426  104.7165  105.5099 C   0  0  0  0  0  0  0  0  0  0  0  0
  119.9935  105.4307  107.2933 C   0  0  0  0  0  0  0  0  0  0  0  0
  122.1139  104.5911  106.8125 C   0  0  1  0  0  0  0  0  0  0  0  0
  123.4953  105.2141  106.7603 C   0  0  0  0  0  0  0  0  0  0  0  0
  124.2120  105.0995  108.1096 C   0  0  0  0  0  0  0  0  0  0  0  0
  125.6275  105.6985  108.0716 C   0  0  2  0  0  0  0  0  0  0  0  0
  125.2165  109.3819  107.7728 N   0  0  0  0  0  0  0  0  0  0  0  0
  126.2470  107.6440  106.6574 N   0  0  0  0  0  0  0  0  0  0  0  0
  125.9704  108.9547  106.7470 N   0  0  0  0  0  0  0  0  0  0  0  0
  126.3285  105.5171  109.3214 N   0  0  0  0  0  0  0  0  0  0  0  0
  121.3190  105.2491  107.8135 O   0  0  0  0  0  0  0  0  0  0  0  0
  124.3832  108.2264  109.3095 H   0  0  0  0  0  0  0  0  0  0  0  0
  119.1908  105.0647  105.2928 H   0  0  0  0  0  0  0  0  0  0  0  0
  119.6411  103.6101  106.2026 H   0  0  0  0  0  0  0  0  0  0  0  0
  121.5922  103.9316  104.7906 H   0  0  0  0  0  0  0  0  0  0  0  0
  121.5249  105.6886  105.0359 H   0  0  0  0  0  0  0  0  0  0  0  0
  119.8483  106.5023  107.1199 H   0  0  0  0  0  0  0  0  0  0  0  0
  119.2588  105.0936  108.0299 H   0  0  0  0  0  0  0  0  0  0  0  0
  122.1931  103.5368  107.1052 H   0  0  0  0  0  0  0  0  0  0  0  0
  124.0794  104.7172  105.9775 H   0  0  0  0  0  0  0  0  0  0  0  0
  123.4021  106.2690  106.4770 H   0  0  0  0  0  0  0  0  0  0  0  0
  123.6171  105.6197  108.8719 H   0  0  0  0  0  0  0  0  0  0  0  0
  124.2501  104.0431  108.4055 H   0  0  0  0  0  0  0  0  0  0  0  0
  126.2176  105.1570  107.3218 H   0  0  0  0  0  0  0  0  0  0  0  0
  126.3232  109.6073  106.0561 H   0  0  0  0  0  0  0  0  0  0  0  0
  127.1003  106.1228  109.5369 H   0  0  0  0  0  0  0  0  0  0  0  0
  126.1699  104.6769  109.8488 H   0  0  0  0  0  0  0  0  0  0  0  0
  1  2  1  0  0  0  0
  1 10  2  0  0  0  0
  2  9  1  0  0  0  0
  2 11  2  0  0  0  0
  3  4  1  0  0  0  0
  3  5  1  0  0  0  0
  4  6  1  0  0  0  0
  5 14  1  0  0  0  0
  6  7  1  0  0  0  0
  6 14  1  0  0  0  0
  7  8  1  0  0  0  0
  8  9  1  0  0  0  0
  9 13  1  0  0  0  0
 10 12  1  0  0  0  0
 11 12  1  0  0  0  0
  1 15  1  0  0  0  0
  3 16  1  0  0  0  0
  3 17  1  0  0  0  0
  4 18  1  0  0  0  0
  4 19  1  0  0  0  0
  5 20  1  0  0  0  0
  5 21  1  0  0  0  0
  6 22  1  0  0  0  0
  7 23  1  0  0  0  0
  7 24  1  0  0  0  0
  8 25  1  0  0  0  0
  8 26  1  0  0  0  0
  9 27  1  0  0  0  0
 12 28  1  0  0  0  0
 13 29  1  0  0  0  0
 13 30  1  0  0  0  0
M  END
> <FRED Chemgauss4 score>
-9.562684

$$$$
C70419488	P108576612
  -OEChem-05122015313D

 35 36  0     0  0  0  0  0  0999 V2000
  122.7960  106.4256  105.2351 C   0  0  0  0  0  0  0  0  0  0  0  0
  122.7281  105.0313  107.2070 C   0  0  0  0  0  0  0  0  0  0  0  0
  121.4719  106.0906  104.9526 C   0  0  0  0  0  0  0  0  0  0  0  0
  121.4039  104.6963  106.9245 C   0  0  0  0  0  0  0  0  0  0  0  0
  122.9036  108.5404  108.3660 C   0  0  0  0  0  0  0  0  0  0  0  0
  123.4242  105.8959  106.3623 C   0  0  0  0  0  0  0  0  0  0  0  0
  120.7757  105.2260  105.7973 C   0  0  0  0  0  0  0  0  0  0  0  0
  124.2429  108.2736  108.3217 C   0  0  0  0  0  0  0  0  0  0  0  0
  123.7409  108.9099  110.3817 C   0  0  0  0  0  0  0  0  0  0  0  0
  117.4197  103.7841  105.9457 C   0  0  0  0  0  0  0  0  0  0  0  0
  123.8589  109.2633  111.8155 C   0  0  0  0  0  0  0  0  0  0  0  0
  118.8313  104.0102  106.4274 C   0  0  0  0  0  0  0  0  0  0  0  0
  124.7036  106.2184  106.6345 N   0  5  0  0  0  0  0  0  0  0  0  0
  124.7356  108.5111  109.5823 N   0  0  0  0  0  0  0  0  0  0  0  0
  122.6205  108.9316  109.6525 N   0  3  0  0  0  0  0  0  0  0  0  0
  117.0917  102.4792  105.6932 N   0  0  0  0  0  0  0  0  0  0  0  0
  124.8013  108.6803  105.8628 O   0  0  0  0  0  0  0  0  0  0  0  0
  126.5677  107.8540  107.3540 O   0  0  0  0  0  0  0  0  0  0  0  0
  119.4834  104.8994  105.5219 O   0  0  0  0  0  0  0  0  0  0  0  0
  116.3268  105.0338  105.7593 S   0  0  0  0  0  0  0  0  0  0  0  0
  125.1885  107.7166  106.8908 S   0  0  0  0  0  0  0  0  0  0  0  0
  123.3230  107.1008  104.5644 H   0  0  0  0  0  0  0  0  0  0  0  0
  123.2016  104.6078  108.0901 H   0  0  0  0  0  0  0  0  0  0  0  0
  120.9877  106.5056  104.0724 H   0  0  0  0  0  0  0  0  0  0  0  0
  120.8672  104.0215  107.5856 H   0  0  0  0  0  0  0  0  0  0  0  0
  122.0909  108.5116  107.6676 H   0  0  0  0  0  0  0  0  0  0  0  0
  124.0761  110.3350  111.9384 H   0  0  0  0  0  0  0  0  0  0  0  0
  122.9336  109.0387  112.3690 H   0  0  0  0  0  0  0  0  0  0  0  0
  124.6616  108.6949  112.3115 H   0  0  0  0  0  0  0  0  0  0  0  0
  118.8281  104.4772  107.4171 H   0  0  0  0  0  0  0  0  0  0  0  0
  119.3968  103.0749  106.4857 H   0  0  0  0  0  0  0  0  0  0  0  0
  125.7059  108.4007  109.8640 H   0  0  0  0  0  0  0  0  0  0  0  0
  121.7018  109.1966  109.9970 H   0  0  0  0  0  0  0  0  0  0  0  0
  117.7511  101.7186  105.8221 H   0  0  0  0  0  0  0  0  0  0  0  0
  116.1649  102.2267  105.3664 H   0  0  0  0  0  0  0  0  0  0  0  0
  1  3  2  0  0  0  0
  1  6  1  0  0  0  0
  2  4  1  0  0  0  0
  2  6  2  0  0  0  0
  3  7  1  0  0  0  0
  4  7  2  0  0  0  0
  5  8  2  0  0  0  0
  5 15  1  0  0  0  0
  6 13  1  0  0  0  0
  7 19  1  0  0  0  0
  8 14  1  0  0  0  0
  8 21  1  0  0  0  0
  9 11  1  0  0  0  0
  9 14  1  0  0  0  0
  9 15  2  0  0  0  0
 10 12  1  0  0  0  0
 10 16  1  0  0  0  0
 10 20  2  0  0  0  0
 12 19  1  0  0  0  0
 13 21  1  0  0  0  0
 17 21  2  0  0  0  0
 18 21  2  0  0  0  0
  1 22  1  0  0  0  0
  2 23  1  0  0  0  0
  3 24  1  0  0  0  0
  4 25  1  0  0  0  0
  5 26  1  0  0  0  0
 11 27  1  0  0  0  0
 11 28  1  0  0  0  0
 11 29  1  0  0  0  0
 12 30  1  0  0  0  0
 12 31  1  0  0  0  0
 14 32  1  0  0  0  0
 15 33  1  0  0  0  0
 16 34  1  0  0  0  0
 16 35  1  0  0  0  0
M  CHG  2  13  -1  15   1
M  END
> <FRED Chemgauss4 score>
-9.562428

$$$$
C97556105	P154592888
  -OEChem-05122015313D

 39 40  0     1  0  0  0  0  0999 V2000
  123.9259  112.9776  112.5685 C   0  0  0  0  0  0  0  0  0  0  0  0
  124.1288  110.9932  111.9536 C   0  0  0  0  0  0  0  0  0  0  0  0
  125.5765  108.0628  107.0829 C   0  0  0  0  0  0  0  0  0  0  0  0
  125.1034  109.0936  108.1048 C   0  0  0  0  0  0  0  0  0  0  0  0
  124.4105  107.5129  106.2697 C   0  0  0  0  0  0  0  0  0  0  0  0
  122.8548  107.9520  108.1464 C   0  0  0  0  0  0  0  0  0  0  0  0
  124.0014  108.5091  108.9983 C   0  0  2  0  0  0  0  0  0  0  0  0
  123.0284  104.3799  106.5670 C   0  0  0  0  0  0  0  0  0  0  0  0
  123.4847  109.5617  109.9764 C   0  0  0  0  0  0  0  0  0  0  0  0
  124.3701  109.6858  111.2267 C   0  0  2  0  0  0  0  0  0  0  0  0
  124.2838  112.2135  111.4949 N   0  0  0  0  0  0  0  0  0  0  0  0
  123.5594  112.3070  113.6627 N   0  0  0  0  0  0  0  0  0  0  0  0
  123.6980  111.0402  113.2428 N   0  0  0  0  0  0  0  0  0  0  0  0
  123.3879  106.9359  107.1900 N   0  0  1  0  0  0  0  0  0  0  0  0
  125.3704  108.3908  112.8966 N   0  0  0  0  0  0  0  0  0  0  0  0
  124.1820  108.5631  112.1183 N   0  0  0  0  0  0  0  0  0  0  0  0
  122.1263  106.2992  105.0407 O   0  0  0  0  0  0  0  0  0  0  0  0
  121.0326  105.9063  107.2846 O   0  0  0  0  0  0  0  0  0  0  0  0
  122.2057  105.9463  106.4405 S   0  0  0  0  0  0  0  0  0  0  0  0
  123.9326  114.0573  112.5530 H   0  0  0  0  0  0  0  0  0  0  0  0
  126.3141  108.5178  106.4127 H   0  0  0  0  0  0  0  0  0  0  0  0
  126.0794  107.2401  107.6065 H   0  0  0  0  0  0  0  0  0  0  0  0
  125.9533  109.4173  108.7170 H   0  0  0  0  0  0  0  0  0  0  0  0
  124.7304  109.9819  107.5791 H   0  0  0  0  0  0  0  0  0  0  0  0
  123.9556  108.3026  105.6607 H   0  0  0  0  0  0  0  0  0  0  0  0
  124.7817  106.7298  105.5997 H   0  0  0  0  0  0  0  0  0  0  0  0
  122.1168  107.4745  108.8012 H   0  0  0  0  0  0  0  0  0  0  0  0
  122.3523  108.7513  107.5883 H   0  0  0  0  0  0  0  0  0  0  0  0
  124.4344  107.6849  109.5813 H   0  0  0  0  0  0  0  0  0  0  0  0
  122.3876  103.6174  106.1212 H   0  0  0  0  0  0  0  0  0  0  0  0
  123.9761  104.4444  106.0304 H   0  0  0  0  0  0  0  0  0  0  0  0
  123.2001  104.1655  107.6228 H   0  0  0  0  0  0  0  0  0  0  0  0
  123.4158  110.5207  109.4497 H   0  0  0  0  0  0  0  0  0  0  0  0
  122.4650  109.2845  110.2694 H   0  0  0  0  0  0  0  0  0  0  0  0
  125.4213  109.6387  110.9158 H   0  0  0  0  0  0  0  0  0  0  0  0
  123.4842  110.2815  113.8796 H   0  0  0  0  0  0  0  0  0  0  0  0
  126.0368  109.1261  112.6623 H   0  0  0  0  0  0  0  0  0  0  0  0
  125.1470  108.5214  113.8824 H   0  0  0  0  0  0  0  0  0  0  0  0
  124.0166  107.7100  111.5787 H   0  0  0  0  0  0  0  0  0  0  0  0
  1 11  1  0  0  0  0
  1 12  2  0  0  0  0
  2 10  1  0  0  0  0
  2 11  2  0  0  0  0
  2 13  1  0  0  0  0
  3  4  1  0  0  0  0
  3  5  1  0  0  0  0
  4  7  1  0  0  0  0
  5 14  1  0  0  0  0
  6  7  1  0  0  0  0
  6 14  1  0  0  0  0
  7  9  1  0  0  0  0
  8 19  1  0  0  0  0
  9 10  1  0  0  0  0
 10 16  1  0  0  0  0
 12 13  1  0  0  0  0
 14 19  1  0  0  0  0
 15 16  1  0  0  0  0
 17 19  2  0  0  0  0
 18 19  2  0  0  0  0
  1 20  1  0  0  0  0
  3 21  1  0  0  0  0
  3 22  1  0  0  0  0
  4 23  1  0  0  0  0
  4 24  1  0  0  0  0
  5 25  1  0  0  0  0
  5 26  1  0  0  0  0
  6 27  1  0  0  0  0
  6 28  1  0  0  0  0
  7 29  1  0  0  0  0
  8 30  1  0  0  0  0
  8 31  1  0  0  0  0
  8 32  1  0  0  0  0
  9 33  1  0  0  0  0
  9 34  1  0  0  0  0
 10 35  1  0  0  0  0
 13 36  1  0  0  0  0
 15 37  1  0  0  0  0
 15 38  1  0  0  0  0
 16 39  1  0  0  0  0
M  END
> <FRED Chemgauss4 score>
-9.553704

$$$$
C93778801	P146919869
  -OEChem-05122015313D

 40 42  0     1  0  0  0  0  0999 V2000
  125.0370  107.5538  106.8464 C   0  0  0  0  0  0  0  0  0  0  0  0
  123.0422  107.7674  107.4230 C   0  0  0  0  0  0  0  0  0  0  0  0
  119.0133  106.0517  104.1180 C   0  0  0  0  0  0  0  0  0  0  0  0
  120.6534  104.0821  105.8660 C   0  0  0  0  0  0  0  0  0  0  0  0
  115.1295  107.1426  105.9638 C   0  0  0  0  0  0  0  0  0  0  0  0
  115.3495  106.9562  104.4893 C   0  0  0  0  0  0  0  0  0  0  0  0
  121.1994  105.0453  106.9187 C   0  0  0  0  0  0  0  0  0  0  0  0
  119.1300  104.1686  105.7545 C   0  0  0  0  0  0  0  0  0  0  0  0
  119.2218  106.5849  106.5489 C   0  0  0  0  0  0  0  0  0  0  0  0
  116.5166  106.9167  105.4339 C   0  0  0  0  0  0  0  0  0  0  0  0
  120.7514  106.4821  106.6397 C   0  0  1  0  0  0  0  0  0  0  0  0
  118.6374  105.6005  105.5273 C   0  0  1  0  0  0  0  0  0  0  0  0
  126.3238  106.9188  106.5390 C   0  0  0  0  0  0  0  0  0  0  0  0
  123.9541  106.8360  107.2667 N   0  0  0  0  0  0  0  0  0  0  0  0
  124.8525  108.8708  106.7328 N   0  0  0  0  0  0  0  0  0  0  0  0
  123.5689  108.9810  107.1074 N   0  0  0  0  0  0  0  0  0  0  0  0
  117.1484  105.6013  105.6943 N   0  3  0  0  0  0  0  0  0  0  0  0
  120.1381  106.6149  104.0143 O   0  5  0  0  0  0  0  0  0  0  0  0
  118.1469  105.8026  103.2334 O   0  0  0  0  0  0  0  0  0  0  0  0
  121.3680  107.5916  107.9522 S   0  0  0  0  0  0  0  0  0  0  0  0
  121.1117  104.3033  104.8945 H   0  0  0  0  0  0  0  0  0  0  0  0
  120.9424  103.0566  106.1236 H   0  0  0  0  0  0  0  0  0  0  0  0
  114.8583  108.1319  106.3115 H   0  0  0  0  0  0  0  0  0  0  0  0
  114.6602  106.3328  106.5092 H   0  0  0  0  0  0  0  0  0  0  0  0
  115.0276  106.0216  104.0463 H   0  0  0  0  0  0  0  0  0  0  0  0
  115.2256  107.8206  103.8485 H   0  0  0  0  0  0  0  0  0  0  0  0
  120.8519  104.7194  107.9081 H   0  0  0  0  0  0  0  0  0  0  0  0
  122.2945  104.9797  106.9243 H   0  0  0  0  0  0  0  0  0  0  0  0
  118.7950  103.5080  104.9446 H   0  0  0  0  0  0  0  0  0  0  0  0
  118.6960  103.7685  106.6810 H   0  0  0  0  0  0  0  0  0  0  0  0
  118.7851  106.3782  107.5367 H   0  0  0  0  0  0  0  0  0  0  0  0
  118.9346  107.6129  106.2883 H   0  0  0  0  0  0  0  0  0  0  0  0
  117.1933  107.7628  105.4280 H   0  0  0  0  0  0  0  0  0  0  0  0
  121.1985  106.8244  105.6993 H   0  0  0  0  0  0  0  0  0  0  0  0
  126.3841  106.6171  105.4773 H   0  0  0  0  0  0  0  0  0  0  0  0
  127.1830  107.5869  106.7393 H   0  0  0  0  0  0  0  0  0  0  0  0
  126.5036  106.0125  107.1482 H   0  0  0  0  0  0  0  0  0  0  0  0
  123.1321  109.8947  107.1219 H   0  0  0  0  0  0  0  0  0  0  0  0
  116.9275  105.2947  106.6477 H   0  0  0  0  0  0  0  0  0  0  0  0
  116.7496  104.8962  105.0652 H   0  0  0  0  0  0  0  0  0  0  0  0
  1 13  1  0  0  0  0
  1 14  1  0  0  0  0
  1 15  2  0  0  0  0
  2 14  2  0  0  0  0
  2 16  1  0  0  0  0
  2 20  1  0  0  0  0
  3 12  1  0  0  0  0
  3 18  1  0  0  0  0
  3 19  2  0  0  0  0
  4  7  1  0  0  0  0
  4  8  1  0  0  0  0
  5  6  1  0  0  0  0
  5 10  1  0  0  0  0
  6 10  1  0  0  0  0
  7 11  1  0  0  0  0
  8 12  1  0  0  0  0
  9 11  1  0  0  0  0
  9 12  1  0  0  0  0
 10 17  1  0  0  0  0
 11 20  1  0  0  0  0
 12 17  1  0  0  0  0
 15 16  1  0  0  0  0
  4 21  1  0  0  0  0
  4 22  1  0  0  0  0
  5 23  1  0  0  0  0
  5 24  1  0  0  0  0
  6 25  1  0  0  0  0
  6 26  1  0  0  0  0
  7 27  1  0  0  0  0
  7 28  1  0  0  0  0
  8 29  1  0  0  0  0
  8 30  1  0  0  0  0
  9 31  1  0  0  0  0
  9 32  1  0  0  0  0
 10 33  1  0  0  0  0
 11 34  1  0  0  0  0
 13 35  1  0  0  0  0
 13 36  1  0  0  0  0
 13 37  1  0  0  0  0
 16 38  1  0  0  0  0
 17 39  1  0  0  0  0
 17 40  1  0  0  0  0
M  CHG  2  17   1  18  -1
M  END
> <FRED Chemgauss4 score>
-9.553660

$$$$
4C_CG2012	P10000016
  -OEChem-05122015313D

 25 24  0     1  0  0  0  0  0999 V2000
  123.9862  108.5246  106.7985 C   0  0  0  0  0  0  0  0  0  0  0  0
  124.1298  105.7572  108.2705 C   0  0  0  0  0  0  0  0  0  0  0  0
  125.0927  103.4923  107.9032 C   0  0  0  0  0  0  0  0  0  0  0  0
  123.5626  104.4966  106.1800 C   0  0  0  0  0  0  0  0  0  0  0  0
  124.8212  107.8387  109.1592 C   0  0  0  0  0  0  0  0  0  0  0  0
  124.9050  108.8224  107.9961 C   0  0  1  0  0  0  0  0  0  0  0  0
  124.6383  104.7796  107.2255 C   0  0  0  0  0  0  0  0  0  0  0  0
  126.3512  108.9280  107.6215 N   0  3  0  0  0  0  0  0  0  0  0  0
  122.9020  107.9328  107.0580 O   0  5  0  0  0  0  0  0  0  0  0  0
  124.4427  108.8969  105.6788 O   0  0  0  0  0  0  0  0  0  0  0  0
  122.9682  105.8340  108.6491 O   0  0  0  0  0  0  0  0  0  0  0  0
  125.1688  106.5208  108.7225 O   0  0  0  0  0  0  0  0  0  0  0  0
  124.2595  103.0092  108.4238 H   0  0  0  0  0  0  0  0  0  0  0  0
  125.8863  103.6869  108.6333 H   0  0  0  0  0  0  0  0  0  0  0  0
  125.4893  102.7816  107.1703 H   0  0  0  0  0  0  0  0  0  0  0  0
  122.6871  104.0268  106.6404 H   0  0  0  0  0  0  0  0  0  0  0  0
  123.9412  103.8212  105.4051 H   0  0  0  0  0  0  0  0  0  0  0  0
  123.2327  105.4166  105.6845 H   0  0  0  0  0  0  0  0  0  0  0  0
  123.8067  107.8078  109.5716 H   0  0  0  0  0  0  0  0  0  0  0  0
  125.5061  108.1261  109.9639 H   0  0  0  0  0  0  0  0  0  0  0  0
  124.6275  109.8191  108.3610 H   0  0  0  0  0  0  0  0  0  0  0  0
  125.4865  105.2474  106.7104 H   0  0  0  0  0  0  0  0  0  0  0  0
  126.5750  108.2568  106.8860 H   0  0  0  0  0  0  0  0  0  0  0  0
  126.9401  108.7339  108.4323 H   0  0  0  0  0  0  0  0  0  0  0  0
  126.5600  109.8677  107.2822 H   0  0  0  0  0  0  0  0  0  0  0  0
  1  6  1  0  0  0  0
  1  9  1  0  0  0  0
  1 10  2  0  0  0  0
  2  7  1  0  0  0  0
  2 11  2  0  0  0  0
  2 12  1  0  0  0  0
  3  7  1  0  0  0  0
  4  7  1  0  0  0  0
  5  6  1  0  0  0  0
  5 12  1  0  0  0  0
  6  8  1  0  0  0  0
  3 13  1  0  0  0  0
  3 14  1  0  0  0  0
  3 15  1  0  0  0  0
  4 16  1  0  0  0  0
  4 17  1  0  0  0  0
  4 18  1  0  0  0  0
  5 19  1  0  0  0  0
  5 20  1  0  0  0  0
  6 21  1  0  0  0  0
  7 22  1  0  0  0  0
  8 23  1  0  0  0  0
  8 24  1  0  0  0  0
  8 25  1  0  0  0  0
M  CHG  2   8   1   9  -1
M  END
> <FRED Chemgauss4 score>
-9.548592

$$$$
C70948188	P109520132
  -OEChem-05122015313D

 37 37  0     1  0  0  0  0  0999 V2000
  119.1871  105.0199  106.2325 C   0  0  0  0  0  0  0  0  0  0  0  0
  119.6821  106.1684  106.7445 C   0  0  0  0  0  0  0  0  0  0  0  0
  120.0013  103.7749  106.4030 C   0  0  0  0  0  0  0  0  0  0  0  0
  121.5687  105.1843  107.5718 C   0  0  0  0  0  0  0  0  0  0  0  0
  118.9767  107.4928  106.6072 C   0  0  0  0  0  0  0  0  0  0  0  0
  118.1068  104.3703  104.0949 C   0  0  0  0  0  0  0  0  0  0  0  0
  116.9748  103.8785  106.2846 C   0  0  0  0  0  0  0  0  0  0  0  0
  124.1491  105.8318  106.1962 C   0  0  0  0  0  0  0  0  0  0  0  0
  125.3842  104.8779  108.1471 C   0  0  0  0  0  0  0  0  0  0  0  0
  117.8758  104.8475  105.5247 C   0  0  0  0  0  0  0  0  0  0  0  0
  122.8819  105.2165  108.2985 C   0  0  1  0  0  0  0  0  0  0  0  0
  124.0580  104.8612  107.3789 C   0  0  0  0  0  0  0  0  0  0  0  0
  120.8789  106.2691  107.4241 N   0  0  0  0  0  0  0  0  0  0  0  0
  121.1807  103.9568  107.0930 N   0  0  0  0  0  0  0  0  0  0  0  0
  122.9424  106.5713  108.7764 N   0  0  0  0  0  0  0  0  0  0  0  0
  119.6341  102.6920  105.9559 O   0  0  0  0  0  0  0  0  0  0  0  0
  118.3097  107.6301  107.4523 H   0  0  0  0  0  0  0  0  0  0  0  0
  118.4083  107.4998  105.6822 H   0  0  0  0  0  0  0  0  0  0  0  0
  119.7147  108.2887  106.5849 H   0  0  0  0  0  0  0  0  0  0  0  0
  118.6017  103.3928  104.0711 H   0  0  0  0  0  0  0  0  0  0  0  0
  118.7334  105.0775  103.5400 H   0  0  0  0  0  0  0  0  0  0  0  0
  117.1552  104.2786  103.5604 H   0  0  0  0  0  0  0  0  0  0  0  0
  117.4285  102.8829  106.3436 H   0  0  0  0  0  0  0  0  0  0  0  0
  115.9962  103.7738  105.8024 H   0  0  0  0  0  0  0  0  0  0  0  0
  116.8089  104.2299  107.3087 H   0  0  0  0  0  0  0  0  0  0  0  0
  124.2916  106.8624  106.5367 H   0  0  0  0  0  0  0  0  0  0  0  0
  123.2285  105.8082  105.6030 H   0  0  0  0  0  0  0  0  0  0  0  0
  124.9835  105.5739  105.5350 H   0  0  0  0  0  0  0  0  0  0  0  0
  125.5813  105.8664  108.5761 H   0  0  0  0  0  0  0  0  0  0  0  0
  125.3812  104.1474  108.9625 H   0  0  0  0  0  0  0  0  0  0  0  0
  126.2193  104.6243  107.4851 H   0  0  0  0  0  0  0  0  0  0  0  0
  117.3807  105.8245  105.4930 H   0  0  0  0  0  0  0  0  0  0  0  0
  122.8220  104.5515  109.1639 H   0  0  0  0  0  0  0  0  0  0  0  0
  123.9162  103.8499  106.9745 H   0  0  0  0  0  0  0  0  0  0  0  0
  121.7839  103.1552  107.2530 H   0  0  0  0  0  0  0  0  0  0  0  0
  123.8307  106.9530  109.0605 H   0  0  0  0  0  0  0  0  0  0  0  0
  122.0864  107.0478  109.0126 H   0  0  0  0  0  0  0  0  0  0  0  0
  1  2  2  0  0  0  0
  1  3  1  0  0  0  0
  1 10  1  0  0  0  0
  2  5  1  0  0  0  0
  2 13  1  0  0  0  0
  3 14  1  0  0  0  0
  3 16  2  0  0  0  0
  4 11  1  0  0  0  0
  4 13  2  0  0  0  0
  4 14  1  0  0  0  0
  6 10  1  0  0  0  0
  7 10  1  0  0  0  0
  8 12  1  0  0  0  0
  9 12  1  0  0  0  0
 11 12  1  0  0  0  0
 11 15  1  0  0  0  0
  5 17  1  0  0  0  0
  5 18  1  0  0  0  0
  5 19  1  0  0  0  0
  6 20  1  0  0  0  0
  6 21  1  0  0  0  0
  6 22  1  0  0  0  0
  7 23  1  0  0  0  0
  7 24  1  0  0  0  0
  7 25  1  0  0  0  0
  8 26  1  0  0  0  0
  8 27  1  0  0  0  0
  8 28  1  0  0  0  0
  9 29  1  0  0  0  0
  9 30  1  0  0  0  0
  9 31  1  0  0  0  0
 10 32  1  0  0  0  0
 11 33  1  0  0  0  0
 12 34  1  0  0  0  0
 14 35  1  0  0  0  0
 15 36  1  0  0  0  0
 15 37  1  0  0  0  0
M  END
> <FRED Chemgauss4 score>
-9.545473

$$$$
C40807009	P61962224
  -OEChem-05122015313D

 27 27  0     0  0  0  0  0  0999 V2000
  124.9390  109.6258  108.8917 C   0  0  0  0  0  0  0  0  0  0  0  0
  124.9361  108.6909  107.8625 C   0  0  0  0  0  0  0  0  0  0  0  0
  123.7764  109.7821  109.6291 C   0  0  0  0  0  0  0  0  0  0  0  0
  123.7869  107.9515  107.6057 C   0  0  0  0  0  0  0  0  0  0  0  0
  122.6759  108.1826  108.4008 C   0  0  0  0  0  0  0  0  0  0  0  0
  125.6499  105.4746  108.5396 C   0  0  0  0  0  0  0  0  0  0  0  0
  125.0844  104.8129  107.2807 C   0  0  0  0  0  0  0  0  0  0  0  0
  127.0625  104.9858  108.8271 C   0  0  0  0  0  0  0  0  0  0  0  0
  122.6409  109.0821  109.4094 N   0  0  0  0  0  0  0  0  0  0  0  0
  123.7509  105.3242  106.9955 N   0  5  0  0  0  0  0  0  0  0  0  0
  127.5847  105.6856  110.0255 N   0  3  0  0  0  0  0  0  0  0  0  0
  125.0516  107.0457  105.5782 O   0  0  0  0  0  0  0  0  0  0  0  0
  122.6001  107.0951  105.5112 O   0  0  0  0  0  0  0  0  0  0  0  0
  123.7996  106.7441  106.2682 S   0  0  0  0  0  0  0  0  0  0  0  0
  121.1911  107.3383  108.1917 Cl  0  0  0  0  0  0  0  0  0  0  0  0
  125.8232  110.2135  109.1099 H   0  0  0  0  0  0  0  0  0  0  0  0
  125.8344  108.5481  107.2682 H   0  0  0  0  0  0  0  0  0  0  0  0
  123.7270  110.4983  110.4427 H   0  0  0  0  0  0  0  0  0  0  0  0
  125.6527  106.5658  108.4172 H   0  0  0  0  0  0  0  0  0  0  0  0
  125.0004  105.2573  109.3978 H   0  0  0  0  0  0  0  0  0  0  0  0
  125.0594  103.7257  107.4231 H   0  0  0  0  0  0  0  0  0  0  0  0
  125.7597  105.0021  106.4375 H   0  0  0  0  0  0  0  0  0  0  0  0
  127.7489  105.2092  108.0052 H   0  0  0  0  0  0  0  0  0  0  0  0
  127.0885  103.9148  109.0487 H   0  0  0  0  0  0  0  0  0  0  0  0
  127.2084  105.2724  110.8858 H   0  0  0  0  0  0  0  0  0  0  0  0
  127.3257  106.6783  110.0129 H   0  0  0  0  0  0  0  0  0  0  0  0
  128.6080  105.6270  110.0687 H   0  0  0  0  0  0  0  0  0  0  0  0
  1  2  1  0  0  0  0
  1  3  2  0  0  0  0
  2  4  2  0  0  0  0
  3  9  1  0  0  0  0
  4  5  1  0  0  0  0
  4 14  1  0  0  0  0
  5  9  2  0  0  0  0
  5 15  1  0  0  0  0
  6  7  1  0  0  0  0
  6  8  1  0  0  0  0
  7 10  1  0  0  0  0
  8 11  1  0  0  0  0
 10 14  1  0  0  0  0
 12 14  2  0  0  0  0
 13 14  2  0  0  0  0
  1 16  1  0  0  0  0
  2 17  1  0  0  0  0
  3 18  1  0  0  0  0
  6 19  1  0  0  0  0
  6 20  1  0  0  0  0
  7 21  1  0  0  0  0
  7 22  1  0  0  0  0
  8 23  1  0  0  0  0
  8 24  1  0  0  0  0
 11 25  1  0  0  0  0
 11 26  1  0  0  0  0
 11 27  1  0  0  0  0
M  CHG  2  10  -1  11   1
M  END
> <FRED Chemgauss4 score>
-9.543916

$$$$
C87448699	P136806035
  -OEChem-05122015313D

 29 29  0     0  0  0  0  0  0999 V2000
  119.9484  104.3108  106.3953 C   0  0  0  0  0  0  0  0  0  0  0  0
  117.9389  103.7830  106.1946 C   0  0  0  0  0  0  0  0  0  0  0  0
  121.1959  105.1165  106.3517 C   0  0  0  0  0  0  0  0  0  0  0  0
  116.4908  103.7070  105.9438 C   0  0  0  0  0  0  0  0  0  0  0  0
  123.8811  105.8421  108.1684 C   0  0  0  0  0  0  0  0  0  0  0  0
  123.6283  105.1379  106.8403 C   0  0  0  0  0  0  0  0  0  0  0  0
  125.2458  106.5157  108.2193 C   0  0  0  0  0  0  0  0  0  0  0  0
  118.7409  104.8017  105.9886 N   0  0  0  0  0  0  0  0  0  0  0  0
  119.9441  103.0523  106.8400 N   0  0  0  0  0  0  0  0  0  0  0  0
  118.6471  102.7381  106.7011 N   0  0  0  0  0  0  0  0  0  0  0  0
  126.6795  108.6683  107.6181 N   0  0  0  0  0  0  0  0  0  0  0  0
  122.3498  104.4829  106.7984 N   0  0  0  0  0  0  0  0  0  0  0  0
  121.1467  106.2775  105.9540 O   0  0  0  0  0  0  0  0  0  0  0  0
  125.8503  107.1093  105.7476 O   0  0  0  0  0  0  0  0  0  0  0  0
  124.1896  108.5601  106.9815 O   0  0  0  0  0  0  0  0  0  0  0  0
  125.3967  107.7523  106.9686 S   0  0  0  0  0  0  0  0  0  0  0  0
  116.2784  103.3493  104.9213 H   0  0  0  0  0  0  0  0  0  0  0  0
  115.9798  103.0242  106.6465 H   0  0  0  0  0  0  0  0  0  0  0  0
  115.9939  104.6872  106.0619 H   0  0  0  0  0  0  0  0  0  0  0  0
  123.8117  105.1046  108.9775 H   0  0  0  0  0  0  0  0  0  0  0  0
  123.0958  106.5854  108.3540 H   0  0  0  0  0  0  0  0  0  0  0  0
  123.6692  105.8452  106.0058 H   0  0  0  0  0  0  0  0  0  0  0  0
  124.3872  104.3672  106.6731 H   0  0  0  0  0  0  0  0  0  0  0  0
  125.4073  107.0146  109.1795 H   0  0  0  0  0  0  0  0  0  0  0  0
  126.0563  105.8003  108.0522 H   0  0  0  0  0  0  0  0  0  0  0  0
  118.3303  101.8131  106.9668 H   0  0  0  0  0  0  0  0  0  0  0  0
  127.5921  108.6129  107.1494 H   0  0  0  0  0  0  0  0  0  0  0  0
  126.4610  109.6009  107.9898 H   0  0  0  0  0  0  0  0  0  0  0  0
  122.2943  103.5369  107.1718 H   0  0  0  0  0  0  0  0  0  0  0  0
  1  3  1  0  0  0  0
  1  8  1  0  0  0  0
  1  9  2  0  0  0  0
  2  4  1  0  0  0  0
  2  8  2  0  0  0  0
  2 10  1  0  0  0  0
  3 12  1  0  0  0  0
  3 13  2  0  0  0  0
  5  6  1  0  0  0  0
  5  7  1  0  0  0  0
  6 12  1  0  0  0  0
  7 16  1  0  0  0  0
  9 10  1  0  0  0  0
 11 16  1  0  0  0  0
 14 16  2  0  0  0  0
 15 16  2  0  0  0  0
  4 17  1  0  0  0  0
  4 18  1  0  0  0  0
  4 19  1  0  0  0  0
  5 20  1  0  0  0  0
  5 21  1  0  0  0  0
  6 22  1  0  0  0  0
  6 23  1  0  0  0  0
  7 24  1  0  0  0  0
  7 25  1  0  0  0  0
 10 26  1  0  0  0  0
 11 27  1  0  0  0  0
 11 28  1  0  0  0  0
 12 29  1  0  0  0  0
M  END
> <FRED Chemgauss4 score>
-9.534479

$$$$
C37750230	P56129578
  -OEChem-05122015313D

 28 28  0     0  0  0  0  0  0999 V2000
  124.4504  105.1501  107.3555 C   0  0  0  0  0  0  0  0  0  0  0  0
  125.6010  105.7909  107.7452 C   0  0  0  0  0  0  0  0  0  0  0  0
  126.1490  104.9572  108.7384 C   0  0  0  0  0  0  0  0  0  0  0  0
  121.2617  108.1757  110.7134 C   0  0  0  0  0  0  0  0  0  0  0  0
  124.7508  109.0962  108.6229 C   0  0  0  0  0  0  0  0  0  0  0  0
  123.7464  108.3485  109.4786 C   0  0  0  0  0  0  0  0  0  0  0  0
  125.4074  103.8699  108.9658 N   0  0  0  0  0  0  0  0  0  0  0  0
  124.3816  104.0159  108.1099 N   0  0  0  0  0  0  0  0  0  0  0  0
  127.3109  105.2630  109.3737 N   0  0  0  0  0  0  0  0  0  0  0  0
  125.9775  108.3644  108.4619 N   0  0  0  0  0  0  0  0  0  0  0  0
  127.6478  107.1703  106.8979 O   0  0  0  0  0  0  0  0  0  0  0  0
  125.3541  107.7104  106.0195 O   0  0  0  0  0  0  0  0  0  0  0  0
  122.5646  110.4337  110.5217 O   0  0  0  0  0  0  0  0  0  0  0  0
  121.5969  109.4035  108.4303 O   0  0  0  0  0  0  0  0  0  0  0  0
  126.2216  107.3213  107.1148 S   0  0  0  0  0  0  0  0  0  0  0  0
  122.2554  109.2635  109.7178 S   0  0  0  0  0  0  0  0  0  0  0  0
  123.6899  105.3914  106.6265 H   0  0  0  0  0  0  0  0  0  0  0  0
  120.3079  108.6667  110.9129 H   0  0  0  0  0  0  0  0  0  0  0  0
  121.1061  107.2485  110.1599 H   0  0  0  0  0  0  0  0  0  0  0  0
  121.7936  107.9802  111.6456 H   0  0  0  0  0  0  0  0  0  0  0  0
  124.3542  109.3001  107.6234 H   0  0  0  0  0  0  0  0  0  0  0  0
  125.0090  110.0501  109.0927 H   0  0  0  0  0  0  0  0  0  0  0  0
  124.1569  108.1665  110.4763 H   0  0  0  0  0  0  0  0  0  0  0  0
  123.4658  107.3898  109.0320 H   0  0  0  0  0  0  0  0  0  0  0  0
  123.6656  103.3004  108.0926 H   0  0  0  0  0  0  0  0  0  0  0  0
  127.8614  106.0913  109.1218 H   0  0  0  0  0  0  0  0  0  0  0  0
  127.7311  104.6298  110.0630 H   0  0  0  0  0  0  0  0  0  0  0  0
  126.8346  108.7540  108.9083 H   0  0  0  0  0  0  0  0  0  0  0  0
  1  2  2  0  0  0  0
  1  8  1  0  0  0  0
  2  3  1  0  0  0  0
  2 15  1  0  0  0  0
  3  7  2  0  0  0  0
  3  9  1  0  0  0  0
  4 16  1  0  0  0  0
  5  6  1  0  0  0  0
  5 10  1  0  0  0  0
  6 16  1  0  0  0  0
  7  8  1  0  0  0  0
 10 15  1  0  0  0  0
 11 15  2  0  0  0  0
 12 15  2  0  0  0  0
 13 16  2  0  0  0  0
 14 16  2  0  0  0  0
  1 17  1  0  0  0  0
  4 18  1  0  0  0  0
  4 19  1  0  0  0  0
  4 20  1  0  0  0  0
  5 21  1  0  0  0  0
  5 22  1  0  0  0  0
  6 23  1  0  0  0  0
  6 24  1  0  0  0  0
  8 25  1  0  0  0  0
  9 26  1  0  0  0  0
  9 27  1  0  0  0  0
 10 28  1  0  0  0  0
M  END
> <FRED Chemgauss4 score>
-9.531889

$$$$
C97773409	P155153740
  -OEChem-05122015313D

 40 41  0     1  0  0  0  0  0999 V2000
  123.7731  106.1298  107.5175 C   0  0  0  0  0  0  0  0  0  0  0  0
  125.6473  107.4671  106.9212 C   0  0  0  0  0  0  0  0  0  0  0  0
  123.5424  108.1888  106.3499 C   0  0  0  0  0  0  0  0  0  0  0  0
  125.1503  106.3212  107.5210 C   0  0  0  0  0  0  0  0  0  0  0  0
  122.9467  107.0766  106.9227 C   0  0  0  0  0  0  0  0  0  0  0  0
  119.4645  106.2413  105.4643 C   0  0  0  0  0  0  0  0  0  0  0  0
  118.2641  106.8405  105.0381 C   0  0  0  0  0  0  0  0  0  0  0  0
  119.0948  104.9820  105.8693 C   0  0  0  0  0  0  0  0  0  0  0  0
  126.0611  105.3275  108.1500 C   0  0  0  0  0  0  0  0  0  0  0  0
  118.0733  108.1994  104.5011 C   0  0  0  0  0  0  0  0  0  0  0  0
  119.8852  103.8647  106.4197 C   0  0  0  0  0  0  0  0  0  0  0  0
  116.8911  103.7765  105.9441 C   0  0  0  0  0  0  0  0  0  0  0  0
  120.8504  106.8451  105.4758 C   0  0  0  0  0  0  0  0  0  0  0  0
  121.4697  106.9018  106.9042 C   0  0  2  0  0  0  0  0  0  0  0  0
  124.8761  108.4092  106.3337 N   0  0  0  0  0  0  0  0  0  0  0  0
  117.2106  106.0286  105.1607 N   0  0  0  0  0  0  0  0  0  0  0  0
  117.7480  104.9063  105.6686 N   0  0  0  0  0  0  0  0  0  0  0  0
  120.8421  107.5935  109.0481 N   0  0  0  0  0  0  0  0  0  0  0  0
  120.7775  107.9584  107.6770 N   0  0  0  0  0  0  0  0  0  0  0  0
  123.3438  105.2429  107.9773 H   0  0  0  0  0  0  0  0  0  0  0  0
  126.7137  107.6702  106.8936 H   0  0  0  0  0  0  0  0  0  0  0  0
  122.9483  108.9615  105.8714 H   0  0  0  0  0  0  0  0  0  0  0  0
  126.3692  104.5690  107.4180 H   0  0  0  0  0  0  0  0  0  0  0  0
  126.9652  105.8074  108.5505 H   0  0  0  0  0  0  0  0  0  0  0  0
  125.5769  104.8157  108.9938 H   0  0  0  0  0  0  0  0  0  0  0  0
  118.1830  108.2145  103.4034 H   0  0  0  0  0  0  0  0  0  0  0  0
  117.0749  108.6057  104.7415 H   0  0  0  0  0  0  0  0  0  0  0  0
  118.8008  108.9179  104.9185 H   0  0  0  0  0  0  0  0  0  0  0  0
  119.9361  103.9169  107.5199 H   0  0  0  0  0  0  0  0  0  0  0  0
  119.4585  102.8829  106.1509 H   0  0  0  0  0  0  0  0  0  0  0  0
  120.9206  103.8611  106.0368 H   0  0  0  0  0  0  0  0  0  0  0  0
  116.5275  103.8713  106.9707 H   0  0  0  0  0  0  0  0  0  0  0  0
  116.0539  103.7742  105.2406 H   0  0  0  0  0  0  0  0  0  0  0  0
  117.4625  102.8518  105.8237 H   0  0  0  0  0  0  0  0  0  0  0  0
  120.7776  107.8515  105.0403 H   0  0  0  0  0  0  0  0  0  0  0  0
  121.5037  106.2815  104.7966 H   0  0  0  0  0  0  0  0  0  0  0  0
  121.1961  105.9558  107.4118 H   0  0  0  0  0  0  0  0  0  0  0  0
  121.4372  106.7731  109.1598 H   0  0  0  0  0  0  0  0  0  0  0  0
  121.3099  108.3471  109.5502 H   0  0  0  0  0  0  0  0  0  0  0  0
  119.8146  107.9957  107.3696 H   0  0  0  0  0  0  0  0  0  0  0  0
  1  4  1  0  0  0  0
  1  5  2  0  0  0  0
  2  4  2  0  0  0  0
  2 15  1  0  0  0  0
  3  5  1  0  0  0  0
  3 15  2  0  0  0  0
  4  9  1  0  0  0  0
  5 14  1  0  0  0  0
  6  7  1  0  0  0  0
  6  8  2  0  0  0  0
  6 13  1  0  0  0  0
  7 10  1  0  0  0  0
  7 16  2  0  0  0  0
  8 11  1  0  0  0  0
  8 17  1  0  0  0  0
 12 17  1  0  0  0  0
 13 14  1  0  0  0  0
 14 19  1  0  0  0  0
 16 17  1  0  0  0  0
 18 19  1  0  0  0  0
  1 20  1  0  0  0  0
  2 21  1  0  0  0  0
  3 22  1  0  0  0  0
  9 23  1  0  0  0  0
  9 24  1  0  0  0  0
  9 25  1  0  0  0  0
 10 26  1  0  0  0  0
 10 27  1  0  0  0  0
 10 28  1  0  0  0  0
 11 29  1  0  0  0  0
 11 30  1  0  0  0  0
 11 31  1  0  0  0  0
 12 32  1  0  0  0  0
 12 33  1  0  0  0  0
 12 34  1  0  0  0  0
 13 35  1  0  0  0  0
 13 36  1  0  0  0  0
 14 37  1  0  0  0  0
 18 38  1  0  0  0  0
 18 39  1  0  0  0  0
 19 40  1  0  0  0  0
M  END
> <FRED Chemgauss4 score>
-9.528282

$$$$
C80996774	P126495927
  -OEChem-05122015313D

 47 48  0     1  0  0  0  0  0999 V2000
  124.4507  108.2597  108.6374 C   0  0  0  0  0  0  0  0  0  0  0  0
  121.4754  109.8669  111.5872 C   0  0  0  0  0  0  0  0  0  0  0  0
  121.1182  109.2218  110.2513 C   0  0  0  0  0  0  0  0  0  0  0  0
  125.3136  105.2483  106.9201 C   0  0  0  0  0  0  0  0  0  0  0  0
  122.3848  111.0886  111.4986 C   0  0  0  0  0  0  0  0  0  0  0  0
  122.2127  109.1509  109.1882 C   0  0  0  0  0  0  0  0  0  0  0  0
  124.1953  104.2843  107.3187 C   0  0  0  0  0  0  0  0  0  0  0  0
  125.6723  106.1849  108.0696 C   0  0  0  0  0  0  0  0  0  0  0  0
  123.4050  105.9727  109.0250 C   0  0  0  0  0  0  0  0  0  0  0  0
  123.8619  110.7243  111.4565 C   0  0  0  0  0  0  0  0  0  0  0  0
  123.6139  108.8677  109.7201 C   0  0  2  0  0  0  0  0  0  0  0  0
  122.9745  105.0105  107.9074 C   0  0  1  0  0  0  0  0  0  0  0  0
  122.1752  105.7427  106.8255 C   0  0  0  0  0  0  0  0  0  0  0  0
  121.6551  104.7943  105.8550 N   0  5  0  0  0  0  0  0  0  0  0  0
  124.4819  106.8669  108.5794 N   0  0  0  0  0  0  0  0  0  0  0  0
  119.2343  105.4728  105.4243 N   0  0  0  0  0  0  0  0  0  0  0  0
  124.2642  110.1516  110.1421 N   0  3  0  0  0  0  0  0  0  0  0  0
  125.0599  108.9989  107.8597 O   0  0  0  0  0  0  0  0  0  0  0  0
  121.0897  106.9353  104.5280 O   0  0  0  0  0  0  0  0  0  0  0  0
  120.6651  104.7471  103.4726 O   0  0  0  0  0  0  0  0  0  0  0  0
  120.8144  105.5124  104.7075 S   0  0  0  0  0  0  0  0  0  0  0  0
  120.5460  110.1742  112.0831 H   0  0  0  0  0  0  0  0  0  0  0  0
  121.9369  109.1197  112.2451 H   0  0  0  0  0  0  0  0  0  0  0  0
  120.8053  108.1727  110.4734 H   0  0  0  0  0  0  0  0  0  0  0  0
  120.1905  109.6866  109.8315 H   0  0  0  0  0  0  0  0  0  0  0  0
  126.1997  104.6699  106.6300 H   0  0  0  0  0  0  0  0  0  0  0  0
  125.0070  105.8322  106.0451 H   0  0  0  0  0  0  0  0  0  0  0  0
  122.1199  111.6756  110.6228 H   0  0  0  0  0  0  0  0  0  0  0  0
  122.2062  111.7090  112.3737 H   0  0  0  0  0  0  0  0  0  0  0  0
  121.9544  108.3824  108.4555 H   0  0  0  0  0  0  0  0  0  0  0  0
  122.2206  110.0972  108.6406 H   0  0  0  0  0  0  0  0  0  0  0  0
  123.8912  103.6990  106.4337 H   0  0  0  0  0  0  0  0  0  0  0  0
  124.5862  103.5553  108.0478 H   0  0  0  0  0  0  0  0  0  0  0  0
  126.1698  105.6198  108.8645 H   0  0  0  0  0  0  0  0  0  0  0  0
  126.3728  106.9580  107.7307 H   0  0  0  0  0  0  0  0  0  0  0  0
  122.5644  106.6133  109.3303 H   0  0  0  0  0  0  0  0  0  0  0  0
  123.6975  105.3990  109.9106 H   0  0  0  0  0  0  0  0  0  0  0  0
  124.4678  111.6383  111.5841 H   0  0  0  0  0  0  0  0  0  0  0  0
  124.1590  110.0205  112.2552 H   0  0  0  0  0  0  0  0  0  0  0  0
  123.5917  108.2177  110.5578 H   0  0  0  0  0  0  0  0  0  0  0  0
  122.3124  104.2458  108.3564 H   0  0  0  0  0  0  0  0  0  0  0  0
  122.8282  106.4798  106.3484 H   0  0  0  0  0  0  0  0  0  0  0  0
  121.3659  106.3000  107.3074 H   0  0  0  0  0  0  0  0  0  0  0  0
  118.8392  106.3828  105.6941 H   0  0  0  0  0  0  0  0  0  0  0  0
  118.5448  104.8668  104.9612 H   0  0  0  0  0  0  0  0  0  0  0  0
  124.1462  110.8626  109.4030 H   0  0  0  0  0  0  0  0  0  0  0  0
  125.2819  109.9817  110.1679 H   0  0  0  0  0  0  0  0  0  0  0  0
  1 11  1  0  0  0  0
  1 15  1  0  0  0  0
  1 18  2  0  0  0  0
  2  3  1  0  0  0  0
  2  5  1  0  0  0  0
  3  6  1  0  0  0  0
  4  7  1  0  0  0  0
  4  8  1  0  0  0  0
  5 10  1  0  0  0  0
  6 11  1  0  0  0  0
  7 12  1  0  0  0  0
  8 15  1  0  0  0  0
  9 12  1  0  0  0  0
  9 15  1  0  0  0  0
 10 17  1  0  0  0  0
 11 17  1  0  0  0  0
 12 13  1  0  0  0  0
 13 14  1  0  0  0  0
 14 21  1  0  0  0  0
 16 21  1  0  0  0  0
 19 21  2  0  0  0  0
 20 21  2  0  0  0  0
  2 22  1  0  0  0  0
  2 23  1  0  0  0  0
  3 24  1  0  0  0  0
  3 25  1  0  0  0  0
  4 26  1  0  0  0  0
  4 27  1  0  0  0  0
  5 28  1  0  0  0  0
  5 29  1  0  0  0  0
  6 30  1  0  0  0  0
  6 31  1  0  0  0  0
  7 32  1  0  0  0  0
  7 33  1  0  0  0  0
  8 34  1  0  0  0  0
  8 35  1  0  0  0  0
  9 36  1  0  0  0  0
  9 37  1  0  0  0  0
 10 38  1  0  0  0  0
 10 39  1  0  0  0  0
 11 40  1  0  0  0  0
 12 41  1  0  0  0  0
 13 42  1  0  0  0  0
 13 43  1  0  0  0  0
 16 44  1  0  0  0  0
 16 45  1  0  0  0  0
 17 46  1  0  0  0  0
 17 47  1  0  0  0  0
M  CHG  2  14  -1  17   1
M  END
> <FRED Chemgauss4 score>
-9.526728

$$$$
C82515853	P128952133
  -OEChem-05122015313D

 28 29  0     1  0  0  0  0  0999 V2000
  122.7442  109.4838  110.5822 C   0  0  0  0  0  0  0  0  0  0  0  0
  122.1062  111.1482  111.6684 C   0  0  0  0  0  0  0  0  0  0  0  0
  126.0365  107.5189  107.1634 C   0  0  0  0  0  0  0  0  0  0  0  0
  123.5164  108.6441  109.6305 C   0  0  0  0  0  0  0  0  0  0  0  0
  124.9605  106.7392  106.4383 C   0  0  0  0  0  0  0  0  0  0  0  0
  123.6510  106.7787  107.2218 C   0  0  0  0  0  0  0  0  0  0  0  0
  125.2748  106.2055  109.1094 C   0  0  0  0  0  0  0  0  0  0  0  0
  123.8115  106.3626  108.6946 C   0  0  1  0  0  0  0  0  0  0  0  0
  122.9982  110.8129  110.7654 N   0  0  0  0  0  0  0  0  0  0  0  0
  121.7511  108.9756  111.3150 N   0  0  0  0  0  0  0  0  0  0  0  0
  121.3602  110.0606  112.0007 N   0  0  0  0  0  0  0  0  0  0  0  0
  126.1055  107.2322  108.5142 N   0  0  0  0  0  0  0  0  0  0  0  0
  121.8515  112.3324  112.2626 N   0  0  0  0  0  0  0  0  0  0  0  0
  123.1402  107.3117  109.5558 N   0  0  0  0  0  0  0  0  0  0  0  0
  126.7863  108.3018  106.5860 O   0  0  0  0  0  0  0  0  0  0  0  0
  124.4349  109.1510  108.9919 O   0  0  0  0  0  0  0  0  0  0  0  0
  124.8287  107.1910  105.4687 H   0  0  0  0  0  0  0  0  0  0  0  0
  125.2848  105.7179  106.3308 H   0  0  0  0  0  0  0  0  0  0  0  0
  123.2187  107.7909  107.1586 H   0  0  0  0  0  0  0  0  0  0  0  0
  122.9226  106.1035  106.7415 H   0  0  0  0  0  0  0  0  0  0  0  0
  125.3940  106.2611  110.1869 H   0  0  0  0  0  0  0  0  0  0  0  0
  125.6601  105.2523  108.7566 H   0  0  0  0  0  0  0  0  0  0  0  0
  123.2828  105.4106  108.8647 H   0  0  0  0  0  0  0  0  0  0  0  0
  120.5962  109.9825  112.6613 H   0  0  0  0  0  0  0  0  0  0  0  0
  126.7323  107.7372  109.0804 H   0  0  0  0  0  0  0  0  0  0  0  0
  122.4201  113.1727  112.0783 H   0  0  0  0  0  0  0  0  0  0  0  0
  121.1375  112.4343  112.9996 H   0  0  0  0  0  0  0  0  0  0  0  0
  122.4104  106.9506  110.1623 H   0  0  0  0  0  0  0  0  0  0  0  0
  1  4  1  0  0  0  0
  1  9  1  0  0  0  0
  1 10  2  0  0  0  0
  2  9  2  0  0  0  0
  2 11  1  0  0  0  0
  2 13  1  0  0  0  0
  3  5  1  0  0  0  0
  3 12  1  0  0  0  0
  3 15  2  0  0  0  0
  4 14  1  0  0  0  0
  4 16  2  0  0  0  0
  5  6  1  0  0  0  0
  6  8  1  0  0  0  0
  7  8  1  0  0  0  0
  7 12  1  0  0  0  0
  8 14  1  0  0  0  0
 10 11  1  0  0  0  0
  5 17  1  0  0  0  0
  5 18  1  0  0  0  0
  6 19  1  0  0  0  0
  6 20  1  0  0  0  0
  7 21  1  0  0  0  0
  7 22  1  0  0  0  0
  8 23  1  0  0  0  0
 11 24  1  0  0  0  0
 12 25  1  0  0  0  0
 13 26  1  0  0  0  0
 13 27  1  0  0  0  0
 14 28  1  0  0  0  0
M  END
> <FRED Chemgauss4 score>
-9.525465

$$$$
C92207445	P144379857
  -OEChem-05122015313D

 33 33  0     1  0  0  0  0  0999 V2000
  122.6566  105.8705  105.2280 C   0  0  0  0  0  0  0  0  0  0  0  0
  121.4883  105.2451  105.0529 C   0  0  0  0  0  0  0  0  0  0  0  0
  123.2469  106.6797  107.4303 C   0  0  0  0  0  0  0  0  0  0  0  0
  124.4381  109.1946  108.5946 C   0  0  0  0  0  0  0  0  0  0  0  0
  126.4908  106.1958  107.6254 C   0  0  0  0  0  0  0  0  0  0  0  0
  122.4547  104.3268  107.0181 C   0  0  0  0  0  0  0  0  0  0  0  0
  123.3050  105.4963  106.5164 C   0  0  1  0  0  0  0  0  0  0  0  0
  121.1538  104.3566  106.2041 C   0  0  1  0  0  0  0  0  0  0  0  0
  124.3218  107.8841  109.3382 C   0  0  0  0  0  0  0  0  0  0  0  0
  125.3271  105.7938  108.5020 C   0  0  0  0  0  0  0  0  0  0  0  0
  123.8500  110.2379  109.2769 N   0  0  0  0  0  0  0  0  0  0  0  0
  127.3893  107.0054  108.2865 N   0  0  0  0  0  0  0  0  0  0  0  0
  120.0191  104.8656  106.9677 N   0  0  0  0  0  0  0  0  0  0  0  0
  124.2583  106.7826  108.3860 N   0  0  0  0  0  0  0  0  0  0  0  0
  122.3289  107.4943  107.3026 O   0  0  0  0  0  0  0  0  0  0  0  0
  125.0291  109.3264  107.5262 O   0  0  0  0  0  0  0  0  0  0  0  0
  126.6443  105.8089  106.4701 O   0  0  0  0  0  0  0  0  0  0  0  0
  123.0790  106.5696  104.5198 H   0  0  0  0  0  0  0  0  0  0  0  0
  120.8508  105.3828  104.1909 H   0  0  0  0  0  0  0  0  0  0  0  0
  122.9800  103.3843  106.8113 H   0  0  0  0  0  0  0  0  0  0  0  0
  122.2836  104.3531  108.1011 H   0  0  0  0  0  0  0  0  0  0  0  0
  124.3498  105.2040  106.3769 H   0  0  0  0  0  0  0  0  0  0  0  0
  120.9135  103.3504  105.8436 H   0  0  0  0  0  0  0  0  0  0  0  0
  123.4133  107.8592  109.9460 H   0  0  0  0  0  0  0  0  0  0  0  0
  125.2003  107.7453  109.9742 H   0  0  0  0  0  0  0  0  0  0  0  0
  125.6285  105.7424  109.5517 H   0  0  0  0  0  0  0  0  0  0  0  0
  124.9419  104.8238  108.1762 H   0  0  0  0  0  0  0  0  0  0  0  0
  123.4032  110.0873  110.1753 H   0  0  0  0  0  0  0  0  0  0  0  0
  123.8402  111.1867  108.9163 H   0  0  0  0  0  0  0  0  0  0  0  0
  127.2381  107.2708  109.2540 H   0  0  0  0  0  0  0  0  0  0  0  0
  128.2281  107.3638  107.8412 H   0  0  0  0  0  0  0  0  0  0  0  0
  119.9402  104.6000  107.9258 H   0  0  0  0  0  0  0  0  0  0  0  0
  119.2651  105.2841  106.4664 H   0  0  0  0  0  0  0  0  0  0  0  0
  1  2  2  0  0  0  0
  1  7  1  0  0  0  0
  2  8  1  0  0  0  0
  3  7  1  0  0  0  0
  3 14  1  0  0  0  0
  3 15  2  0  0  0  0
  4  9  1  0  0  0  0
  4 11  1  0  0  0  0
  4 16  2  0  0  0  0
  5 10  1  0  0  0  0
  5 12  1  0  0  0  0
  5 17  2  0  0  0  0
  6  7  1  0  0  0  0
  6  8  1  0  0  0  0
  8 13  1  0  0  0  0
  9 14  1  0  0  0  0
 10 14  1  0  0  0  0
  1 18  1  0  0  0  0
  2 19  1  0  0  0  0
  6 20  1  0  0  0  0
  6 21  1  0  0  0  0
  7 22  1  0  0  0  0
  8 23  1  0  0  0  0
  9 24  1  0  0  0  0
  9 25  1  0  0  0  0
 10 26  1  0  0  0  0
 10 27  1  0  0  0  0
 11 28  1  0  0  0  0
 11 29  1  0  0  0  0
 12 30  1  0  0  0  0
 12 31  1  0  0  0  0
 13 32  1  0  0  0  0
 13 33  1  0  0  0  0
M  END
> <FRED Chemgauss4 score>
-9.523805

$$$$
C41011592	P62245845
  -OEChem-05122015313D

 31 32  0     0  0  0  0  0  0999 V2000
  122.8313  104.5023  107.0877 C   0  0  0  0  0  0  0  0  0  0  0  0
  121.8710  104.8533  106.1389 C   0  0  0  0  0  0  0  0  0  0  0  0
  123.2874  106.6540  105.3716 C   0  0  0  0  0  0  0  0  0  0  0  0
  123.6588  110.3707  111.3223 C   0  0  0  0  0  0  0  0  0  0  0  0
  123.3339  109.0626  111.6148 C   0  0  0  0  0  0  0  0  0  0  0  0
  124.0197  105.2271  107.1785 C   0  0  0  0  0  0  0  0  0  0  0  0
  122.0991  105.9292  105.2809 C   0  0  0  0  0  0  0  0  0  0  0  0
  124.2477  106.3029  106.3205 C   0  0  0  0  0  0  0  0  0  0  0  0
  124.3712  109.4325  109.4724 C   0  0  0  0  0  0  0  0  0  0  0  0
  125.0274  104.8252  108.2053 C   0  0  0  0  0  0  0  0  0  0  0  0
  124.9725  109.2613  108.1074 C   0  0  0  0  0  0  0  0  0  0  0  0
  124.2541  110.5846  110.0944 N   0  0  0  0  0  0  0  0  0  0  0  0
  121.1283  106.2828  104.3208 N   0  0  0  0  0  0  0  0  0  0  0  0
  125.6192  107.9505  107.9516 N   0  0  0  0  0  0  0  0  0  0  0  0
  126.8562  106.3114  106.3961 O   0  0  0  0  0  0  0  0  0  0  0  0
  125.6499  108.2790  105.3974 O   0  0  0  0  0  0  0  0  0  0  0  0
  123.7858  108.0511  110.3056 S   0  0  0  0  0  0  0  0  0  0  0  0
  125.7284  107.2321  106.4056 S   0  0  0  0  0  0  0  0  0  0  0  0
  122.6432  103.6625  107.7515 H   0  0  0  0  0  0  0  0  0  0  0  0
  120.9487  104.2813  106.0775 H   0  0  0  0  0  0  0  0  0  0  0  0
  123.4638  107.4928  104.7020 H   0  0  0  0  0  0  0  0  0  0  0  0
  123.4809  111.2142  111.9758 H   0  0  0  0  0  0  0  0  0  0  0  0
  122.8660  108.6665  112.5049 H   0  0  0  0  0  0  0  0  0  0  0  0
  125.7226  104.0884  107.7868 H   0  0  0  0  0  0  0  0  0  0  0  0
  125.6036  105.6907  108.5548 H   0  0  0  0  0  0  0  0  0  0  0  0
  124.5422  104.3875  109.0864 H   0  0  0  0  0  0  0  0  0  0  0  0
  124.2035  109.3523  107.3325 H   0  0  0  0  0  0  0  0  0  0  0  0
  125.7255  110.0316  107.9103 H   0  0  0  0  0  0  0  0  0  0  0  0
  120.3025  105.7257  104.2339 H   0  0  0  0  0  0  0  0  0  0  0  0
  121.3236  107.0257  103.6806 H   0  0  0  0  0  0  0  0  0  0  0  0
  126.3223  107.7079  108.6602 H   0  0  0  0  0  0  0  0  0  0  0  0
  1  2  2  0  0  0  0
  1  6  1  0  0  0  0
  2  7  1  0  0  0  0
  3  7  2  0  0  0  0
  3  8  1  0  0  0  0
  4  5  2  0  0  0  0
  4 12  1  0  0  0  0
  5 17  1  0  0  0  0
  6  8  2  0  0  0  0
  6 10  1  0  0  0  0
  7 13  1  0  0  0  0
  8 18  1  0  0  0  0
  9 11  1  0  0  0  0
  9 12  2  0  0  0  0
  9 17  1  0  0  0  0
 11 14  1  0  0  0  0
 14 18  1  0  0  0  0
 15 18  2  0  0  0  0
 16 18  2  0  0  0  0
  1 19  1  0  0  0  0
  2 20  1  0  0  0  0
  3 21  1  0  0  0  0
  4 22  1  0  0  0  0
  5 23  1  0  0  0  0
 10 24  1  0  0  0  0
 10 25  1  0  0  0  0
 10 26  1  0  0  0  0
 11 27  1  0  0  0  0
 11 28  1  0  0  0  0
 13 29  1  0  0  0  0
 13 30  1  0  0  0  0
 14 31  1  0  0  0  0
M  END
> <FRED Chemgauss4 score>
-9.521938

$$$$
C94940105	P148828684
  -OEChem-05122015313D

 31 33  0     1  0  0  0  0  0999 V2000
  118.8049  108.6263  107.0915 C   0  0  0  0  0  0  0  0  0  0  0  0
  117.6825  107.8065  106.9205 C   0  0  0  0  0  0  0  0  0  0  0  0
  120.0918  108.0949  106.9873 C   0  0  0  0  0  0  0  0  0  0  0  0
  117.8344  106.4476  106.6408 C   0  0  0  0  0  0  0  0  0  0  0  0
  125.5431  104.6062  107.6199 C   0  0  0  0  0  0  0  0  0  0  0  0
  124.1938  104.3638  107.5147 C   0  0  0  0  0  0  0  0  0  0  0  0
  120.2441  106.7409  106.7051 C   0  0  0  0  0  0  0  0  0  0  0  0
  119.1175  105.9298  106.5326 C   0  0  0  0  0  0  0  0  0  0  0  0
  124.5915  106.4031  108.2491 C   0  0  0  0  0  0  0  0  0  0  0  0
  124.4103  107.7368  108.7242 C   0  0  0  0  0  0  0  0  0  0  0  0
  121.2832  104.7059  105.8491 C   0  0  0  0  0  0  0  0  0  0  0  0
  121.5646  106.0185  106.6053 C   0  0  2  0  0  0  0  0  0  0  0  0
  122.1646  105.7635  107.9884 C   0  0  0  0  0  0  0  0  0  0  0  0
  125.7841  105.8773  108.0779 N   0  0  0  0  0  0  0  0  0  0  0  0
  123.5971  105.5238  107.9216 N   0  0  0  0  0  0  0  0  0  0  0  0
  123.7058  107.9234  109.9066 N   0  0  0  0  0  0  0  0  0  0  0  0
  125.0430  109.0778  107.9144 S   0  0  0  0  0  0  0  0  0  0  0  0
  119.5521  104.2515  106.1788 S   0  0  0  0  0  0  0  0  0  0  0  0
  118.6724  109.6820  107.3111 H   0  0  0  0  0  0  0  0  0  0  0  0
  116.6867  108.2324  107.0074 H   0  0  0  0  0  0  0  0  0  0  0  0
  120.9574  108.7341  107.1308 H   0  0  0  0  0  0  0  0  0  0  0  0
  116.9592  105.8193  106.5085 H   0  0  0  0  0  0  0  0  0  0  0  0
  126.3532  103.9300  107.3885 H   0  0  0  0  0  0  0  0  0  0  0  0
  123.6288  103.4984  107.1967 H   0  0  0  0  0  0  0  0  0  0  0  0
  121.3758  104.8730  104.7697 H   0  0  0  0  0  0  0  0  0  0  0  0
  121.9662  103.8973  106.1259 H   0  0  0  0  0  0  0  0  0  0  0  0
  122.2732  106.6172  106.0198 H   0  0  0  0  0  0  0  0  0  0  0  0
  121.6907  104.8941  108.4498 H   0  0  0  0  0  0  0  0  0  0  0  0
  121.9890  106.6233  108.6391 H   0  0  0  0  0  0  0  0  0  0  0  0
  123.3202  107.1409  110.4256 H   0  0  0  0  0  0  0  0  0  0  0  0
  123.5395  108.8472  110.2922 H   0  0  0  0  0  0  0  0  0  0  0  0
  1  2  1  0  0  0  0
  1  3  2  0  0  0  0
  2  4  2  0  0  0  0
  3  7  1  0  0  0  0
  4  8  1  0  0  0  0
  5  6  2  0  0  0  0
  5 14  1  0  0  0  0
  6 15  1  0  0  0  0
  7  8  2  0  0  0  0
  7 12  1  0  0  0  0
  8 18  1  0  0  0  0
  9 10  1  0  0  0  0
  9 14  2  0  0  0  0
  9 15  1  0  0  0  0
 10 16  1  0  0  0  0
 10 17  2  0  0  0  0
 11 12  1  0  0  0  0
 11 18  1  0  0  0  0
 12 13  1  0  0  0  0
 13 15  1  0  0  0  0
  1 19  1  0  0  0  0
  2 20  1  0  0  0  0
  3 21  1  0  0  0  0
  4 22  1  0  0  0  0
  5 23  1  0  0  0  0
  6 24  1  0  0  0  0
 11 25  1  0  0  0  0
 11 26  1  0  0  0  0
 12 27  1  0  0  0  0
 13 28  1  0  0  0  0
 13 29  1  0  0  0  0
 16 30  1  0  0  0  0
 16 31  1  0  0  0  0
M  END
> <FRED Chemgauss4 score>
-9.510508

$$$$
C84405170	P132073028
  -OEChem-05122015313D

 28 28  0     1  0  0  0  0  0999 V2000
  126.6269  107.7510  106.8804 C   0  0  0  0  0  0  0  0  0  0  0  0
  124.8927  108.9020  108.2808 C   0  0  0  0  0  0  0  0  0  0  0  0
  121.1591  105.9971  107.5570 C   0  0  0  0  0  0  0  0  0  0  0  0
  119.5417  104.3469  106.6489 C   0  0  0  0  0  0  0  0  0  0  0  0
  126.0350  106.4130  107.2502 C   0  0  0  0  0  0  0  0  0  0  0  0
  125.3704  106.4598  108.6155 C   0  0  0  0  0  0  0  0  0  0  0  0
  124.3176  107.5602  108.6855 C   0  0  2  0  0  0  0  0  0  0  0  0
  122.5682  106.0205  108.1137 C   0  0  0  0  0  0  0  0  0  0  0  0
  125.9907  108.8617  107.4255 N   0  0  0  0  0  0  0  0  0  0  0  0
  118.7255  105.4506  106.4709 N   0  0  0  0  0  0  0  0  0  0  0  0
  120.7732  104.6996  107.2099 N   0  0  0  0  0  0  0  0  0  0  0  0
  123.1829  107.3026  107.8038 N   0  0  0  0  0  0  0  0  0  0  0  0
  127.5765  107.8394  106.1023 O   0  0  0  0  0  0  0  0  0  0  0  0
  124.3816  109.9593  108.6527 O   0  0  0  0  0  0  0  0  0  0  0  0
  120.4663  107.0013  107.4149 O   0  0  0  0  0  0  0  0  0  0  0  0
  119.2001  103.2061  106.3428 O   0  0  0  0  0  0  0  0  0  0  0  0
  125.2947  106.1383  106.4906 H   0  0  0  0  0  0  0  0  0  0  0  0
  126.8377  105.6671  107.2310 H   0  0  0  0  0  0  0  0  0  0  0  0
  124.9110  105.4754  108.8301 H   0  0  0  0  0  0  0  0  0  0  0  0
  126.1415  106.6145  109.3926 H   0  0  0  0  0  0  0  0  0  0  0  0
  123.9480  107.6704  109.7240 H   0  0  0  0  0  0  0  0  0  0  0  0
  122.5371  105.8829  109.1992 H   0  0  0  0  0  0  0  0  0  0  0  0
  123.1419  105.2023  107.6674 H   0  0  0  0  0  0  0  0  0  0  0  0
  126.3805  109.7650  107.1645 H   0  0  0  0  0  0  0  0  0  0  0  0
  119.0663  106.3661  106.7446 H   0  0  0  0  0  0  0  0  0  0  0  0
  117.7957  105.3683  106.0740 H   0  0  0  0  0  0  0  0  0  0  0  0
  121.4412  103.9521  107.3787 H   0  0  0  0  0  0  0  0  0  0  0  0
  122.4956  108.0446  107.9224 H   0  0  0  0  0  0  0  0  0  0  0  0
  1  5  1  0  0  0  0
  1  9  1  0  0  0  0
  1 13  2  0  0  0  0
  2  7  1  0  0  0  0
  2  9  1  0  0  0  0
  2 14  2  0  0  0  0
  3  8  1  0  0  0  0
  3 11  1  0  0  0  0
  3 15  2  0  0  0  0
  4 10  1  0  0  0  0
  4 11  1  0  0  0  0
  4 16  2  0  0  0  0
  5  6  1  0  0  0  0
  6  7  1  0  0  0  0
  7 12  1  0  0  0  0
  8 12  1  0  0  0  0
  5 17  1  0  0  0  0
  5 18  1  0  0  0  0
  6 19  1  0  0  0  0
  6 20  1  0  0  0  0
  7 21  1  0  0  0  0
  8 22  1  0  0  0  0
  8 23  1  0  0  0  0
  9 24  1  0  0  0  0
 10 25  1  0  0  0  0
 10 26  1  0  0  0  0
 11 27  1  0  0  0  0
 12 28  1  0  0  0  0
M  END
> <FRED Chemgauss4 score>
-9.503374

$$$$
C54526614	P82058992
  -OEChem-05122015313D

 33 34  0     1  0  0  0  0  0999 V2000
  125.8179  107.5842  107.1714 C   0  0  0  0  0  0  0  0  0  0  0  0
  124.5645  108.6122  108.6140 C   0  0  0  0  0  0  0  0  0  0  0  0
  124.2166  103.6577  106.9112 C   0  0  0  0  0  0  0  0  0  0  0  0
  125.5848  104.1521  107.3622 C   0  0  0  0  0  0  0  0  0  0  0  0
  123.2279  104.8040  106.7428 C   0  0  0  0  0  0  0  0  0  0  0  0
  125.5031  104.9697  108.6486 C   0  0  0  0  0  0  0  0  0  0  0  0
  123.0930  105.6350  108.0160 C   0  0  0  0  0  0  0  0  0  0  0  0
  124.4267  106.0702  108.6494 C   0  0  0  0  0  0  0  0  0  0  0  0
  122.1350  108.9952  109.2220 C   0  0  0  0  0  0  0  0  0  0  0  0
  123.5961  108.8338  109.7027 C   0  0  2  0  0  0  0  0  0  0  0  0
  126.0134  108.8741  107.0157 N   0  0  0  0  0  0  0  0  0  0  0  0
  125.2159  109.5282  107.9335 N   0  0  0  0  0  0  0  0  0  0  0  0
  124.9131  107.3738  108.1673 N   0  0  0  0  0  0  0  0  0  0  0  0
  123.9304  109.9961  110.5240 N   0  0  0  0  0  0  0  0  0  0  0  0
  121.2279  108.7747  110.2973 O   0  0  0  0  0  0  0  0  0  0  0  0
  126.2883  106.7888  106.6110 H   0  0  0  0  0  0  0  0  0  0  0  0
  124.3175  103.1187  105.9601 H   0  0  0  0  0  0  0  0  0  0  0  0
  123.8258  102.9398  107.6428 H   0  0  0  0  0  0  0  0  0  0  0  0
  126.2515  103.2925  107.5194 H   0  0  0  0  0  0  0  0  0  0  0  0
  126.0382  104.7605  106.5686 H   0  0  0  0  0  0  0  0  0  0  0  0
  123.5481  105.4499  105.9149 H   0  0  0  0  0  0  0  0  0  0  0  0
  122.2437  104.4012  106.4655 H   0  0  0  0  0  0  0  0  0  0  0  0
  125.3355  104.2832  109.5084 H   0  0  0  0  0  0  0  0  0  0  0  0
  126.4994  105.4257  108.8511 H   0  0  0  0  0  0  0  0  0  0  0  0
  122.4759  106.5360  107.7959 H   0  0  0  0  0  0  0  0  0  0  0  0
  122.4934  105.0670  108.7619 H   0  0  0  0  0  0  0  0  0  0  0  0
  124.1989  106.3016  109.7605 H   0  0  0  0  0  0  0  0  0  0  0  0
  121.9719  110.0144  108.8547 H   0  0  0  0  0  0  0  0  0  0  0  0
  121.8943  108.2900  108.4191 H   0  0  0  0  0  0  0  0  0  0  0  0
  123.6034  107.9923  110.4283 H   0  0  0  0  0  0  0  0  0  0  0  0
  124.8924  110.1766  110.7092 H   0  0  0  0  0  0  0  0  0  0  0  0
  123.1946  110.4382  111.0298 H   0  0  0  0  0  0  0  0  0  0  0  0
  120.3352  108.8893  109.9351 H   0  0  0  0  0  0  0  0  0  0  0  0
  1 11  2  0  0  0  0
  1 13  1  0  0  0  0
  2 10  1  0  0  0  0
  2 12  2  0  0  0  0
  2 13  1  0  0  0  0
  3  4  1  0  0  0  0
  3  5  1  0  0  0  0
  4  6  1  0  0  0  0
  5  7  1  0  0  0  0
  6  8  1  0  0  0  0
  7  8  1  0  0  0  0
  8 13  1  0  0  0  0
  9 10  1  0  0  0  0
  9 15  1  0  0  0  0
 10 14  1  0  0  0  0
 11 12  1  0  0  0  0
  1 16  1  0  0  0  0
  3 17  1  0  0  0  0
  3 18  1  0  0  0  0
  4 19  1  0  0  0  0
  4 20  1  0  0  0  0
  5 21  1  0  0  0  0
  5 22  1  0  0  0  0
  6 23  1  0  0  0  0
  6 24  1  0  0  0  0
  7 25  1  0  0  0  0
  7 26  1  0  0  0  0
  8 27  1  0  0  0  0
  9 28  1  0  0  0  0
  9 29  1  0  0  0  0
 10 30  1  0  0  0  0
 14 31  1  0  0  0  0
 14 32  1  0  0  0  0
 15 33  1  0  0  0  0
M  END
> <FRED Chemgauss4 score>
-9.502403

$$$$
C93895763	P147157618
  -OEChem-05122015313D

 48 49  0     1  0  0  0  0  0999 V2000
  123.1400  107.8209  110.8971 C   0  0  0  0  0  0  0  0  0  0  0  0
  123.7308  110.0722  111.3862 C   0  0  0  0  0  0  0  0  0  0  0  0
  123.3956  108.0775  109.5547 C   0  0  0  0  0  0  0  0  0  0  0  0
  123.3083  108.8319  111.8367 C   0  0  0  0  0  0  0  0  0  0  0  0
  123.8140  109.3516  109.2063 C   0  0  0  0  0  0  0  0  0  0  0  0
  125.9145  105.3484  106.6231 C   0  0  0  0  0  0  0  0  0  0  0  0
  124.4345  104.9564  106.5466 C   0  0  0  0  0  0  0  0  0  0  0  0
  125.5923  106.1487  108.8737 C   0  0  0  0  0  0  0  0  0  0  0  0
  124.1004  105.7588  108.8289 C   0  0  1  0  0  0  0  0  0  0  0  0
  119.5935  105.3102  106.9856 C   0  0  0  0  0  0  0  0  0  0  0  0
  127.5214  106.8516  107.6078 C   0  0  0  0  0  0  0  0  0  0  0  0
  124.1961  103.3721  108.3652 C   0  0  0  0  0  0  0  0  0  0  0  0
  119.5452  106.7333  107.5178 C   0  0  0  0  0  0  0  0  0  0  0  0
  120.9357  107.3453  107.5784 C   0  0  0  0  0  0  0  0  0  0  0  0
  123.2122  106.9784  108.5384 C   0  0  1  0  0  0  0  0  0  0  0  0
  123.9889  110.3591  110.0906 N   0  0  0  0  0  0  0  0  0  0  0  0
  126.1104  106.4769  107.5398 N   0  0  1  0  0  0  0  0  0  0  0  0
  123.8146  104.6889  107.8526 N   0  0  2  0  0  0  0  0  0  0  0  0
  124.0764  109.6176  107.8390 N   0  0  0  0  0  0  0  0  0  0  0  0
  121.8007  106.5022  108.4415 N   0  3  0  0  0  0  0  0  0  0  0  0
  123.0030  108.5533  113.5011 Cl  0  0  0  0  0  0  0  0  0  0  0  0
  122.8089  106.8325  111.2073 H   0  0  0  0  0  0  0  0  0  0  0  0
  123.8801  110.9025  112.0699 H   0  0  0  0  0  0  0  0  0  0  0  0
  126.4825  104.4781  106.9782 H   0  0  0  0  0  0  0  0  0  0  0  0
  126.2870  105.5883  105.6161 H   0  0  0  0  0  0  0  0  0  0  0  0
  123.8948  105.7836  106.0443 H   0  0  0  0  0  0  0  0  0  0  0  0
  124.3234  104.0771  105.8778 H   0  0  0  0  0  0  0  0  0  0  0  0
  125.7397  106.9942  109.5632 H   0  0  0  0  0  0  0  0  0  0  0  0
  126.1637  105.3021  109.2800 H   0  0  0  0  0  0  0  0  0  0  0  0
  123.8040  105.3871  109.8440 H   0  0  0  0  0  0  0  0  0  0  0  0
  120.0436  105.2934  105.9881 H   0  0  0  0  0  0  0  0  0  0  0  0
  120.1917  104.6673  107.6391 H   0  0  0  0  0  0  0  0  0  0  0  0
  118.5876  104.8848  106.9117 H   0  0  0  0  0  0  0  0  0  0  0  0
  127.6542  107.6926  108.2934 H   0  0  0  0  0  0  0  0  0  0  0  0
  127.8829  107.1438  106.6182 H   0  0  0  0  0  0  0  0  0  0  0  0
  128.1195  106.0088  107.9647 H   0  0  0  0  0  0  0  0  0  0  0  0
  123.7243  103.1954  109.3352 H   0  0  0  0  0  0  0  0  0  0  0  0
  125.2812  103.3133  108.4856 H   0  0  0  0  0  0  0  0  0  0  0  0
  123.8776  102.5896  107.6712 H   0  0  0  0  0  0  0  0  0  0  0  0
  119.0918  106.7284  108.5162 H   0  0  0  0  0  0  0  0  0  0  0  0
  118.8957  107.3365  106.8723 H   0  0  0  0  0  0  0  0  0  0  0  0
  121.4104  107.3832  106.5936 H   0  0  0  0  0  0  0  0  0  0  0  0
  120.9247  108.3457  108.0208 H   0  0  0  0  0  0  0  0  0  0  0  0
  123.4543  107.3461  107.5371 H   0  0  0  0  0  0  0  0  0  0  0  0
  123.9987  108.8734  107.1808 H   0  0  0  0  0  0  0  0  0  0  0  0
  124.4230  110.5160  107.5821 H   0  0  0  0  0  0  0  0  0  0  0  0
  121.4006  106.4580  109.3867 H   0  0  0  0  0  0  0  0  0  0  0  0
  121.8000  105.5378  108.0872 H   0  0  0  0  0  0  0  0  0  0  0  0
  1  3  1  0  0  0  0
  1  4  2  0  0  0  0
  2  4  1  0  0  0  0
  2 16  2  0  0  0  0
  3  5  2  0  0  0  0
  3 15  1  0  0  0  0
  4 21  1  0  0  0  0
  5 16  1  0  0  0  0
  5 19  1  0  0  0  0
  6  7  1  0  0  0  0
  6 17  1  0  0  0  0
  7 18  1  0  0  0  0
  8  9  1  0  0  0  0
  8 17  1  0  0  0  0
  9 15  1  0  0  0  0
  9 18  1  0  0  0  0
 10 13  1  0  0  0  0
 11 17  1  0  0  0  0
 12 18  1  0  0  0  0
 13 14  1  0  0  0  0
 14 20  1  0  0  0  0
 15 20  1  0  0  0  0
  1 22  1  0  0  0  0
  2 23  1  0  0  0  0
  6 24  1  0  0  0  0
  6 25  1  0  0  0  0
  7 26  1  0  0  0  0
  7 27  1  0  0  0  0
  8 28  1  0  0  0  0
  8 29  1  0  0  0  0
  9 30  1  0  0  0  0
 10 31  1  0  0  0  0
 10 32  1  0  0  0  0
 10 33  1  0  0  0  0
 11 34  1  0  0  0  0
 11 35  1  0  0  0  0
 11 36  1  0  0  0  0
 12 37  1  0  0  0  0
 12 38  1  0  0  0  0
 12 39  1  0  0  0  0
 13 40  1  0  0  0  0
 13 41  1  0  0  0  0
 14 42  1  0  0  0  0
 14 43  1  0  0  0  0
 15 44  1  0  0  0  0
 19 45  1  0  0  0  0
 19 46  1  0  0  0  0
 20 47  1  0  0  0  0
 20 48  1  0  0  0  0
M  CHG  1  20   1
M  END
> <FRED Chemgauss4 score>
-9.501503

$$$$
C89190689	P139492315
  -OEChem-05122015313D

 36 37  0     1  0  0  0  0  0999 V2000
  125.3901  108.4370  107.9796 C   0  0  0  0  0  0  0  0  0  0  0  0
  126.5215  107.6340  107.8357 C   0  0  0  0  0  0  0  0  0  0  0  0
  124.1227  107.8557  108.0197 C   0  0  0  0  0  0  0  0  0  0  0  0
  126.3856  106.2497  107.7318 C   0  0  0  0  0  0  0  0  0  0  0  0
  119.9169  103.8995  106.6678 C   0  0  0  0  0  0  0  0  0  0  0  0
  123.9868  106.4714  107.9157 C   0  0  0  0  0  0  0  0  0  0  0  0
  125.1182  105.6683  107.7718 C   0  0  0  0  0  0  0  0  0  0  0  0
  118.6977  104.2839  106.0783 C   0  0  0  0  0  0  0  0  0  0  0  0
  120.7932  104.9014  106.3288 C   0  0  0  0  0  0  0  0  0  0  0  0
  117.4130  103.5656  106.1242 C   0  0  0  0  0  0  0  0  0  0  0  0
  121.5117  106.9843  108.1248 C   0  0  0  0  0  0  0  0  0  0  0  0
  120.5541  107.0185  104.9965 C   0  0  0  0  0  0  0  0  0  0  0  0
  122.2610  105.0898  106.6497 C   0  0  0  0  0  0  0  0  0  0  0  0
  122.5720  105.8712  107.9622 C   0  0  1  0  0  0  0  0  0  0  0  0
  118.7874  105.4399  105.4153 N   0  0  0  0  0  0  0  0  0  0  0  0
  120.0734  105.7906  105.5862 N   0  0  0  0  0  0  0  0  0  0  0  0
  122.3915  104.9838  109.1089 N   0  0  0  0  0  0  0  0  0  0  0  0
  124.9894  103.9521  107.6403 Cl  0  0  0  0  0  0  0  0  0  0  0  0
  125.4962  109.5149  108.0614 H   0  0  0  0  0  0  0  0  0  0  0  0
  127.5082  108.0869  107.8058 H   0  0  0  0  0  0  0  0  0  0  0  0
  123.2477  108.4905  108.1325 H   0  0  0  0  0  0  0  0  0  0  0  0
  127.2773  105.6379  107.6213 H   0  0  0  0  0  0  0  0  0  0  0  0
  120.1316  103.0187  107.2557 H   0  0  0  0  0  0  0  0  0  0  0  0
  116.8096  103.8790  106.9935 H   0  0  0  0  0  0  0  0  0  0  0  0
  116.8053  103.7391  105.2181 H   0  0  0  0  0  0  0  0  0  0  0  0
  117.5490  102.4713  106.1913 H   0  0  0  0  0  0  0  0  0  0  0  0
  120.4902  106.5919  108.1617 H   0  0  0  0  0  0  0  0  0  0  0  0
  121.6822  107.5626  109.0413 H   0  0  0  0  0  0  0  0  0  0  0  0
  121.5525  107.6898  107.2855 H   0  0  0  0  0  0  0  0  0  0  0  0
  120.9222  106.7892  103.9930 H   0  0  0  0  0  0  0  0  0  0  0  0
  119.7367  107.7433  104.9475 H   0  0  0  0  0  0  0  0  0  0  0  0
  121.3578  107.4264  105.6158 H   0  0  0  0  0  0  0  0  0  0  0  0
  122.7255  104.0942  106.6936 H   0  0  0  0  0  0  0  0  0  0  0  0
  122.7390  105.5882  105.7946 H   0  0  0  0  0  0  0  0  0  0  0  0
  122.1592  105.3944  109.9867 H   0  0  0  0  0  0  0  0  0  0  0  0
  122.7019  104.0405  109.0243 H   0  0  0  0  0  0  0  0  0  0  0  0
  1  2  1  0  0  0  0
  1  3  2  0  0  0  0
  2  4  2  0  0  0  0
  3  6  1  0  0  0  0
  4  7  1  0  0  0  0
  5  8  1  0  0  0  0
  5  9  2  0  0  0  0
  6  7  2  0  0  0  0
  6 14  1  0  0  0  0
  7 18  1  0  0  0  0
  8 10  1  0  0  0  0
  8 15  2  0  0  0  0
  9 13  1  0  0  0  0
  9 16  1  0  0  0  0
 11 14  1  0  0  0  0
 12 16  1  0  0  0  0
 13 14  1  0  0  0  0
 14 17  1  0  0  0  0
 15 16  1  0  0  0  0
  1 19  1  0  0  0  0
  2 20  1  0  0  0  0
  3 21  1  0  0  0  0
  4 22  1  0  0  0  0
  5 23  1  0  0  0  0
 10 24  1  0  0  0  0
 10 25  1  0  0  0  0
 10 26  1  0  0  0  0
 11 27  1  0  0  0  0
 11 28  1  0  0  0  0
 11 29  1  0  0  0  0
 12 30  1  0  0  0  0
 12 31  1  0  0  0  0
 12 32  1  0  0  0  0
 13 33  1  0  0  0  0
 13 34  1  0  0  0  0
 17 35  1  0  0  0  0
 17 36  1  0  0  0  0
M  END
> <FRED Chemgauss4 score>
-9.490110

$$$$
C12876633	P18914539
  -OEChem-05122015313D

 34 36  0     1  0  0  0  0  0999 V2000
  122.1636  105.1092  106.6832 C   0  0  0  0  0  0  0  0  0  0  0  0
  123.4976  104.8020  106.9320 C   0  0  0  0  0  0  0  0  0  0  0  0
  123.6274  106.6820  108.4439 C   0  0  0  0  0  0  0  0  0  0  0  0
  120.4362  108.3135  108.5464 C   0  0  0  0  0  0  0  0  0  0  0  0
  121.5649  106.2095  107.3211 C   0  0  0  0  0  0  0  0  0  0  0  0
  122.2942  107.0124  108.2133 C   0  0  0  0  0  0  0  0  0  0  0  0
  124.2300  105.5894  107.8135 C   0  0  0  0  0  0  0  0  0  0  0  0
  120.2363  106.5708  107.1161 C   0  0  0  0  0  0  0  0  0  0  0  0
  118.9330  103.6052  105.2895 C   0  0  0  0  0  0  0  0  0  0  0  0
  117.7473  104.2115  104.5474 C   0  0  0  0  0  0  0  0  0  0  0  0
  119.2607  104.3934  106.5545 C   0  0  0  0  0  0  0  0  0  0  0  0
  118.3571  106.4701  105.5047 C   0  0  0  0  0  0  0  0  0  0  0  0
  118.0182  105.6852  104.2278 C   0  0  2  0  0  0  0  0  0  0  0  0
  116.8235  106.3108  103.5107 C   0  0  0  0  0  0  0  0  0  0  0  0
  121.7316  108.0672  108.8287 N   0  0  0  0  0  0  0  0  0  0  0  0
  119.6418  107.6197  107.7155 N   0  0  0  0  0  0  0  0  0  0  0  0
  119.4470  105.8162  106.2396 N   0  0  0  0  0  0  0  0  0  0  0  0
  116.5612  105.6370  102.3806 F   0  0  0  0  0  0  0  0  0  0  0  0
  115.7405  106.2715  104.3015 F   0  0  0  0  0  0  0  0  0  0  0  0
  117.0903  107.5890  103.2023 F   0  0  0  0  0  0  0  0  0  0  0  0
  125.8810  105.2186  108.1289 Cl  0  0  0  0  0  0  0  0  0  0  0  0
  121.6119  104.4789  105.9905 H   0  0  0  0  0  0  0  0  0  0  0  0
  123.9508  103.9494  106.4336 H   0  0  0  0  0  0  0  0  0  0  0  0
  124.2107  107.2921  109.1326 H   0  0  0  0  0  0  0  0  0  0  0  0
  119.9888  109.1643  109.0457 H   0  0  0  0  0  0  0  0  0  0  0  0
  118.7160  102.5631  105.5491 H   0  0  0  0  0  0  0  0  0  0  0  0
  119.8078  103.5963  104.6272 H   0  0  0  0  0  0  0  0  0  0  0  0
  117.5702  103.6506  103.6222 H   0  0  0  0  0  0  0  0  0  0  0  0
  116.8421  104.1160  105.1602 H   0  0  0  0  0  0  0  0  0  0  0  0
  118.4521  104.2770  107.2877 H   0  0  0  0  0  0  0  0  0  0  0  0
  120.1744  103.9800  106.9997 H   0  0  0  0  0  0  0  0  0  0  0  0
  118.6521  107.4906  105.2274 H   0  0  0  0  0  0  0  0  0  0  0  0
  117.4720  106.5472  106.1504 H   0  0  0  0  0  0  0  0  0  0  0  0
  118.8833  105.7351  103.5526 H   0  0  0  0  0  0  0  0  0  0  0  0
  1  2  1  0  0  0  0
  1  5  2  0  0  0  0
  2  7  2  0  0  0  0
  3  6  2  0  0  0  0
  3  7  1  0  0  0  0
  4 15  2  0  0  0  0
  4 16  1  0  0  0  0
  5  6  1  0  0  0  0
  5  8  1  0  0  0  0
  6 15  1  0  0  0  0
  7 21  1  0  0  0  0
  8 16  2  0  0  0  0
  8 17  1  0  0  0  0
  9 10  1  0  0  0  0
  9 11  1  0  0  0  0
 10 13  1  0  0  0  0
 11 17  1  0  0  0  0
 12 13  1  0  0  0  0
 12 17  1  0  0  0  0
 13 14  1  0  0  0  0
 14 18  1  0  0  0  0
 14 19  1  0  0  0  0
 14 20  1  0  0  0  0
  1 22  1  0  0  0  0
  2 23  1  0  0  0  0
  3 24  1  0  0  0  0
  4 25  1  0  0  0  0
  9 26  1  0  0  0  0
  9 27  1  0  0  0  0
 10 28  1  0  0  0  0
 10 29  1  0  0  0  0
 11 30  1  0  0  0  0
 11 31  1  0  0  0  0
 12 32  1  0  0  0  0
 12 33  1  0  0  0  0
 13 34  1  0  0  0  0
M  END
> <FRED Chemgauss4 score>
-9.487758

$$$$
C97643416	P154810398
  -OEChem-05122015313D

 42 43  0     1  0  0  0  0  0999 V2000
  122.6511  105.7434  107.8600 C   0  0  0  0  0  0  0  0  0  0  0  0
  123.6907  107.4421  106.5600 C   0  0  0  0  0  0  0  0  0  0  0  0
  121.8445  106.3694  105.7121 C   0  0  0  0  0  0  0  0  0  0  0  0
  123.6564  106.6945  107.7261 C   0  0  0  0  0  0  0  0  0  0  0  0
  121.7238  105.5714  106.8383 C   0  0  0  0  0  0  0  0  0  0  0  0
  124.0360  110.1693  111.9335 C   0  0  0  0  0  0  0  0  0  0  0  0
  123.5891  109.0521  112.8672 C   0  0  0  0  0  0  0  0  0  0  0  0
  123.2705  110.0981  110.6168 C   0  0  0  0  0  0  0  0  0  0  0  0
  123.6556  107.7027  112.1674 C   0  0  0  0  0  0  0  0  0  0  0  0
  123.3010  108.6954  110.0037 C   0  0  1  0  0  0  0  0  0  0  0  0
  118.8117  103.4594  106.1468 C   0  0  0  0  0  0  0  0  0  0  0  0
  124.6443  108.3446  109.3674 C   0  0  0  0  0  0  0  0  0  0  0  0
  119.8243  104.5430  105.8434 C   0  0  0  0  0  0  0  0  0  0  0  0
  124.6821  106.9066  108.8211 C   0  0  2  0  0  0  0  0  0  0  0  0
  122.8074  107.3036  105.5459 N   0  0  0  0  0  0  0  0  0  0  0  0
  126.8492  106.3408  109.4916 N   0  0  0  0  0  0  0  0  0  0  0  0
  126.0058  106.5570  108.3559 N   0  0  0  0  0  0  0  0  0  0  0  0
  122.8995  107.7069  110.9579 O   0  0  0  0  0  0  0  0  0  0  0  0
  120.7327  104.6518  106.9413 O   0  0  0  0  0  0  0  0  0  0  0  0
  122.5880  105.1352  108.7587 H   0  0  0  0  0  0  0  0  0  0  0  0
  124.4521  108.1993  106.3994 H   0  0  0  0  0  0  0  0  0  0  0  0
  121.1481  106.2790  104.8842 H   0  0  0  0  0  0  0  0  0  0  0  0
  123.8524  111.1393  112.4102 H   0  0  0  0  0  0  0  0  0  0  0  0
  125.1127  110.0983  111.7482 H   0  0  0  0  0  0  0  0  0  0  0  0
  124.2558  109.0372  113.7392 H   0  0  0  0  0  0  0  0  0  0  0  0
  122.5735  109.2433  113.2318 H   0  0  0  0  0  0  0  0  0  0  0  0
  122.2294  110.4281  110.7706 H   0  0  0  0  0  0  0  0  0  0  0  0
  123.7268  110.8169  109.9135 H   0  0  0  0  0  0  0  0  0  0  0  0
  124.6957  107.4682  111.9090 H   0  0  0  0  0  0  0  0  0  0  0  0
  123.2935  106.8963  112.8204 H   0  0  0  0  0  0  0  0  0  0  0  0
  122.5258  108.6673  109.1668 H   0  0  0  0  0  0  0  0  0  0  0  0
  119.3045  102.4935  106.2889 H   0  0  0  0  0  0  0  0  0  0  0  0
  118.2444  103.7033  107.0510 H   0  0  0  0  0  0  0  0  0  0  0  0
  118.0868  103.3693  105.3309 H   0  0  0  0  0  0  0  0  0  0  0  0
  124.8546  109.0681  108.5691 H   0  0  0  0  0  0  0  0  0  0  0  0
  125.4295  108.4720  110.1242 H   0  0  0  0  0  0  0  0  0  0  0  0
  119.3249  105.5062  105.7023 H   0  0  0  0  0  0  0  0  0  0  0  0
  120.3907  104.2973  104.9402 H   0  0  0  0  0  0  0  0  0  0  0  0
  124.4710  106.2158  109.6469 H   0  0  0  0  0  0  0  0  0  0  0  0
  126.2997  106.4431  110.3444 H   0  0  0  0  0  0  0  0  0  0  0  0
  127.1775  105.3759  109.4861 H   0  0  0  0  0  0  0  0  0  0  0  0
  126.3954  107.3212  107.7987 H   0  0  0  0  0  0  0  0  0  0  0  0
  1  4  2  0  0  0  0
  1  5  1  0  0  0  0
  2  4  1  0  0  0  0
  2 15  2  0  0  0  0
  3  5  2  0  0  0  0
  3 15  1  0  0  0  0
  4 14  1  0  0  0  0
  5 19  1  0  0  0  0
  6  7  1  0  0  0  0
  6  8  1  0  0  0  0
  7  9  1  0  0  0  0
  8 10  1  0  0  0  0
  9 18  1  0  0  0  0
 10 12  1  0  0  0  0
 10 18  1  0  0  0  0
 11 13  1  0  0  0  0
 12 14  1  0  0  0  0
 13 19  1  0  0  0  0
 14 17  1  0  0  0  0
 16 17  1  0  0  0  0
  1 20  1  0  0  0  0
  2 21  1  0  0  0  0
  3 22  1  0  0  0  0
  6 23  1  0  0  0  0
  6 24  1  0  0  0  0
  7 25  1  0  0  0  0
  7 26  1  0  0  0  0
  8 27  1  0  0  0  0
  8 28  1  0  0  0  0
  9 29  1  0  0  0  0
  9 30  1  0  0  0  0
 10 31  1  0  0  0  0
 11 32  1  0  0  0  0
 11 33  1  0  0  0  0
 11 34  1  0  0  0  0
 12 35  1  0  0  0  0
 12 36  1  0  0  0  0
 13 37  1  0  0  0  0
 13 38  1  0  0  0  0
 14 39  1  0  0  0  0
 16 40  1  0  0  0  0
 16 41  1  0  0  0  0
 17 42  1  0  0  0  0
M  END
> <FRED Chemgauss4 score>
-9.482126

$$$$
C88490101	P138409497
  -OEChem-05122015313D

 32 32  0     1  0  0  0  0  0999 V2000
  122.7986  110.7867  111.4013 C   0  0  0  0  0  0  0  0  0  0  0  0
  123.0300  109.2302  110.0298 C   0  0  0  0  0  0  0  0  0  0  0  0
  123.6261  105.9387  106.9891 C   0  0  0  0  0  0  0  0  0  0  0  0
  122.9463  112.1044  112.0304 C   0  0  0  0  0  0  0  0  0  0  0  0
  125.7477  105.6513  105.6462 C   0  0  0  0  0  0  0  0  0  0  0  0
  125.3611  107.2646  109.9125 C   0  0  0  0  0  0  0  0  0  0  0  0
  123.3855  108.3220  108.8884 C   0  0  0  0  0  0  0  0  0  0  0  0
  125.1311  106.1371  106.9509 C   0  0  1  0  0  0  0  0  0  0  0  0
  123.4215  110.4674  110.2288 N   0  0  0  0  0  0  0  0  0  0  0  0
  122.0464  109.8250  111.9403 N   0  0  0  0  0  0  0  0  0  0  0  0
  122.2116  108.8405  111.0438 N   0  0  0  0  0  0  0  0  0  0  0  0
  123.1352  105.1582  108.0006 N   0  0  0  0  0  0  0  0  0  0  0  0
  124.8493  108.0955  108.7940 N   0  0  2  0  0  0  0  0  0  0  0  0
  124.7885  108.6325  106.2601 O   0  0  0  0  0  0  0  0  0  0  0  0
  126.9707  107.9557  107.3130 O   0  0  0  0  0  0  0  0  0  0  0  0
  122.6123  106.6358  105.8541 S   0  0  0  0  0  0  0  0  0  0  0  0
  125.5259  107.8498  107.2340 S   0  0  0  0  0  0  0  0  0  0  0  0
  122.1726  112.8111  111.6784 H   0  0  0  0  0  0  0  0  0  0  0  0
  122.8694  112.0567  113.1333 H   0  0  0  0  0  0  0  0  0  0  0  0
  123.9307  112.5645  111.8206 H   0  0  0  0  0  0  0  0  0  0  0  0
  125.3043  106.1675  104.7883 H   0  0  0  0  0  0  0  0  0  0  0  0
  126.8297  105.8183  105.6161 H   0  0  0  0  0  0  0  0  0  0  0  0
  125.5829  104.5758  105.5195 H   0  0  0  0  0  0  0  0  0  0  0  0
  126.4397  107.1194  109.8096 H   0  0  0  0  0  0  0  0  0  0  0  0
  124.8726  106.2865  109.9110 H   0  0  0  0  0  0  0  0  0  0  0  0
  125.1616  107.7546  110.8693 H   0  0  0  0  0  0  0  0  0  0  0  0
  122.9002  107.3469  109.0053 H   0  0  0  0  0  0  0  0  0  0  0  0
  123.0492  108.7403  107.9339 H   0  0  0  0  0  0  0  0  0  0  0  0
  125.6022  105.5962  107.7805 H   0  0  0  0  0  0  0  0  0  0  0  0
  121.7440  107.9536  111.1906 H   0  0  0  0  0  0  0  0  0  0  0  0
  123.7332  104.7216  108.6941 H   0  0  0  0  0  0  0  0  0  0  0  0
  122.1400  104.9782  108.0839 H   0  0  0  0  0  0  0  0  0  0  0  0
  1  4  1  0  0  0  0
  1  9  1  0  0  0  0
  1 10  2  0  0  0  0
  2  7  1  0  0  0  0
  2  9  2  0  0  0  0
  2 11  1  0  0  0  0
  3  8  1  0  0  0  0
  3 12  1  0  0  0  0
  3 16  2  0  0  0  0
  5  8  1  0  0  0  0
  6 13  1  0  0  0  0
  7 13  1  0  0  0  0
  8 17  1  0  0  0  0
 10 11  1  0  0  0  0
 13 17  1  0  0  0  0
 14 17  2  0  0  0  0
 15 17  2  0  0  0  0
  4 18  1  0  0  0  0
  4 19  1  0  0  0  0
  4 20  1  0  0  0  0
  5 21  1  0  0  0  0
  5 22  1  0  0  0  0
  5 23  1  0  0  0  0
  6 24  1  0  0  0  0
  6 25  1  0  0  0  0
  6 26  1  0  0  0  0
  7 27  1  0  0  0  0
  7 28  1  0  0  0  0
  8 29  1  0  0  0  0
 11 30  1  0  0  0  0
 12 31  1  0  0  0  0
 12 32  1  0  0  0  0
M  END
> <FRED Chemgauss4 score>
-9.475958

$$$$
C54526408	P82058826
  -OEChem-05122015313D

 33 34  0     1  0  0  0  0  0999 V2000
  125.7772  108.0964  106.8104 C   0  0  0  0  0  0  0  0  0  0  0  0
  124.6110  108.8770  108.4657 C   0  0  0  0  0  0  0  0  0  0  0  0
  125.5755  104.1116  108.7492 C   0  0  0  0  0  0  0  0  0  0  0  0
  124.3164  104.0491  107.8818 C   0  0  0  0  0  0  0  0  0  0  0  0
  126.0618  105.5573  108.7004 C   0  0  0  0  0  0  0  0  0  0  0  0
  124.1012  105.4566  107.3336 C   0  0  0  0  0  0  0  0  0  0  0  0
  124.8067  106.3573  108.3484 C   0  0  0  0  0  0  0  0  0  0  0  0
  121.2954  108.8967  108.8608 C   0  0  0  0  0  0  0  0  0  0  0  0
  123.7794  108.9145  109.6819 C   0  0  2  0  0  0  0  0  0  0  0  0
  122.4332  108.1278  109.5291 C   0  0  1  0  0  0  0  0  0  0  0  0
  125.7840  109.4068  106.7147 N   0  0  0  0  0  0  0  0  0  0  0  0
  125.0420  109.9034  107.7678 N   0  0  0  0  0  0  0  0  0  0  0  0
  125.0503  107.7193  107.8986 N   0  0  0  0  0  0  0  0  0  0  0  0
  123.5053  110.3044  110.1261 N   0  0  0  0  0  0  0  0  0  0  0  0
  121.9816  107.7545  110.8356 O   0  0  0  0  0  0  0  0  0  0  0  0
  126.2642  107.3990  106.1440 H   0  0  0  0  0  0  0  0  0  0  0  0
  125.3809  103.7731  109.7814 H   0  0  0  0  0  0  0  0  0  0  0  0
  126.3486  103.4403  108.3320 H   0  0  0  0  0  0  0  0  0  0  0  0
  124.4088  103.3002  107.0742 H   0  0  0  0  0  0  0  0  0  0  0  0
  123.4490  103.7445  108.4989 H   0  0  0  0  0  0  0  0  0  0  0  0
  126.4116  105.8490  109.6933 H   0  0  0  0  0  0  0  0  0  0  0  0
  126.8856  105.6801  107.9980 H   0  0  0  0  0  0  0  0  0  0  0  0
  124.5516  105.5372  106.3386 H   0  0  0  0  0  0  0  0  0  0  0  0
  123.0389  105.6934  107.2415 H   0  0  0  0  0  0  0  0  0  0  0  0
  124.1748  106.4602  109.2648 H   0  0  0  0  0  0  0  0  0  0  0  0
  121.0820  109.8385  109.3740 H   0  0  0  0  0  0  0  0  0  0  0  0
  120.3800  108.2955  108.8321 H   0  0  0  0  0  0  0  0  0  0  0  0
  121.5518  109.1270  107.8205 H   0  0  0  0  0  0  0  0  0  0  0  0
  124.3156  108.4355  110.5331 H   0  0  0  0  0  0  0  0  0  0  0  0
  122.5990  107.1985  108.9722 H   0  0  0  0  0  0  0  0  0  0  0  0
  124.2333  110.9593  110.0128 H   0  0  0  0  0  0  0  0  0  0  0  0
  122.7051  110.4429  110.6849 H   0  0  0  0  0  0  0  0  0  0  0  0
  121.1977  107.2026  110.7024 H   0  0  0  0  0  0  0  0  0  0  0  0
  1 11  2  0  0  0  0
  1 13  1  0  0  0  0
  2  9  1  0  0  0  0
  2 12  2  0  0  0  0
  2 13  1  0  0  0  0
  3  4  1  0  0  0  0
  3  5  1  0  0  0  0
  4  6  1  0  0  0  0
  5  7  1  0  0  0  0
  6  7  1  0  0  0  0
  7 13  1  0  0  0  0
  8 10  1  0  0  0  0
  9 10  1  0  0  0  0
  9 14  1  0  0  0  0
 10 15  1  0  0  0  0
 11 12  1  0  0  0  0
  1 16  1  0  0  0  0
  3 17  1  0  0  0  0
  3 18  1  0  0  0  0
  4 19  1  0  0  0  0
  4 20  1  0  0  0  0
  5 21  1  0  0  0  0
  5 22  1  0  0  0  0
  6 23  1  0  0  0  0
  6 24  1  0  0  0  0
  7 25  1  0  0  0  0
  8 26  1  0  0  0  0
  8 27  1  0  0  0  0
  8 28  1  0  0  0  0
  9 29  1  0  0  0  0
 10 30  1  0  0  0  0
 14 31  1  0  0  0  0
 14 32  1  0  0  0  0
 15 33  1  0  0  0  0
M  END
> <FRED Chemgauss4 score>
-9.475340

$$$$
C39959114	P97216792
  -OEChem-05122015313D

 42 44  0     1  0  0  0  0  0999 V2000
  119.2175  105.6570  106.3248 C   0  0  0  0  0  0  0  0  0  0  0  0
  116.6008  104.8405  103.4144 C   0  0  0  0  0  0  0  0  0  0  0  0
  118.9076  104.3933  104.2575 C   0  0  0  0  0  0  0  0  0  0  0  0
  117.8968  105.7287  106.5768 C   0  0  0  0  0  0  0  0  0  0  0  0
  115.5120  105.4618  104.1735 C   0  0  0  0  0  0  0  0  0  0  0  0
  119.7409  104.8648  105.2089 C   0  0  0  0  0  0  0  0  0  0  0  0
  117.4962  104.6483  104.3794 C   0  0  0  0  0  0  0  0  0  0  0  0
  123.8960  106.6886  106.2577 C   0  0  0  0  0  0  0  0  0  0  0  0
  116.9330  104.9420  105.7373 C   0  0  2  0  0  0  0  0  0  0  0  0
  121.2210  104.6823  105.1497 C   0  0  1  0  0  0  0  0  0  0  0  0
  123.2534  105.5303  105.5729 C   0  0  2  0  0  0  0  0  0  0  0  0
  126.2663  106.5501  109.1630 C   0  0  0  0  0  0  0  0  0  0  0  0
  124.4462  108.2300  108.7930 C   0  0  0  0  0  0  0  0  0  0  0  0
  126.4060  108.0931  107.1936 C   0  0  0  0  0  0  0  0  0  0  0  0
  125.4500  107.2983  108.1004 C   0  0  0  0  0  0  0  0  0  0  0  0
  115.6563  105.6325  105.4563 N   0  0  0  0  0  0  0  0  0  0  0  0
  121.9516  105.9480  105.0739 N   0  0  0  0  0  0  0  0  0  0  0  0
  121.7240  103.9727  106.3289 N   0  0  0  0  0  0  0  0  0  0  0  0
  124.7269  106.3337  107.3033 N   0  0  0  0  0  0  0  0  0  0  0  0
  123.6604  107.8267  105.8694 O   0  0  0  0  0  0  0  0  0  0  0  0
  123.0891  104.4770  106.5057 O   0  0  0  0  0  0  0  0  0  0  0  0
  127.3243  107.2367  106.5236 O   0  0  0  0  0  0  0  0  0  0  0  0
  119.9224  106.1968  106.9488 H   0  0  0  0  0  0  0  0  0  0  0  0
  116.7055  104.7998  102.3462 H   0  0  0  0  0  0  0  0  0  0  0  0
  119.2776  103.8857  103.3735 H   0  0  0  0  0  0  0  0  0  0  0  0
  117.5296  106.3042  107.4201 H   0  0  0  0  0  0  0  0  0  0  0  0
  114.6337  105.8262  103.6210 H   0  0  0  0  0  0  0  0  0  0  0  0
  116.7039  104.0065  106.2656 H   0  0  0  0  0  0  0  0  0  0  0  0
  121.4408  104.0761  104.2695 H   0  0  0  0  0  0  0  0  0  0  0  0
  123.9029  105.1937  104.7510 H   0  0  0  0  0  0  0  0  0  0  0  0
  126.9952  105.8739  108.7025 H   0  0  0  0  0  0  0  0  0  0  0  0
  126.8138  107.2490  109.8062 H   0  0  0  0  0  0  0  0  0  0  0  0
  125.6167  105.9527  109.8135 H   0  0  0  0  0  0  0  0  0  0  0  0
  123.8415  108.7846  108.0666 H   0  0  0  0  0  0  0  0  0  0  0  0
  124.9570  108.9576  109.4332 H   0  0  0  0  0  0  0  0  0  0  0  0
  123.7493  107.6609  109.4194 H   0  0  0  0  0  0  0  0  0  0  0  0
  125.8486  108.6381  106.4241 H   0  0  0  0  0  0  0  0  0  0  0  0
  126.9855  108.8253  107.7676 H   0  0  0  0  0  0  0  0  0  0  0  0
  122.0537  106.1941  104.0979 H   0  0  0  0  0  0  0  0  0  0  0  0
  121.2775  104.3269  107.1754 H   0  0  0  0  0  0  0  0  0  0  0  0
  124.8345  105.3478  107.5220 H   0  0  0  0  0  0  0  0  0  0  0  0
  127.8877  107.8066  105.9765 H   0  0  0  0  0  0  0  0  0  0  0  0
  1  4  2  0  0  0  0
  1  6  1  0  0  0  0
  2  5  1  0  0  0  0
  2  7  2  0  0  0  0
  3  6  2  0  0  0  0
  3  7  1  0  0  0  0
  4  9  1  0  0  0  0
  5 16  2  0  0  0  0
  6 10  1  0  0  0  0
  7  9  1  0  0  0  0
  8 11  1  0  0  0  0
  8 19  1  0  0  0  0
  8 20  2  0  0  0  0
  9 16  1  0  0  0  0
 10 17  1  0  0  0  0
 10 18  1  0  0  0  0
 11 17  1  0  0  0  0
 11 21  1  0  0  0  0
 12 15  1  0  0  0  0
 13 15  1  0  0  0  0
 14 15  1  0  0  0  0
 14 22  1  0  0  0  0
 15 19  1  0  0  0  0
 18 21  1  0  0  0  0
  1 23  1  0  0  0  0
  2 24  1  0  0  0  0
  3 25  1  0  0  0  0
  4 26  1  0  0  0  0
  5 27  1  0  0  0  0
  9 28  1  0  0  0  0
 10 29  1  0  0  0  0
 11 30  1  0  0  0  0
 12 31  1  0  0  0  0
 12 32  1  0  0  0  0
 12 33  1  0  0  0  0
 13 34  1  0  0  0  0
 13 35  1  0  0  0  0
 13 36  1  0  0  0  0
 14 37  1  0  0  0  0
 14 38  1  0  0  0  0
 17 39  1  0  0  0  0
 18 40  1  0  0  0  0
 19 41  1  0  0  0  0
 22 42  1  0  0  0  0
M  END
> <FRED Chemgauss4 score>
-9.469845

$$$$
C50392648	P75365168
  -OEChem-05122015313D

 24 24  0     1  0  0  0  0  0999 V2000
  125.0298  109.0308  107.9901 C   0  0  0  0  0  0  0  0  0  0  0  0
  126.5523  106.0360  109.3226 C   0  0  0  0  0  0  0  0  0  0  0  0
  123.1956  108.4824  110.1857 C   0  0  0  0  0  0  0  0  0  0  0  0
  123.4940  107.3580  109.2050 C   0  0  0  0  0  0  0  0  0  0  0  0
  123.1095  109.7890  109.4213 C   0  0  0  0  0  0  0  0  0  0  0  0
  124.8074  107.6033  108.4705 C   0  0  2  0  0  0  0  0  0  0  0  0
  124.2630  110.0156  108.5736 N   0  0  0  0  0  0  0  0  0  0  0  0
  128.3495  104.8442  110.3523 N   0  0  0  0  0  0  0  0  0  0  0  0
  125.9526  107.2950  109.2928 N   0  0  0  0  0  0  0  0  0  0  0  0
  127.6338  106.0131  110.1960 N   0  0  0  0  0  0  0  0  0  0  0  0
  125.9354  109.2957  107.1954 O   0  0  0  0  0  0  0  0  0  0  0  0
  126.1688  105.0735  108.6582 O   0  0  0  0  0  0  0  0  0  0  0  0
  122.2488  108.2831  110.6999 H   0  0  0  0  0  0  0  0  0  0  0  0
  123.9781  108.5432  110.9481 H   0  0  0  0  0  0  0  0  0  0  0  0
  123.5288  106.3950  109.7443 H   0  0  0  0  0  0  0  0  0  0  0  0
  122.6691  107.2665  108.4788 H   0  0  0  0  0  0  0  0  0  0  0  0
  122.2194  109.8116  108.7887 H   0  0  0  0  0  0  0  0  0  0  0  0
  123.0565  110.6338  110.1138 H   0  0  0  0  0  0  0  0  0  0  0  0
  124.8771  106.9598  107.5890 H   0  0  0  0  0  0  0  0  0  0  0  0
  124.5278  110.9801  108.3951 H   0  0  0  0  0  0  0  0  0  0  0  0
  129.3188  105.1105  110.5198 H   0  0  0  0  0  0  0  0  0  0  0  0
  128.3400  104.3686  109.4511 H   0  0  0  0  0  0  0  0  0  0  0  0
  126.3157  108.0177  109.9093 H   0  0  0  0  0  0  0  0  0  0  0  0
  127.8938  106.8468  110.7126 H   0  0  0  0  0  0  0  0  0  0  0  0
  1  6  1  0  0  0  0
  1  7  1  0  0  0  0
  1 11  2  0  0  0  0
  2  9  1  0  0  0  0
  2 10  1  0  0  0  0
  2 12  2  0  0  0  0
  3  4  1  0  0  0  0
  3  5  1  0  0  0  0
  4  6  1  0  0  0  0
  5  7  1  0  0  0  0
  6  9  1  0  0  0  0
  8 10  1  0  0  0  0
  3 13  1  0  0  0  0
  3 14  1  0  0  0  0
  4 15  1  0  0  0  0
  4 16  1  0  0  0  0
  5 17  1  0  0  0  0
  5 18  1  0  0  0  0
  6 19  1  0  0  0  0
  7 20  1  0  0  0  0
  8 21  1  0  0  0  0
  8 22  1  0  0  0  0
  9 23  1  0  0  0  0
 10 24  1  0  0  0  0
M  END
> <FRED Chemgauss4 score>
-9.463877

$$$$
C87900218	P137491256
  -OEChem-05122015313D

 34 35  0     0  0  0  0  0  0999 V2000
  122.6744  107.7103  106.3404 C   0  0  0  0  0  0  0  0  0  0  0  0
  123.8396  107.3175  107.0411 C   0  0  0  0  0  0  0  0  0  0  0  0
  122.2257  106.5870  105.6854 C   0  0  0  0  0  0  0  0  0  0  0  0
  124.0198  105.9821  106.7646 C   0  0  0  0  0  0  0  0  0  0  0  0
  121.0675  106.3698  104.8041 C   0  0  0  0  0  0  0  0  0  0  0  0
  116.0220  105.7715  103.9005 C   0  0  0  0  0  0  0  0  0  0  0  0
  117.3424  106.3543  104.4451 C   0  0  0  0  0  0  0  0  0  0  0  0
  116.8216  104.5108  103.5117 C   0  0  0  0  0  0  0  0  0  0  0  0
  117.8243  104.8922  104.6315 C   0  0  0  0  0  0  0  0  0  0  0  0
  119.9463  105.2007  106.6616 C   0  0  0  0  0  0  0  0  0  0  0  0
  119.2878  104.6192  104.3536 C   0  0  0  0  0  0  0  0  0  0  0  0
  123.9812  109.8312  107.9162 N   0  0  0  0  0  0  0  0  0  0  0  0
  120.1105  105.4077  105.2149 N   0  0  0  0  0  0  0  0  0  0  0  0
  121.0242  107.0550  103.7830 O   0  0  0  0  0  0  0  0  0  0  0  0
  124.7212  107.8765  109.4252 O   0  0  0  0  0  0  0  0  0  0  0  0
  126.1299  108.4956  107.4301 O   0  0  0  0  0  0  0  0  0  0  0  0
  123.0402  105.5293  105.9389 O   0  0  0  0  0  0  0  0  0  0  0  0
  124.7976  108.3248  108.0275 S   0  0  0  0  0  0  0  0  0  0  0  0
  125.4237  104.8813  107.4164 Br  0  0  0  0  0  0  0  0  0  0  0  0
  122.2169  108.6897  106.3178 H   0  0  0  0  0  0  0  0  0  0  0  0
  115.2662  105.5938  104.6741 H   0  0  0  0  0  0  0  0  0  0  0  0
  115.5648  106.3195  103.0731 H   0  0  0  0  0  0  0  0  0  0  0  0
  117.9068  106.9290  103.7013 H   0  0  0  0  0  0  0  0  0  0  0  0
  117.2556  106.9460  105.3601 H   0  0  0  0  0  0  0  0  0  0  0  0
  116.3000  103.5597  103.6460 H   0  0  0  0  0  0  0  0  0  0  0  0
  117.2346  104.5505  102.4969 H   0  0  0  0  0  0  0  0  0  0  0  0
  117.5279  104.4820  105.6075 H   0  0  0  0  0  0  0  0  0  0  0  0
  119.1814  105.8763  107.0533 H   0  0  0  0  0  0  0  0  0  0  0  0
  120.8884  105.3967  107.1808 H   0  0  0  0  0  0  0  0  0  0  0  0
  119.6425  104.1701  106.8639 H   0  0  0  0  0  0  0  0  0  0  0  0
  119.5124  104.8765  103.3225 H   0  0  0  0  0  0  0  0  0  0  0  0
  119.5025  103.5694  104.5294 H   0  0  0  0  0  0  0  0  0  0  0  0
  123.4547  110.1631  108.7335 H   0  0  0  0  0  0  0  0  0  0  0  0
  124.4168  110.5839  107.3694 H   0  0  0  0  0  0  0  0  0  0  0  0
  1  2  1  0  0  0  0
  1  3  2  0  0  0  0
  2  4  2  0  0  0  0
  2 18  1  0  0  0  0
  3  5  1  0  0  0  0
  3 17  1  0  0  0  0
  4 17  1  0  0  0  0
  4 19  1  0  0  0  0
  5 13  1  0  0  0  0
  5 14  2  0  0  0  0
  6  7  1  0  0  0  0
  6  8  1  0  0  0  0
  7  9  1  0  0  0  0
  8  9  1  0  0  0  0
  9 11  1  0  0  0  0
 10 13  1  0  0  0  0
 11 13  1  0  0  0  0
 12 18  1  0  0  0  0
 15 18  2  0  0  0  0
 16 18  2  0  0  0  0
  1 20  1  0  0  0  0
  6 21  1  0  0  0  0
  6 22  1  0  0  0  0
  7 23  1  0  0  0  0
  7 24  1  0  0  0  0
  8 25  1  0  0  0  0
  8 26  1  0  0  0  0
  9 27  1  0  0  0  0
 10 28  1  0  0  0  0
 10 29  1  0  0  0  0
 10 30  1  0  0  0  0
 11 31  1  0  0  0  0
 11 32  1  0  0  0  0
 12 33  1  0  0  0  0
 12 34  1  0  0  0  0
M  END
> <FRED Chemgauss4 score>
-9.452816

$$$$
C63143169	P96955688
  -OEChem-05122015313D

 36 36  0     1  0  0  0  0  0999 V2000
  125.0383  106.9171  107.0787 C   0  0  0  0  0  0  0  0  0  0  0  0
  125.0441  103.4713  107.6994 C   0  0  0  0  0  0  0  0  0  0  0  0
  125.5196  104.5222  106.7011 C   0  0  0  0  0  0  0  0  0  0  0  0
  124.1130  104.2303  108.6317 C   0  0  0  0  0  0  0  0  0  0  0  0
  124.4258  105.5919  106.6590 C   0  0  1  0  0  0  0  0  0  0  0  0
  123.3790  105.1937  107.7015 C   0  0  1  0  0  0  0  0  0  0  0  0
  116.5900  104.2264  103.3846 C   0  0  0  0  0  0  0  0  0  0  0  0
  118.8710  104.7795  104.8743 C   0  0  0  0  0  0  0  0  0  0  0  0
  119.7627  104.5320  106.0725 C   0  0  0  0  0  0  0  0  0  0  0  0
  125.6048  106.9392  108.3232 N   0  0  0  0  0  0  0  0  0  0  0  0
  122.2460  104.5485  107.0796 N   0  0  0  0  0  0  0  0  0  0  0  0
  117.7313  102.4272  104.8988 O   0  0  0  0  0  0  0  0  0  0  0  0
  116.5453  104.3676  105.9942 O   0  0  0  0  0  0  0  0  0  0  0  0
  121.8151  105.3054  104.6443 O   0  0  0  0  0  0  0  0  0  0  0  0
  121.0481  106.7482  106.5644 O   0  0  0  0  0  0  0  0  0  0  0  0
  125.0142  108.2566  106.0812 S   0  0  0  0  0  0  0  0  0  0  0  0
  117.3801  103.8371  104.9295 S   0  0  0  0  0  0  0  0  0  0  0  0
  121.2900  105.4390  105.9891 S   0  0  0  0  0  0  0  0  0  0  0  0
  124.5003  102.6759  107.1767 H   0  0  0  0  0  0  0  0  0  0  0  0
  125.8769  103.0065  108.2356 H   0  0  0  0  0  0  0  0  0  0  0  0
  126.4841  104.9350  107.0205 H   0  0  0  0  0  0  0  0  0  0  0  0
  125.6737  104.0696  105.7154 H   0  0  0  0  0  0  0  0  0  0  0  0
  123.4423  103.5575  109.1750 H   0  0  0  0  0  0  0  0  0  0  0  0
  124.7031  104.7935  109.3646 H   0  0  0  0  0  0  0  0  0  0  0  0
  124.0242  105.7245  105.6713 H   0  0  0  0  0  0  0  0  0  0  0  0
  123.0052  106.0653  108.2794 H   0  0  0  0  0  0  0  0  0  0  0  0
  115.6472  103.6795  103.3325 H   0  0  0  0  0  0  0  0  0  0  0  0
  116.4104  105.3020  103.3511 H   0  0  0  0  0  0  0  0  0  0  0  0
  117.2531  103.9236  102.5728 H   0  0  0  0  0  0  0  0  0  0  0  0
  118.5838  105.8313  104.7865 H   0  0  0  0  0  0  0  0  0  0  0  0
  119.3829  104.4781  103.9551 H   0  0  0  0  0  0  0  0  0  0  0  0
  120.0430  103.4754  106.1210 H   0  0  0  0  0  0  0  0  0  0  0  0
  119.2750  104.8082  107.0118 H   0  0  0  0  0  0  0  0  0  0  0  0
  125.6048  106.1125  108.9115 H   0  0  0  0  0  0  0  0  0  0  0  0
  126.0434  107.7695  108.7084 H   0  0  0  0  0  0  0  0  0  0  0  0
  122.4059  103.5589  106.8718 H   0  0  0  0  0  0  0  0  0  0  0  0
  1  5  1  0  0  0  0
  1 10  1  0  0  0  0
  1 16  2  0  0  0  0
  2  3  1  0  0  0  0
  2  4  1  0  0  0  0
  3  5  1  0  0  0  0
  4  6  1  0  0  0  0
  5  6  1  0  0  0  0
  6 11  1  0  0  0  0
  7 17  1  0  0  0  0
  8  9  1  0  0  0  0
  8 17  1  0  0  0  0
  9 18  1  0  0  0  0
 11 18  1  0  0  0  0
 12 17  2  0  0  0  0
 13 17  2  0  0  0  0
 14 18  2  0  0  0  0
 15 18  2  0  0  0  0
  2 19  1  0  0  0  0
  2 20  1  0  0  0  0
  3 21  1  0  0  0  0
  3 22  1  0  0  0  0
  4 23  1  0  0  0  0
  4 24  1  0  0  0  0
  5 25  1  0  0  0  0
  6 26  1  0  0  0  0
  7 27  1  0  0  0  0
  7 28  1  0  0  0  0
  7 29  1  0  0  0  0
  8 30  1  0  0  0  0
  8 31  1  0  0  0  0
  9 32  1  0  0  0  0
  9 33  1  0  0  0  0
 10 34  1  0  0  0  0
 10 35  1  0  0  0  0
 11 36  1  0  0  0  0
M  END
> <FRED Chemgauss4 score>
-9.445461

$$$$
C41047746	P88350758
  -OEChem-05122015313D

 19 20  0     1  0  0  0  0  0999 V2000
  125.7110  107.8905  108.0446 C   0  0  0  0  0  0  0  0  0  0  0  0
  123.9368  105.1086  107.2554 C   0  0  0  0  0  0  0  0  0  0  0  0
  124.8150  104.1050  107.9489 C   0  0  0  0  0  0  0  0  0  0  0  0
  125.3774  105.4366  107.5345 C   0  0  0  0  0  0  0  0  0  0  0  0
  125.7289  106.4552  108.5627 C   0  0  1  0  0  0  0  0  0  0  0  0
  125.2377  109.9536  107.8385 N   0  5  0  0  0  0  0  0  0  0  0  0
  124.9539  108.8609  108.5910 N   0  0  0  0  0  0  0  0  0  0  0  0
  126.4506  108.3047  106.9983 N   0  0  0  0  0  0  0  0  0  0  0  0
  126.1368  109.6195  106.8816 N   0  0  0  0  0  0  0  0  0  0  0  0
  127.0642  106.1125  109.1725 N   0  3  0  0  0  0  0  0  0  0  0  0
  123.6405  104.8982  106.2352 H   0  0  0  0  0  0  0  0  0  0  0  0
  123.1818  105.6117  107.8471 H   0  0  0  0  0  0  0  0  0  0  0  0
  124.6486  103.9349  109.0055 H   0  0  0  0  0  0  0  0  0  0  0  0
  125.1070  103.2227  107.3929 H   0  0  0  0  0  0  0  0  0  0  0  0
  126.0610  105.4540  106.6943 H   0  0  0  0  0  0  0  0  0  0  0  0
  125.0336  106.3913  109.4239 H   0  0  0  0  0  0  0  0  0  0  0  0
  126.9910  105.2403  109.6909 H   0  0  0  0  0  0  0  0  0  0  0  0
  127.3525  106.8553  109.8053 H   0  0  0  0  0  0  0  0  0  0  0  0
  127.7603  106.0088  108.4379 H   0  0  0  0  0  0  0  0  0  0  0  0
  1  5  1  0  0  0  0
  1  7  2  0  0  0  0
  1  8  1  0  0  0  0
  2  3  1  0  0  0  0
  2  4  1  0  0  0  0
  3  4  1  0  0  0  0
  4  5  1  0  0  0  0
  5 10  1  0  0  0  0
  6  7  1  0  0  0  0
  6  9  1  0  0  0  0
  8  9  2  0  0  0  0
  2 11  1  0  0  0  0
  2 12  1  0  0  0  0
  3 13  1  0  0  0  0
  3 14  1  0  0  0  0
  4 15  1  0  0  0  0
  5 16  1  0  0  0  0
 10 17  1  0  0  0  0
 10 18  1  0  0  0  0
 10 19  1  0  0  0  0
M  CHG  2   6  -1  10   1
M  END
> <FRED Chemgauss4 score>
-9.441339

$$$$
C87446939	P136794831
  -OEChem-05122015313D

 26 26  0     0  0  0  0  0  0999 V2000
  124.9672  106.7122  109.1445 C   0  0  0  0  0  0  0  0  0  0  0  0
  125.6913  104.9379  108.3171 C   0  0  0  0  0  0  0  0  0  0  0  0
  123.9853  107.7727  109.4886 C   0  0  0  0  0  0  0  0  0  0  0  0
  125.8553  103.6626  107.6249 C   0  0  0  0  0  0  0  0  0  0  0  0
  123.6403  109.9280  110.6683 C   0  0  0  0  0  0  0  0  0  0  0  0
  124.1180  110.5300  111.9758 C   0  0  0  0  0  0  0  0  0  0  0  0
  124.5783  105.6276  108.4116 N   0  0  0  0  0  0  0  0  0  0  0  0
  126.6912  105.5911  108.9677 N   0  0  0  0  0  0  0  0  0  0  0  0
  126.2508  106.7369  109.5094 N   0  0  0  0  0  0  0  0  0  0  0  0
  123.9231  112.3102  113.9364 N   0  0  0  0  0  0  0  0  0  0  0  0
  124.4722  108.8378  110.2371 N   0  0  0  0  0  0  0  0  0  0  0  0
  122.8188  107.6515  109.1237 O   0  0  0  0  0  0  0  0  0  0  0  0
  123.3122  112.9748  111.5276 O   0  0  0  0  0  0  0  0  0  0  0  0
  121.7988  111.4040  112.8036 O   0  0  0  0  0  0  0  0  0  0  0  0
  123.1268  111.8992  112.4861 S   0  0  0  0  0  0  0  0  0  0  0  0
  126.1384  103.8025  106.5628 H   0  0  0  0  0  0  0  0  0  0  0  0
  126.6359  103.0218  108.0841 H   0  0  0  0  0  0  0  0  0  0  0  0
  124.9319  103.0475  107.6333 H   0  0  0  0  0  0  0  0  0  0  0  0
  122.6166  109.5498  110.7503 H   0  0  0  0  0  0  0  0  0  0  0  0
  123.6672  110.6813  109.8751 H   0  0  0  0  0  0  0  0  0  0  0  0
  125.1371  110.9133  111.8688 H   0  0  0  0  0  0  0  0  0  0  0  0
  124.0991  109.7996  112.7904 H   0  0  0  0  0  0  0  0  0  0  0  0
  126.8497  107.3667  110.0364 H   0  0  0  0  0  0  0  0  0  0  0  0
  124.4707  113.1795  113.9517 H   0  0  0  0  0  0  0  0  0  0  0  0
  123.4400  112.1095  114.8206 H   0  0  0  0  0  0  0  0  0  0  0  0
  125.4401  108.8324  110.5538 H   0  0  0  0  0  0  0  0  0  0  0  0
  1  3  1  0  0  0  0
  1  7  2  0  0  0  0
  1  9  1  0  0  0  0
  2  4  1  0  0  0  0
  2  7  1  0  0  0  0
  2  8  2  0  0  0  0
  3 11  1  0  0  0  0
  3 12  2  0  0  0  0
  5  6  1  0  0  0  0
  5 11  1  0  0  0  0
  6 15  1  0  0  0  0
  8  9  1  0  0  0  0
 10 15  1  0  0  0  0
 13 15  2  0  0  0  0
 14 15  2  0  0  0  0
  4 16  1  0  0  0  0
  4 17  1  0  0  0  0
  4 18  1  0  0  0  0
  5 19  1  0  0  0  0
  5 20  1  0  0  0  0
  6 21  1  0  0  0  0
  6 22  1  0  0  0  0
  9 23  1  0  0  0  0
 10 24  1  0  0  0  0
 10 25  1  0  0  0  0
 11 26  1  0  0  0  0
M  END
> <FRED Chemgauss4 score>
-9.440944

$$$$
C71178555	P109891495
  -OEChem-05122015313D

 26 27  0     0  0  0  0  0  0999 V2000
  116.7145  106.6319  104.2859 C   0  0  0  0  0  0  0  0  0  0  0  0
  117.4267  105.7918  103.4301 C   0  0  0  0  0  0  0  0  0  0  0  0
  117.9267  105.7362  106.1741 C   0  0  0  0  0  0  0  0  0  0  0  0
  123.3721  105.3854  106.7770 C   0  0  0  0  0  0  0  0  0  0  0  0
  121.4665  105.7781  104.9489 C   0  0  0  0  0  0  0  0  0  0  0  0
  116.9645  106.6041  105.6580 C   0  0  0  0  0  0  0  0  0  0  0  0
  118.3889  104.9239  103.9462 C   0  0  0  0  0  0  0  0  0  0  0  0
  118.6390  104.8960  105.3182 C   0  0  0  0  0  0  0  0  0  0  0  0
  123.5086  106.3509  105.8041 C   0  0  0  0  0  0  0  0  0  0  0  0
  121.3302  104.8120  105.9213 C   0  0  0  0  0  0  0  0  0  0  0  0
  124.7292  107.2019  105.7515 C   0  0  0  0  0  0  0  0  0  0  0  0
  122.5582  106.5648  104.8728 N   0  0  0  0  0  0  0  0  0  0  0  0
  122.2806  104.5983  106.8529 N   0  0  0  0  0  0  0  0  0  0  0  0
  124.4274  108.6057  105.8831 N   0  0  0  0  0  0  0  0  0  0  0  0
  116.2803  107.4109  106.4797 F   0  0  0  0  0  0  0  0  0  0  0  0
  119.0624  104.1240  103.1067 F   0  0  0  0  0  0  0  0  0  0  0  0
  119.8665  103.7896  105.9878 S   0  0  0  0  0  0  0  0  0  0  0  0
  115.9655  107.3081  103.8844 H   0  0  0  0  0  0  0  0  0  0  0  0
  117.2322  105.8136  102.3618 H   0  0  0  0  0  0  0  0  0  0  0  0
  118.1063  105.7298  107.2463 H   0  0  0  0  0  0  0  0  0  0  0  0
  124.1315  105.2081  107.5297 H   0  0  0  0  0  0  0  0  0  0  0  0
  120.7114  105.9619  104.1931 H   0  0  0  0  0  0  0  0  0  0  0  0
  125.4322  106.9407  106.5561 H   0  0  0  0  0  0  0  0  0  0  0  0
  125.2726  107.0732  104.8043 H   0  0  0  0  0  0  0  0  0  0  0  0
  125.0591  109.2796  105.4852 H   0  0  0  0  0  0  0  0  0  0  0  0
  123.7156  108.8923  106.5334 H   0  0  0  0  0  0  0  0  0  0  0  0
  1  2  1  0  0  0  0
  1  6  2  0  0  0  0
  2  7  2  0  0  0  0
  3  6  1  0  0  0  0
  3  8  2  0  0  0  0
  4  9  2  0  0  0  0
  4 13  1  0  0  0  0
  5 10  1  0  0  0  0
  5 12  2  0  0  0  0
  6 15  1  0  0  0  0
  7  8  1  0  0  0  0
  7 16  1  0  0  0  0
  8 17  1  0  0  0  0
  9 11  1  0  0  0  0
  9 12  1  0  0  0  0
 10 13  2  0  0  0  0
 10 17  1  0  0  0  0
 11 14  1  0  0  0  0
  1 18  1  0  0  0  0
  2 19  1  0  0  0  0
  3 20  1  0  0  0  0
  4 21  1  0  0  0  0
  5 22  1  0  0  0  0
 11 23  1  0  0  0  0
 11 24  1  0  0  0  0
 14 25  1  0  0  0  0
 14 26  1  0  0  0  0
M  END
> <FRED Chemgauss4 score>
-9.439937

$$$$
C50141891	P128496873
  -OEChem-05122015313D

 23 22  0     0  0  0  0  0  0999 V2000
  125.5154  108.5290  107.6649 C   0  0  0  0  0  0  0  0  0  0  0  0
  124.6175  108.4769  106.6644 C   0  0  0  0  0  0  0  0  0  0  0  0
  124.0010  108.5958  109.5177 C   0  0  0  0  0  0  0  0  0  0  0  0
  125.0061  106.4453  108.7273 C   0  0  0  0  0  0  0  0  0  0  0  0
  123.9452  108.2821  110.9997 C   0  0  0  0  0  0  0  0  0  0  0  0
  126.3629  105.7744  108.6433 C   0  0  0  0  0  0  0  0  0  0  0  0
  125.1942  107.9201  108.9136 N   0  3  0  0  0  0  0  0  0  0  0  0
  124.6547  108.9266  105.4886 O   0  5  0  0  0  0  0  0  0  0  0  0
  122.7952  108.8907  111.5721 O   0  0  0  0  0  0  0  0  0  0  0  0
  127.0727  105.9826  109.8572 O   0  0  0  0  0  0  0  0  0  0  0  0
  126.4763  109.0202  107.5523 H   0  0  0  0  0  0  0  0  0  0  0  0
  123.7001  107.9486  106.9338 H   0  0  0  0  0  0  0  0  0  0  0  0
  124.1235  109.6658  109.3273 H   0  0  0  0  0  0  0  0  0  0  0  0
  123.1234  108.2134  108.9899 H   0  0  0  0  0  0  0  0  0  0  0  0
  124.4268  106.0973  109.5872 H   0  0  0  0  0  0  0  0  0  0  0  0
  124.4333  106.3162  107.8051 H   0  0  0  0  0  0  0  0  0  0  0  0
  123.8639  107.2007  111.1478 H   0  0  0  0  0  0  0  0  0  0  0  0
  124.8365  108.6427  111.5234 H   0  0  0  0  0  0  0  0  0  0  0  0
  126.2364  104.6958  108.5070 H   0  0  0  0  0  0  0  0  0  0  0  0
  126.9573  106.1666  107.8117 H   0  0  0  0  0  0  0  0  0  0  0  0
  125.9851  108.0525  109.5597 H   0  0  0  0  0  0  0  0  0  0  0  0
  122.7995  108.6649  112.5163 H   0  0  0  0  0  0  0  0  0  0  0  0
  127.9305  105.5387  109.7596 H   0  0  0  0  0  0  0  0  0  0  0  0
  1  2  2  0  0  0  0
  1  7  1  0  0  0  0
  2  8  1  0  0  0  0
  3  5  1  0  0  0  0
  3  7  1  0  0  0  0
  4  6  1  0  0  0  0
  4  7  1  0  0  0  0
  5  9  1  0  0  0  0
  6 10  1  0  0  0  0
  1 11  1  0  0  0  0
  2 12  1  0  0  0  0
  3 13  1  0  0  0  0
  3 14  1  0  0  0  0
  4 15  1  0  0  0  0
  4 16  1  0  0  0  0
  5 17  1  0  0  0  0
  5 18  1  0  0  0  0
  6 19  1  0  0  0  0
  6 20  1  0  0  0  0
  7 21  1  0  0  0  0
  9 22  1  0  0  0  0
 10 23  1  0  0  0  0
M  CHG  2   7   1   8  -1
M  END
> <FRED Chemgauss4 score>
-9.439071

$$$$
C08653312	P88384198
  -OEChem-05122015313D

 27 28  0     1  0  0  0  0  0999 V2000
  123.5391  106.1843  105.5243 C   0  0  0  0  0  0  0  0  0  0  0  0
  124.9032  106.3803  107.2356 C   0  0  0  0  0  0  0  0  0  0  0  0
  124.9839  107.4716  106.4027 C   0  0  0  0  0  0  0  0  0  0  0  0
  125.6709  106.2238  108.4289 C   0  0  0  0  0  0  0  0  0  0  0  0
  126.5657  108.4354  107.7494 C   0  0  0  0  0  0  0  0  0  0  0  0
  123.5212  104.2784  107.1484 C   0  0  0  0  0  0  0  0  0  0  0  0
  121.0959  104.8843  106.8476 C   0  0  0  0  0  0  0  0  0  0  0  0
  122.1490  104.3615  107.8198 C   0  0  2  0  0  0  0  0  0  0  0  0
  124.1320  107.3453  105.3372 N   0  0  0  0  0  0  0  0  0  0  0  0
  125.8468  108.5529  106.6564 N   0  0  0  0  0  0  0  0  0  0  0  0
  123.9746  105.5603  106.6644 N   0  0  0  0  0  0  0  0  0  0  0  0
  126.4996  107.3293  108.6153 N   0  0  0  0  0  0  0  0  0  0  0  0
  127.4525  109.4111  108.1276 N   0  0  0  0  0  0  0  0  0  0  0  0
  125.6222  105.2649  109.1920 O   0  0  0  0  0  0  0  0  0  0  0  0
  121.1844  106.3040  106.7931 O   0  0  0  0  0  0  0  0  0  0  0  0
  122.2372  105.2683  108.9206 O   0  0  0  0  0  0  0  0  0  0  0  0
  122.7930  105.7463  104.8753 H   0  0  0  0  0  0  0  0  0  0  0  0
  123.5000  103.6047  106.2834 H   0  0  0  0  0  0  0  0  0  0  0  0
  124.2821  103.9041  107.8441 H   0  0  0  0  0  0  0  0  0  0  0  0
  120.0860  104.6226  107.1799 H   0  0  0  0  0  0  0  0  0  0  0  0
  121.2624  104.4950  105.8384 H   0  0  0  0  0  0  0  0  0  0  0  0
  121.8437  103.3890  108.2234 H   0  0  0  0  0  0  0  0  0  0  0  0
  127.0988  107.3364  109.4357 H   0  0  0  0  0  0  0  0  0  0  0  0
  127.5397  110.2155  107.5515 H   0  0  0  0  0  0  0  0  0  0  0  0
  127.9728  109.2753  108.9626 H   0  0  0  0  0  0  0  0  0  0  0  0
  120.5038  106.6011  106.1685 H   0  0  0  0  0  0  0  0  0  0  0  0
  122.9040  104.9037  109.5213 H   0  0  0  0  0  0  0  0  0  0  0  0
  1  9  2  0  0  0  0
  1 11  1  0  0  0  0
  2  3  2  0  0  0  0
  2  4  1  0  0  0  0
  2 11  1  0  0  0  0
  3  9  1  0  0  0  0
  3 10  1  0  0  0  0
  4 12  1  0  0  0  0
  4 14  2  0  0  0  0
  5 10  2  0  0  0  0
  5 12  1  0  0  0  0
  5 13  1  0  0  0  0
  6  8  1  0  0  0  0
  6 11  1  0  0  0  0
  7  8  1  0  0  0  0
  7 15  1  0  0  0  0
  8 16  1  0  0  0  0
  1 17  1  0  0  0  0
  6 18  1  0  0  0  0
  6 19  1  0  0  0  0
  7 20  1  0  0  0  0
  7 21  1  0  0  0  0
  8 22  1  0  0  0  0
 12 23  1  0  0  0  0
 13 24  1  0  0  0  0
 13 25  1  0  0  0  0
 15 26  1  0  0  0  0
 16 27  1  0  0  0  0
M  END
> <FRED Chemgauss4 score>
-9.429468

$$$$
C59482774	P130209950
  -OEChem-05122015313D

 31 33  0     0  0  0  0  0  0999 V2000
  117.0051  104.0479  105.6992 C   0  0  0  0  0  0  0  0  0  0  0  0
  117.6876  108.6697  104.2495 C   0  0  0  0  0  0  0  0  0  0  0  0
  117.1737  107.6099  103.5023 C   0  0  0  0  0  0  0  0  0  0  0  0
  118.0489  103.8401  106.6040 C   0  0  0  0  0  0  0  0  0  0  0  0
  118.5902  104.5334  103.9160 C   0  0  0  0  0  0  0  0  0  0  0  0
  115.5999  107.1264  105.2705 C   0  0  0  0  0  0  0  0  0  0  0  0
  117.2742  104.3925  104.3629 C   0  0  0  0  0  0  0  0  0  0  0  0
  117.1577  108.9578  105.5073 C   0  0  0  0  0  0  0  0  0  0  0  0
  116.1298  106.8383  104.0127 C   0  0  0  0  0  0  0  0  0  0  0  0
  119.3392  103.9855  106.1374 C   0  0  0  0  0  0  0  0  0  0  0  0
  119.6026  104.3227  104.8294 C   0  0  0  0  0  0  0  0  0  0  0  0
  116.1138  108.1862  106.0177 C   0  0  0  0  0  0  0  0  0  0  0  0
  116.1714  104.6047  103.4385 C   0  0  0  0  0  0  0  0  0  0  0  0
  121.4840  104.0966  105.8740 C   0  0  0  0  0  0  0  0  0  0  0  0
  117.7430  110.1004  106.2728 C   0  0  0  0  0  0  0  0  0  0  0  0
  115.6129  105.7702  103.2599 N   0  0  0  0  0  0  0  0  0  0  0  0
  120.4756  103.8230  106.8682 O   0  0  0  0  0  0  0  0  0  0  0  0
  120.9369  104.4138  104.5777 O   0  0  0  0  0  0  0  0  0  0  0  0
  115.3593  108.5411  107.7213 Br  0  0  0  0  0  0  0  0  0  0  0  0
  115.9783  103.9399  106.0405 H   0  0  0  0  0  0  0  0  0  0  0  0
  118.5012  109.2643  103.8421 H   0  0  0  0  0  0  0  0  0  0  0  0
  117.5925  107.3924  102.5232 H   0  0  0  0  0  0  0  0  0  0  0  0
  117.8463  103.5746  107.6353 H   0  0  0  0  0  0  0  0  0  0  0  0
  118.8141  104.7987  102.8880 H   0  0  0  0  0  0  0  0  0  0  0  0
  114.7847  106.5201  105.6599 H   0  0  0  0  0  0  0  0  0  0  0  0
  115.8004  103.7215  102.8681 H   0  0  0  0  0  0  0  0  0  0  0  0
  122.0929  104.9420  106.2147 H   0  0  0  0  0  0  0  0  0  0  0  0
  122.1284  103.2153  105.7764 H   0  0  0  0  0  0  0  0  0  0  0  0
  117.2112  111.0282  106.0340 H   0  0  0  0  0  0  0  0  0  0  0  0
  117.6774  109.9269  107.3535 H   0  0  0  0  0  0  0  0  0  0  0  0
  118.8050  110.2334  106.0337 H   0  0  0  0  0  0  0  0  0  0  0  0
  1  4  2  0  0  0  0
  1  7  1  0  0  0  0
  2  3  2  0  0  0  0
  2  8  1  0  0  0  0
  3  9  1  0  0  0  0
  4 10  1  0  0  0  0
  5  7  2  0  0  0  0
  5 11  1  0  0  0  0
  6  9  2  0  0  0  0
  6 12  1  0  0  0  0
  7 13  1  0  0  0  0
  8 12  2  0  0  0  0
  8 15  1  0  0  0  0
  9 16  1  0  0  0  0
 10 11  2  0  0  0  0
 10 17  1  0  0  0  0
 11 18  1  0  0  0  0
 12 19  1  0  0  0  0
 13 16  2  0  0  0  0
 14 17  1  0  0  0  0
 14 18  1  0  0  0  0
  1 20  1  0  0  0  0
  2 21  1  0  0  0  0
  3 22  1  0  0  0  0
  4 23  1  0  0  0  0
  5 24  1  0  0  0  0
  6 25  1  0  0  0  0
 13 26  1  0  0  0  0
 14 27  1  0  0  0  0
 14 28  1  0  0  0  0
 15 29  1  0  0  0  0
 15 30  1  0  0  0  0
 15 31  1  0  0  0  0
M  END
> <FRED Chemgauss4 score>
-9.429255

$$$$
C61808721	P94689477
  -OEChem-05122015313D

 33 33  0     1  0  0  0  0  0999 V2000
  123.4782  107.2737  108.6741 C   0  0  0  0  0  0  0  0  0  0  0  0
  124.0730  104.5522  106.9373 C   0  0  0  0  0  0  0  0  0  0  0  0
  126.3915  108.2245  107.4893 C   0  0  0  0  0  0  0  0  0  0  0  0
  123.2904  109.9144  111.8683 C   0  0  0  0  0  0  0  0  0  0  0  0
  124.0034  109.5127  109.6153 C   0  0  0  0  0  0  0  0  0  0  0  0
  123.2252  108.4080  112.0955 C   0  0  0  0  0  0  0  0  0  0  0  0
  123.9301  108.0142  109.8887 C   0  0  1  0  0  0  0  0  0  0  0  0
  124.1758  106.0270  106.6235 C   0  0  0  0  0  0  0  0  0  0  0  0
  125.8982  106.9471  108.1287 C   0  0  0  0  0  0  0  0  0  0  0  0
  124.2946  110.2453  110.8519 N   0  0  0  0  0  0  0  0  0  0  0  0
  122.8276  104.0397  106.6435 N   0  0  0  0  0  0  0  0  0  0  0  0
  127.4163  108.8063  108.2043 N   0  0  0  0  0  0  0  0  0  0  0  0
  124.4773  106.7688  107.8411 N   0  0  0  0  0  0  0  0  0  0  0  0
  122.2693  107.1431  108.4639 O   0  0  0  0  0  0  0  0  0  0  0  0
  125.0054  103.8753  107.3622 O   0  0  0  0  0  0  0  0  0  0  0  0
  125.9615  108.6708  106.4292 O   0  0  0  0  0  0  0  0  0  0  0  0
  122.9340  107.7331  110.8699 O   0  0  0  0  0  0  0  0  0  0  0  0
  122.3112  110.2867  111.5436 H   0  0  0  0  0  0  0  0  0  0  0  0
  123.5439  110.4195  112.8060 H   0  0  0  0  0  0  0  0  0  0  0  0
  124.7852  109.7220  108.8768 H   0  0  0  0  0  0  0  0  0  0  0  0
  123.0580  109.8790  109.1941 H   0  0  0  0  0  0  0  0  0  0  0  0
  124.1640  108.0211  112.5102 H   0  0  0  0  0  0  0  0  0  0  0  0
  122.4259  108.1707  112.8047 H   0  0  0  0  0  0  0  0  0  0  0  0
  124.8945  107.6031  110.2093 H   0  0  0  0  0  0  0  0  0  0  0  0
  123.2333  106.4069  106.2199 H   0  0  0  0  0  0  0  0  0  0  0  0
  124.9832  106.1925  105.9050 H   0  0  0  0  0  0  0  0  0  0  0  0
  126.0224  106.9806  109.2145 H   0  0  0  0  0  0  0  0  0  0  0  0
  126.4471  106.0961  107.7163 H   0  0  0  0  0  0  0  0  0  0  0  0
  124.2736  111.2475  110.6666 H   0  0  0  0  0  0  0  0  0  0  0  0
  122.0978  104.6311  106.2601 H   0  0  0  0  0  0  0  0  0  0  0  0
  122.5917  103.0641  106.7944 H   0  0  0  0  0  0  0  0  0  0  0  0
  127.7630  108.3816  109.0580 H   0  0  0  0  0  0  0  0  0  0  0  0
  127.8617  109.6701  107.9113 H   0  0  0  0  0  0  0  0  0  0  0  0
  1  7  1  0  0  0  0
  1 13  1  0  0  0  0
  1 14  2  0  0  0  0
  2  8  1  0  0  0  0
  2 11  1  0  0  0  0
  2 15  2  0  0  0  0
  3  9  1  0  0  0  0
  3 12  1  0  0  0  0
  3 16  2  0  0  0  0
  4  6  1  0  0  0  0
  4 10  1  0  0  0  0
  5  7  1  0  0  0  0
  5 10  1  0  0  0  0
  6 17  1  0  0  0  0
  7 17  1  0  0  0  0
  8 13  1  0  0  0  0
  9 13  1  0  0  0  0
  4 18  1  0  0  0  0
  4 19  1  0  0  0  0
  5 20  1  0  0  0  0
  5 21  1  0  0  0  0
  6 22  1  0  0  0  0
  6 23  1  0  0  0  0
  7 24  1  0  0  0  0
  8 25  1  0  0  0  0
  8 26  1  0  0  0  0
  9 27  1  0  0  0  0
  9 28  1  0  0  0  0
 10 29  1  0  0  0  0
 11 30  1  0  0  0  0
 11 31  1  0  0  0  0
 12 32  1  0  0  0  0
 12 33  1  0  0  0  0
M  END
> <FRED Chemgauss4 score>
-9.427370

$$$$
C40509678	P61509681
  -OEChem-05122015313D

 40 42  0     0  0  0  0  0  0999 V2000
  119.3139  106.5826  103.9890 C   0  0  0  0  0  0  0  0  0  0  0  0
  120.4902  107.1613  104.4703 C   0  0  0  0  0  0  0  0  0  0  0  0
  120.4193  105.7617  106.4597 C   0  0  0  0  0  0  0  0  0  0  0  0
  125.0690  104.8221  107.6530 C   0  0  0  0  0  0  0  0  0  0  0  0
  118.7134  105.5907  104.7460 C   0  0  0  0  0  0  0  0  0  0  0  0
  119.2604  105.1847  105.9690 C   0  0  0  0  0  0  0  0  0  0  0  0
  125.3134  106.1908  107.6368 C   0  0  0  0  0  0  0  0  0  0  0  0
  124.3501  107.0575  107.1325 C   0  0  0  0  0  0  0  0  0  0  0  0
  121.0390  106.7537  105.6966 C   0  0  0  0  0  0  0  0  0  0  0  0
  123.8551  104.3742  107.1573 C   0  0  0  0  0  0  0  0  0  0  0  0
  123.1685  106.5094  106.6599 C   0  0  0  0  0  0  0  0  0  0  0  0
  117.4415  104.8565  104.4612 C   0  0  0  0  0  0  0  0  0  0  0  0
  118.4041  104.1423  106.6159 C   0  0  0  0  0  0  0  0  0  0  0  0
  117.5654  103.6636  105.4213 C   0  0  0  0  0  0  0  0  0  0  0  0
  126.6123  106.7045  108.1635 C   0  0  0  0  0  0  0  0  0  0  0  0
  123.5586  102.9117  107.1583 C   0  0  0  0  0  0  0  0  0  0  0  0
  124.5811  108.5308  107.0995 C   0  0  0  0  0  0  0  0  0  0  0  0
  122.8952  105.1854  106.6594 N   0  0  0  0  0  0  0  0  0  0  0  0
  124.8826  109.0082  105.7739 N   0  0  0  0  0  0  0  0  0  0  0  0
  122.1839  107.3375  106.1495 O   0  0  0  0  0  0  0  0  0  0  0  0
  118.8858  106.9069  103.0466 H   0  0  0  0  0  0  0  0  0  0  0  0
  120.9794  107.9391  103.8892 H   0  0  0  0  0  0  0  0  0  0  0  0
  120.8339  105.4520  107.4136 H   0  0  0  0  0  0  0  0  0  0  0  0
  125.8067  104.1274  108.0415 H   0  0  0  0  0  0  0  0  0  0  0  0
  116.5797  105.4819  104.7160 H   0  0  0  0  0  0  0  0  0  0  0  0
  117.3707  104.5255  103.4214 H   0  0  0  0  0  0  0  0  0  0  0  0
  118.9904  103.3252  107.0454 H   0  0  0  0  0  0  0  0  0  0  0  0
  117.7738  104.5981  107.3863 H   0  0  0  0  0  0  0  0  0  0  0  0
  116.5908  103.2699  105.7264 H   0  0  0  0  0  0  0  0  0  0  0  0
  118.0983  102.8476  104.9132 H   0  0  0  0  0  0  0  0  0  0  0  0
  127.3571  106.7505  107.3602 H   0  0  0  0  0  0  0  0  0  0  0  0
  126.4981  107.7083  108.5915 H   0  0  0  0  0  0  0  0  0  0  0  0
  126.9997  106.0596  108.9623 H   0  0  0  0  0  0  0  0  0  0  0  0
  123.0688  102.6228  108.0959 H   0  0  0  0  0  0  0  0  0  0  0  0
  122.9012  102.6387  106.3230 H   0  0  0  0  0  0  0  0  0  0  0  0
  124.4763  102.3199  107.0475 H   0  0  0  0  0  0  0  0  0  0  0  0
  123.6967  109.0781  107.4543 H   0  0  0  0  0  0  0  0  0  0  0  0
  125.4167  108.8220  107.7505 H   0  0  0  0  0  0  0  0  0  0  0  0
  125.4226  109.8507  105.6692 H   0  0  0  0  0  0  0  0  0  0  0  0
  124.3870  108.6180  104.9898 H   0  0  0  0  0  0  0  0  0  0  0  0
  1  2  2  0  0  0  0
  1  5  1  0  0  0  0
  2  9  1  0  0  0  0
  3  6  1  0  0  0  0
  3  9  2  0  0  0  0
  4  7  1  0  0  0  0
  4 10  2  0  0  0  0
  5  6  2  0  0  0  0
  5 12  1  0  0  0  0
  6 13  1  0  0  0  0
  7  8  2  0  0  0  0
  7 15  1  0  0  0  0
  8 11  1  0  0  0  0
  8 17  1  0  0  0  0
  9 20  1  0  0  0  0
 10 16  1  0  0  0  0
 10 18  1  0  0  0  0
 11 18  2  0  0  0  0
 11 20  1  0  0  0  0
 12 14  1  0  0  0  0
 13 14  1  0  0  0  0
 17 19  1  0  0  0  0
  1 21  1  0  0  0  0
  2 22  1  0  0  0  0
  3 23  1  0  0  0  0
  4 24  1  0  0  0  0
 12 25  1  0  0  0  0
 12 26  1  0  0  0  0
 13 27  1  0  0  0  0
 13 28  1  0  0  0  0
 14 29  1  0  0  0  0
 14 30  1  0  0  0  0
 15 31  1  0  0  0  0
 15 32  1  0  0  0  0
 15 33  1  0  0  0  0
 16 34  1  0  0  0  0
 16 35  1  0  0  0  0
 16 36  1  0  0  0  0
 17 37  1  0  0  0  0
 17 38  1  0  0  0  0
 19 39  1  0  0  0  0
 19 40  1  0  0  0  0
M  END
> <FRED Chemgauss4 score>
-9.422902

$$$$
C54700285	P82325531
  -OEChem-05122015313D

 27 29  0     1  0  0  0  0  0999 V2000
  116.0262  103.9125  104.8081 C   0  0  0  0  0  0  0  0  0  0  0  0
  117.0898  103.7930  105.7488 C   0  0  0  0  0  0  0  0  0  0  0  0
  116.4702  104.3422  103.5769 C   0  0  0  0  0  0  0  0  0  0  0  0
  118.3063  104.1358  105.2005 C   0  0  0  0  0  0  0  0  0  0  0  0
  119.5857  104.1104  105.9326 C   0  0  0  0  0  0  0  0  0  0  0  0
  121.3712  104.7750  106.7856 C   0  0  0  0  0  0  0  0  0  0  0  0
  124.8165  104.2554  107.5780 C   0  0  0  0  0  0  0  0  0  0  0  0
  125.1793  105.6657  107.2050 C   0  0  0  0  0  0  0  0  0  0  0  0
  123.8823  105.0721  106.7288 C   0  0  0  0  0  0  0  0  0  0  0  0
  122.5877  105.5524  107.2872 C   0  0  1  0  0  0  0  0  0  0  0  0
  120.3495  105.2302  106.0983 N   0  0  0  0  0  0  0  0  0  0  0  0
  120.0706  102.9910  106.4742 N   0  0  0  0  0  0  0  0  0  0  0  0
  121.2129  103.4435  107.0133 N   0  0  0  0  0  0  0  0  0  0  0  0
  122.3987  106.9789  107.0473 N   0  0  0  0  0  0  0  0  0  0  0  0
  118.1630  104.5995  103.5583 S   0  0  0  0  0  0  0  0  0  0  0  0
  114.9885  103.6937  105.0237 H   0  0  0  0  0  0  0  0  0  0  0  0
  116.9601  103.4708  106.7748 H   0  0  0  0  0  0  0  0  0  0  0  0
  115.8818  104.5168  102.6872 H   0  0  0  0  0  0  0  0  0  0  0  0
  125.3737  103.4523  107.1117 H   0  0  0  0  0  0  0  0  0  0  0  0
  124.5273  104.0640  108.6041 H   0  0  0  0  0  0  0  0  0  0  0  0
  125.1336  106.4197  107.9811 H   0  0  0  0  0  0  0  0  0  0  0  0
  125.9792  105.8068  106.4887 H   0  0  0  0  0  0  0  0  0  0  0  0
  123.8023  104.8153  105.6794 H   0  0  0  0  0  0  0  0  0  0  0  0
  122.6045  105.4664  108.3928 H   0  0  0  0  0  0  0  0  0  0  0  0
  121.8163  102.7983  107.5097 H   0  0  0  0  0  0  0  0  0  0  0  0
  123.2022  107.5700  107.0670 H   0  0  0  0  0  0  0  0  0  0  0  0
  121.4697  107.3417  107.0754 H   0  0  0  0  0  0  0  0  0  0  0  0
  1  2  1  0  0  0  0
  1  3  2  0  0  0  0
  2  4  2  0  0  0  0
  3 15  1  0  0  0  0
  4  5  1  0  0  0  0
  4 15  1  0  0  0  0
  5 11  1  0  0  0  0
  5 12  2  0  0  0  0
  6 10  1  0  0  0  0
  6 11  2  0  0  0  0
  6 13  1  0  0  0  0
  7  8  1  0  0  0  0
  7  9  1  0  0  0  0
  8  9  1  0  0  0  0
  9 10  1  0  0  0  0
 10 14  1  0  0  0  0
 12 13  1  0  0  0  0
  1 16  1  0  0  0  0
  2 17  1  0  0  0  0
  3 18  1  0  0  0  0
  7 19  1  0  0  0  0
  7 20  1  0  0  0  0
  8 21  1  0  0  0  0
  8 22  1  0  0  0  0
  9 23  1  0  0  0  0
 10 24  1  0  0  0  0
 13 25  1  0  0  0  0
 14 26  1  0  0  0  0
 14 27  1  0  0  0  0
M  END
> <FRED Chemgauss4 score>
-9.421268

$$$$
C83824098	P131129758
  -OEChem-05122015313D

 22 22  0     0  0  0  0  0  0999 V2000
  127.4081  107.1263  107.5905 C   0  0  0  0  0  0  0  0  0  0  0  0
  125.4161  107.1022  106.9674 C   0  0  0  0  0  0  0  0  0  0  0  0
  124.1396  106.9631  106.2202 C   0  0  0  0  0  0  0  0  0  0  0  0
  121.4054  104.4393  106.4050 C   0  0  0  0  0  0  0  0  0  0  0  0
  122.2681  105.4387  105.6458 C   0  0  0  0  0  0  0  0  0  0  0  0
  120.1087  104.1057  105.6773 C   0  0  0  0  0  0  0  0  0  0  0  0
  126.6180  106.8240  106.5186 N   0  0  0  0  0  0  0  0  0  0  0  0
  125.4983  107.5491  108.2493 N   0  0  0  0  0  0  0  0  0  0  0  0
  126.7707  107.5740  108.6743 N   0  0  0  0  0  0  0  0  0  0  0  0
  123.4980  105.7348  106.3285 N   0  0  0  0  0  0  0  0  0  0  0  0
  123.7336  107.9055  105.5452 O   0  0  0  0  0  0  0  0  0  0  0  0
  119.3662  103.1843  106.4650 O   0  0  0  0  0  0  0  0  0  0  0  0
  128.4836  107.0111  107.5652 H   0  0  0  0  0  0  0  0  0  0  0  0
  121.9743  103.5140  106.5596 H   0  0  0  0  0  0  0  0  0  0  0  0
  121.1720  104.8187  107.4079 H   0  0  0  0  0  0  0  0  0  0  0  0
  122.5371  105.0346  104.6650 H   0  0  0  0  0  0  0  0  0  0  0  0
  121.7349  106.3824  105.4926 H   0  0  0  0  0  0  0  0  0  0  0  0
  119.4970  105.0005  105.5259 H   0  0  0  0  0  0  0  0  0  0  0  0
  120.3143  103.6453  104.7057 H   0  0  0  0  0  0  0  0  0  0  0  0
  127.0383  107.8757  109.6071 H   0  0  0  0  0  0  0  0  0  0  0  0
  123.9332  104.9824  106.8590 H   0  0  0  0  0  0  0  0  0  0  0  0
  118.5496  102.9927  105.9763 H   0  0  0  0  0  0  0  0  0  0  0  0
  1  7  2  0  0  0  0
  1  9  1  0  0  0  0
  2  3  1  0  0  0  0
  2  7  1  0  0  0  0
  2  8  2  0  0  0  0
  3 10  1  0  0  0  0
  3 11  2  0  0  0  0
  4  5  1  0  0  0  0
  4  6  1  0  0  0  0
  5 10  1  0  0  0  0
  6 12  1  0  0  0  0
  8  9  1  0  0  0  0
  1 13  1  0  0  0  0
  4 14  1  0  0  0  0
  4 15  1  0  0  0  0
  5 16  1  0  0  0  0
  5 17  1  0  0  0  0
  6 18  1  0  0  0  0
  6 19  1  0  0  0  0
  9 20  1  0  0  0  0
 10 21  1  0  0  0  0
 12 22  1  0  0  0  0
M  END
> <FRED Chemgauss4 score>
-9.418237

$$$$
C71215192	P109951876
  -OEChem-05122015313D

 34 35  0     0  0  0  0  0  0999 V2000
  120.4714  107.6413  107.1873 C   0  0  0  0  0  0  0  0  0  0  0  0
  121.7441  108.0238  107.5197 C   0  0  0  0  0  0  0  0  0  0  0  0
  122.2055  108.3453  108.8795 C   0  0  0  0  0  0  0  0  0  0  0  0
  125.2215  108.6319  107.5235 C   0  0  0  0  0  0  0  0  0  0  0  0
  123.2717  107.6162  111.6015 C   0  0  0  0  0  0  0  0  0  0  0  0
  123.8854  109.9351  110.8101 C   0  0  0  0  0  0  0  0  0  0  0  0
  123.6936  107.9979  113.0133 C   0  0  0  0  0  0  0  0  0  0  0  0
  124.3021  110.2974  112.2287 C   0  0  0  0  0  0  0  0  0  0  0  0
  124.0356  108.4312  110.5511 C   0  0  0  0  0  0  0  0  0  0  0  0
  124.5333  107.5268  108.2910 C   0  0  0  0  0  0  0  0  0  0  0  0
  121.6585  107.6901  105.4081 N   0  5  0  0  0  0  0  0  0  0  0  0
  120.3995  107.4268  105.8621 N   0  0  0  0  0  0  0  0  0  0  0  0
  122.5050  108.0600  106.4120 N   0  0  0  0  0  0  0  0  0  0  0  0
  126.3441  109.0996  108.1723 N   0  0  0  0  0  0  0  0  0  0  0  0
  123.5487  108.1034  109.2127 N   0  0  0  0  0  0  0  0  0  0  0  0
  123.5222  109.4701  113.1971 N   0  3  0  0  0  0  0  0  0  0  0  0
  121.3662  108.8269  109.6396 O   0  0  0  0  0  0  0  0  0  0  0  0
  124.8512  109.0369  106.4250 O   0  0  0  0  0  0  0  0  0  0  0  0
  119.6218  107.5162  107.8455 H   0  0  0  0  0  0  0  0  0  0  0  0
  123.4452  106.5446  111.4452 H   0  0  0  0  0  0  0  0  0  0  0  0
  122.1916  107.7755  111.4837 H   0  0  0  0  0  0  0  0  0  0  0  0
  122.8440  110.2403  110.6419 H   0  0  0  0  0  0  0  0  0  0  0  0
  124.4932  110.5023  110.0947 H   0  0  0  0  0  0  0  0  0  0  0  0
  123.0696  107.5069  113.7656 H   0  0  0  0  0  0  0  0  0  0  0  0
  124.7457  107.7646  113.2069 H   0  0  0  0  0  0  0  0  0  0  0  0
  125.3635  110.0997  112.4104 H   0  0  0  0  0  0  0  0  0  0  0  0
  124.0842  111.3450  112.4555 H   0  0  0  0  0  0  0  0  0  0  0  0
  125.0870  108.1572  110.5640 H   0  0  0  0  0  0  0  0  0  0  0  0
  125.2538  106.9533  108.8804 H   0  0  0  0  0  0  0  0  0  0  0  0
  124.0124  106.8661  107.5927 H   0  0  0  0  0  0  0  0  0  0  0  0
  126.6318  108.7093  109.0636 H   0  0  0  0  0  0  0  0  0  0  0  0
  126.9226  109.8417  107.7917 H   0  0  0  0  0  0  0  0  0  0  0  0
  122.5234  109.7103  113.1264 H   0  0  0  0  0  0  0  0  0  0  0  0
  123.8002  109.7235  114.1551 H   0  0  0  0  0  0  0  0  0  0  0  0
  1  2  1  0  0  0  0
  1 12  2  0  0  0  0
  2  3  1  0  0  0  0
  2 13  2  0  0  0  0
  3 15  1  0  0  0  0
  3 17  2  0  0  0  0
  4 10  1  0  0  0  0
  4 14  1  0  0  0  0
  4 18  2  0  0  0  0
  5  7  1  0  0  0  0
  5  9  1  0  0  0  0
  6  8  1  0  0  0  0
  6  9  1  0  0  0  0
  7 16  1  0  0  0  0
  8 16  1  0  0  0  0
  9 15  1  0  0  0  0
 10 15  1  0  0  0  0
 11 12  1  0  0  0  0
 11 13  1  0  0  0  0
  1 19  1  0  0  0  0
  5 20  1  0  0  0  0
  5 21  1  0  0  0  0
  6 22  1  0  0  0  0
  6 23  1  0  0  0  0
  7 24  1  0  0  0  0
  7 25  1  0  0  0  0
  8 26  1  0  0  0  0
  8 27  1  0  0  0  0
  9 28  1  0  0  0  0
 10 29  1  0  0  0  0
 10 30  1  0  0  0  0
 14 31  1  0  0  0  0
 14 32  1  0  0  0  0
 16 33  1  0  0  0  0
 16 34  1  0  0  0  0
M  CHG  2  11  -1  16   1
M  END
> <FRED Chemgauss4 score>
-9.415304

$$$$
C04403147	P153350511
  -OEChem-05122015313D

 30 30  0     1  0  0  0  0  0999 V2000
  126.0308  106.6712  107.4853 C   0  0  0  0  0  0  0  0  0  0  0  0
  126.4856  108.0846  107.7444 C   0  0  2  0  0  0  0  0  0  0  0  0
  125.2470  108.6969  108.3655 C   0  0  2  0  0  0  0  0  0  0  0  0
  124.7144  107.5200  109.1673 C   0  0  1  0  0  0  0  0  0  0  0  0
  123.0911  110.5425  112.0260 C   0  0  0  0  0  0  0  0  0  0  0  0
  123.2223  107.5484  109.4692 C   0  0  2  0  0  0  0  0  0  0  0  0
  123.5706  109.7240  110.8279 C   0  0  1  0  0  0  0  0  0  0  0  0
  122.8485  108.3728  110.7132 C   0  0  1  0  0  0  0  0  0  0  0  0
  126.4895  105.9057  106.6530 O   0  0  0  0  0  0  0  0  0  0  0  0
  125.0104  106.3694  108.3509 O   0  0  0  0  0  0  0  0  0  0  0  0
  126.9094  108.7611  106.5919 O   0  0  0  0  0  0  0  0  0  0  0  0
  124.3398  109.0819  107.3372 O   0  0  0  0  0  0  0  0  0  0  0  0
  123.3634  109.8124  113.2182 O   0  0  0  0  0  0  0  0  0  0  0  0
  122.7886  106.2000  109.6764 O   0  0  0  0  0  0  0  0  0  0  0  0
  123.3357  110.4802  109.6385 O   0  0  0  0  0  0  0  0  0  0  0  0
  121.4378  108.6186  110.6682 O   0  0  0  0  0  0  0  0  0  0  0  0
  127.3061  108.0462  108.4706 H   0  0  0  0  0  0  0  0  0  0  0  0
  125.4678  109.5787  108.9743 H   0  0  0  0  0  0  0  0  0  0  0  0
  125.2757  107.4043  110.1028 H   0  0  0  0  0  0  0  0  0  0  0  0
  123.6198  111.4988  112.0856 H   0  0  0  0  0  0  0  0  0  0  0  0
  122.0116  110.7193  111.9853 H   0  0  0  0  0  0  0  0  0  0  0  0
  122.6744  107.9120  108.5929 H   0  0  0  0  0  0  0  0  0  0  0  0
  124.6528  109.5692  110.9014 H   0  0  0  0  0  0  0  0  0  0  0  0
  123.0316  107.7850  111.6211 H   0  0  0  0  0  0  0  0  0  0  0  0
  127.6593  108.2642  106.2118 H   0  0  0  0  0  0  0  0  0  0  0  0
  123.5667  109.4664  107.7793 H   0  0  0  0  0  0  0  0  0  0  0  0
  123.0480  110.3581  113.9555 H   0  0  0  0  0  0  0  0  0  0  0  0
  121.8405  106.2475  109.8657 H   0  0  0  0  0  0  0  0  0  0  0  0
  123.8423  111.3006  109.7326 H   0  0  0  0  0  0  0  0  0  0  0  0
  121.0132  107.7491  110.6712 H   0  0  0  0  0  0  0  0  0  0  0  0
  1  2  1  0  0  0  0
  1  9  2  0  0  0  0
  1 10  1  0  0  0  0
  2  3  1  0  0  0  0
  2 11  1  0  0  0  0
  3  4  1  0  0  0  0
  3 12  1  0  0  0  0
  4  6  1  0  0  0  0
  4 10  1  0  0  0  0
  5  7  1  0  0  0  0
  5 13  1  0  0  0  0
  6  8  1  0  0  0  0
  6 14  1  0  0  0  0
  7  8  1  0  0  0  0
  7 15  1  0  0  0  0
  8 16  1  0  0  0  0
  2 17  1  0  0  0  0
  3 18  1  0  0  0  0
  4 19  1  0  0  0  0
  5 20  1  0  0  0  0
  5 21  1  0  0  0  0
  6 22  1  0  0  0  0
  7 23  1  0  0  0  0
  8 24  1  0  0  0  0
 11 25  1  0  0  0  0
 12 26  1  0  0  0  0
 13 27  1  0  0  0  0
 14 28  1  0  0  0  0
 15 29  1  0  0  0  0
 16 30  1  0  0  0  0
M  END
> <FRED Chemgauss4 score>
-9.414827

$$$$
C83500168	P130624190
  -OEChem-05122015313D

 32 32  0     1  0  0  0  0  0999 V2000
  123.8168  109.0445  110.6636 C   0  0  0  0  0  0  0  0  0  0  0  0
  124.2880  110.6858  111.8641 C   0  0  0  0  0  0  0  0  0  0  0  0
  125.3354  104.2181  108.6766 C   0  0  0  0  0  0  0  0  0  0  0  0
  123.6508  112.3764  113.6327 C   0  0  0  0  0  0  0  0  0  0  0  0
  123.3740  106.7784  106.4809 C   0  0  0  0  0  0  0  0  0  0  0  0
  123.4236  108.2465  109.4511 C   0  0  0  0  0  0  0  0  0  0  0  0
  124.7720  104.9137  107.4433 C   0  0  0  0  0  0  0  0  0  0  0  0
  124.5670  112.0086  112.4459 C   0  0  2  0  0  0  0  0  0  0  0  0
  123.9057  106.1411  107.7626 C   0  0  1  0  0  0  0  0  0  0  0  0
  123.9390  110.4042  110.6303 N   0  0  0  0  0  0  0  0  0  0  0  0
  124.0682  108.4672  111.8404 N   0  0  0  0  0  0  0  0  0  0  0  0
  124.3671  109.5387  112.5906 N   0  0  0  0  0  0  0  0  0  0  0  0
  124.5150  113.0837  111.4586 N   0  0  0  0  0  0  0  0  0  0  0  0
  124.8347  107.4048  108.7025 S   0  0  0  0  0  0  0  0  0  0  0  0
  125.9055  104.9058  109.3077 H   0  0  0  0  0  0  0  0  0  0  0  0
  124.5184  103.8146  109.2838 H   0  0  0  0  0  0  0  0  0  0  0  0
  125.9874  103.3855  108.3934 H   0  0  0  0  0  0  0  0  0  0  0  0
  122.5997  112.3443  113.3256 H   0  0  0  0  0  0  0  0  0  0  0  0
  123.7788  111.6896  114.4769 H   0  0  0  0  0  0  0  0  0  0  0  0
  123.8638  113.3853  114.0037 H   0  0  0  0  0  0  0  0  0  0  0  0
  124.2042  107.0959  105.8402 H   0  0  0  0  0  0  0  0  0  0  0  0
  122.7726  107.6688  106.6962 H   0  0  0  0  0  0  0  0  0  0  0  0
  122.7605  106.0791  105.9017 H   0  0  0  0  0  0  0  0  0  0  0  0
  122.6668  107.5002  109.7172 H   0  0  0  0  0  0  0  0  0  0  0  0
  122.9661  108.9014  108.7013 H   0  0  0  0  0  0  0  0  0  0  0  0
  124.2097  104.1886  106.8417 H   0  0  0  0  0  0  0  0  0  0  0  0
  125.6209  105.2333  106.8253 H   0  0  0  0  0  0  0  0  0  0  0  0
  125.6059  112.0640  112.8367 H   0  0  0  0  0  0  0  0  0  0  0  0
  123.0542  105.8349  108.3805 H   0  0  0  0  0  0  0  0  0  0  0  0
  124.6090  109.4083  113.5659 H   0  0  0  0  0  0  0  0  0  0  0  0
  124.8591  112.8957  110.5422 H   0  0  0  0  0  0  0  0  0  0  0  0
  124.3332  114.0089  111.7823 H   0  0  0  0  0  0  0  0  0  0  0  0
  1  6  1  0  0  0  0
  1 10  1  0  0  0  0
  1 11  2  0  0  0  0
  2  8  1  0  0  0  0
  2 10  2  0  0  0  0
  2 12  1  0  0  0  0
  3  7  1  0  0  0  0
  4  8  1  0  0  0  0
  5  9  1  0  0  0  0
  6 14  1  0  0  0  0
  7  9  1  0  0  0  0
  8 13  1  0  0  0  0
  9 14  1  0  0  0  0
 11 12  1  0  0  0  0
  3 15  1  0  0  0  0
  3 16  1  0  0  0  0
  3 17  1  0  0  0  0
  4 18  1  0  0  0  0
  4 19  1  0  0  0  0
  4 20  1  0  0  0  0
  5 21  1  0  0  0  0
  5 22  1  0  0  0  0
  5 23  1  0  0  0  0
  6 24  1  0  0  0  0
  6 25  1  0  0  0  0
  7 26  1  0  0  0  0
  7 27  1  0  0  0  0
  8 28  1  0  0  0  0
  9 29  1  0  0  0  0
 12 30  1  0  0  0  0
 13 31  1  0  0  0  0
 13 32  1  0  0  0  0
M  END
> <FRED Chemgauss4 score>
-9.414506

$$$$
C88984598	P139179454
  -OEChem-05122015313D

 33 34  0     1  0  0  0  0  0999 V2000
  125.7379  105.1205  107.1057 C   0  0  0  0  0  0  0  0  0  0  0  0
  124.9858  103.9777  106.9445 C   0  0  0  0  0  0  0  0  0  0  0  0
  124.9305  106.2943  107.1250 C   0  0  0  0  0  0  0  0  0  0  0  0
  123.5919  106.0039  106.9777 C   0  0  0  0  0  0  0  0  0  0  0  0
  122.0096  110.6638  110.8869 C   0  0  0  0  0  0  0  0  0  0  0  0
  122.2142  109.3351  110.2035 C   0  0  0  0  0  0  0  0  0  0  0  0
  123.2846  110.8013  111.6917 C   0  0  0  0  0  0  0  0  0  0  0  0
  123.6999  109.3812  109.8909 C   0  0  2  0  0  0  0  0  0  0  0  0
  122.4363  106.9287  106.9439 C   0  0  0  0  0  0  0  0  0  0  0  0
  124.3354  108.0099  109.7694 C   0  0  0  0  0  0  0  0  0  0  0  0
  121.9119  107.1194  105.6108 N   0  0  0  0  0  0  0  0  0  0  0  0
  125.5567  108.0960  109.0348 N   0  0  0  0  0  0  0  0  0  0  0  0
  126.9717  107.9021  106.8830 O   0  0  0  0  0  0  0  0  0  0  0  0
  124.6439  108.8363  106.7014 O   0  0  0  0  0  0  0  0  0  0  0  0
  124.3132  110.1097  110.9678 O   0  0  0  0  0  0  0  0  0  0  0  0
  123.3132  104.3220  106.8173 S   0  0  0  0  0  0  0  0  0  0  0  0
  125.5880  107.9238  107.3176 S   0  0  0  0  0  0  0  0  0  0  0  0
  126.8159  105.1085  107.2051 H   0  0  0  0  0  0  0  0  0  0  0  0
  125.3384  102.9573  106.8957 H   0  0  0  0  0  0  0  0  0  0  0  0
  121.9517  111.4624  110.1379 H   0  0  0  0  0  0  0  0  0  0  0  0
  121.1084  110.7080  111.5038 H   0  0  0  0  0  0  0  0  0  0  0  0
  121.9835  108.5225  110.9032 H   0  0  0  0  0  0  0  0  0  0  0  0
  121.5956  109.2056  109.3112 H   0  0  0  0  0  0  0  0  0  0  0  0
  123.5764  111.8446  111.8410 H   0  0  0  0  0  0  0  0  0  0  0  0
  123.1879  110.3218  112.6716 H   0  0  0  0  0  0  0  0  0  0  0  0
  123.8764  109.9529  108.9719 H   0  0  0  0  0  0  0  0  0  0  0  0
  121.6036  106.5626  107.5678 H   0  0  0  0  0  0  0  0  0  0  0  0
  122.6947  107.9284  107.3312 H   0  0  0  0  0  0  0  0  0  0  0  0
  123.6558  107.3456  109.2449 H   0  0  0  0  0  0  0  0  0  0  0  0
  124.5480  107.6198  110.7595 H   0  0  0  0  0  0  0  0  0  0  0  0
  121.4323  107.9753  105.3970 H   0  0  0  0  0  0  0  0  0  0  0  0
  121.8553  106.3281  104.9951 H   0  0  0  0  0  0  0  0  0  0  0  0
  126.3447  108.6443  109.4514 H   0  0  0  0  0  0  0  0  0  0  0  0
  1  2  2  0  0  0  0
  1  3  1  0  0  0  0
  2 16  1  0  0  0  0
  3  4  2  0  0  0  0
  3 17  1  0  0  0  0
  4  9  1  0  0  0  0
  4 16  1  0  0  0  0
  5  6  1  0  0  0  0
  5  7  1  0  0  0  0
  6  8  1  0  0  0  0
  7 15  1  0  0  0  0
  8 10  1  0  0  0  0
  8 15  1  0  0  0  0
  9 11  1  0  0  0  0
 10 12  1  0  0  0  0
 12 17  1  0  0  0  0
 13 17  2  0  0  0  0
 14 17  2  0  0  0  0
  1 18  1  0  0  0  0
  2 19  1  0  0  0  0
  5 20  1  0  0  0  0
  5 21  1  0  0  0  0
  6 22  1  0  0  0  0
  6 23  1  0  0  0  0
  7 24  1  0  0  0  0
  7 25  1  0  0  0  0
  8 26  1  0  0  0  0
  9 27  1  0  0  0  0
  9 28  1  0  0  0  0
 10 29  1  0  0  0  0
 10 30  1  0  0  0  0
 11 31  1  0  0  0  0
 11 32  1  0  0  0  0
 12 33  1  0  0  0  0
M  END
> <FRED Chemgauss4 score>
-9.410206

$$$$
C54897756	P82660573
  -OEChem-05122015313D

 37 38  0     1  0  0  0  0  0999 V2000
  117.7615  106.2289  104.8575 C   0  0  0  0  0  0  0  0  0  0  0  0
  119.5746  105.8323  106.4040 C   0  0  0  0  0  0  0  0  0  0  0  0
  119.1548  108.0650  105.5818 C   0  0  0  0  0  0  0  0  0  0  0  0
  124.3334  106.9032  106.1907 C   0  0  0  0  0  0  0  0  0  0  0  0
  118.5058  105.3525  105.6470 C   0  0  0  0  0  0  0  0  0  0  0  0
  118.0860  107.5852  104.8248 C   0  0  0  0  0  0  0  0  0  0  0  0
  119.8991  107.1885  106.3714 C   0  0  0  0  0  0  0  0  0  0  0  0
  124.5528  106.4210  107.4641 C   0  0  0  0  0  0  0  0  0  0  0  0
  122.3413  107.2717  107.0307 C   0  0  0  0  0  0  0  0  0  0  0  0
  118.1588  103.9025  105.6818 C   0  0  0  0  0  0  0  0  0  0  0  0
  117.2901  108.5222  103.9805 C   0  0  0  0  0  0  0  0  0  0  0  0
  125.5890  104.3843  108.5459 C   0  0  0  0  0  0  0  0  0  0  0  0
  120.6071  108.4802  108.3100 C   0  0  0  0  0  0  0  0  0  0  0  0
  125.7712  105.8350  108.0554 C   0  0  2  0  0  0  0  0  0  0  0  0
  123.0657  107.3911  105.9403 N   0  0  0  0  0  0  0  0  0  0  0  0
  126.3110  106.6412  109.1453 N   0  0  0  0  0  0  0  0  0  0  0  0
  120.9799  107.6736  107.1369 N   0  0  0  0  0  0  0  0  0  0  0  0
  123.1212  106.5816  108.3947 S   0  0  0  0  0  0  0  0  0  0  0  0
  116.9281  105.8549  104.2673 H   0  0  0  0  0  0  0  0  0  0  0  0
  120.1540  105.1474  107.0192 H   0  0  0  0  0  0  0  0  0  0  0  0
  119.4064  109.1229  105.5552 H   0  0  0  0  0  0  0  0  0  0  0  0
  125.0684  106.9202  105.3969 H   0  0  0  0  0  0  0  0  0  0  0  0
  118.7060  103.3600  104.9011 H   0  0  0  0  0  0  0  0  0  0  0  0
  118.4064  103.4567  106.6539 H   0  0  0  0  0  0  0  0  0  0  0  0
  117.0834  103.7463  105.5255 H   0  0  0  0  0  0  0  0  0  0  0  0
  116.4502  108.9333  104.5539 H   0  0  0  0  0  0  0  0  0  0  0  0
  117.9068  109.3559  103.6205 H   0  0  0  0  0  0  0  0  0  0  0  0
  116.8903  108.0161  103.0920 H   0  0  0  0  0  0  0  0  0  0  0  0
  124.7832  104.3303  109.2860 H   0  0  0  0  0  0  0  0  0  0  0  0
  125.3402  103.7046  107.7231 H   0  0  0  0  0  0  0  0  0  0  0  0
  126.5035  104.0021  109.0134 H   0  0  0  0  0  0  0  0  0  0  0  0
  120.4856  107.8365  109.1852 H   0  0  0  0  0  0  0  0  0  0  0  0
  119.6654  109.0039  108.1249 H   0  0  0  0  0  0  0  0  0  0  0  0
  121.3837  109.2199  108.5223 H   0  0  0  0  0  0  0  0  0  0  0  0
  126.5978  105.8060  107.3151 H   0  0  0  0  0  0  0  0  0  0  0  0
  126.2591  107.6341  109.0660 H   0  0  0  0  0  0  0  0  0  0  0  0
  126.8867  106.1897  109.8234 H   0  0  0  0  0  0  0  0  0  0  0  0
  1  5  2  0  0  0  0
  1  6  1  0  0  0  0
  2  5  1  0  0  0  0
  2  7  2  0  0  0  0
  3  6  2  0  0  0  0
  3  7  1  0  0  0  0
  4  8  2  0  0  0  0
  4 15  1  0  0  0  0
  5 10  1  0  0  0  0
  6 11  1  0  0  0  0
  7 17  1  0  0  0  0
  8 14  1  0  0  0  0
  8 18  1  0  0  0  0
  9 15  2  0  0  0  0
  9 17  1  0  0  0  0
  9 18  1  0  0  0  0
 12 14  1  0  0  0  0
 13 17  1  0  0  0  0
 14 16  1  0  0  0  0
  1 19  1  0  0  0  0
  2 20  1  0  0  0  0
  3 21  1  0  0  0  0
  4 22  1  0  0  0  0
 10 23  1  0  0  0  0
 10 24  1  0  0  0  0
 10 25  1  0  0  0  0
 11 26  1  0  0  0  0
 11 27  1  0  0  0  0
 11 28  1  0  0  0  0
 12 29  1  0  0  0  0
 12 30  1  0  0  0  0
 12 31  1  0  0  0  0
 13 32  1  0  0  0  0
 13 33  1  0  0  0  0
 13 34  1  0  0  0  0
 14 35  1  0  0  0  0
 16 36  1  0  0  0  0
 16 37  1  0  0  0  0
M  END
> <FRED Chemgauss4 score>
-9.409309

$$$$
C36877036	P54824324
  -OEChem-05122015313D

 30 31  0     1  0  0  0  0  0999 V2000
  125.5089  104.3802  108.2894 C   0  0  0  0  0  0  0  0  0  0  0  0
  125.5273  105.6042  108.9998 C   0  0  0  0  0  0  0  0  0  0  0  0
  124.7778  108.8959  108.3530 C   0  0  0  0  0  0  0  0  0  0  0  0
  124.5178  104.5023  107.3435 C   0  0  0  0  0  0  0  0  0  0  0  0
  124.2076  107.7524  108.8606 C   0  0  0  0  0  0  0  0  0  0  0  0
  124.5462  106.3872  108.4372 C   0  0  0  0  0  0  0  0  0  0  0  0
  123.2794  109.3609  109.9005 C   0  0  0  0  0  0  0  0  0  0  0  0
  122.3593  111.9882  112.6612 C   0  0  0  0  0  0  0  0  0  0  0  0
  124.2033  110.3077  112.6401 C   0  0  0  0  0  0  0  0  0  0  0  0
  122.4290  110.2214  110.8180 C   0  0  1  0  0  0  0  0  0  0  0  0
  123.2577  111.1344  111.7572 C   0  0  0  0  0  0  0  0  0  0  0  0
  123.2754  108.0487  109.8233 N   0  0  0  0  0  0  0  0  0  0  0  0
  124.1729  109.9181  109.0284 N   0  0  0  0  0  0  0  0  0  0  0  0
  121.5237  110.9862  109.9873 N   0  0  0  0  0  0  0  0  0  0  0  0
  123.9261  105.7228  107.4269 O   0  0  0  0  0  0  0  0  0  0  0  0
  126.1394  103.5171  108.4469 H   0  0  0  0  0  0  0  0  0  0  0  0
  126.1798  105.8731  109.8190 H   0  0  0  0  0  0  0  0  0  0  0  0
  125.5327  109.0766  107.6007 H   0  0  0  0  0  0  0  0  0  0  0  0
  124.1310  103.8471  106.5770 H   0  0  0  0  0  0  0  0  0  0  0  0
  121.7126  111.3601  113.2836 H   0  0  0  0  0  0  0  0  0  0  0  0
  122.9625  112.6148  113.3272 H   0  0  0  0  0  0  0  0  0  0  0  0
  121.7228  112.6596  112.0767 H   0  0  0  0  0  0  0  0  0  0  0  0
  123.6458  109.6039  113.2675 H   0  0  0  0  0  0  0  0  0  0  0  0
  124.7868  110.9590  113.2998 H   0  0  0  0  0  0  0  0  0  0  0  0
  124.9151  109.7362  112.0361 H   0  0  0  0  0  0  0  0  0  0  0  0
  121.7842  109.5805  111.4335 H   0  0  0  0  0  0  0  0  0  0  0  0
  123.8802  111.8133  111.1597 H   0  0  0  0  0  0  0  0  0  0  0  0
  124.3555  110.9053  108.9051 H   0  0  0  0  0  0  0  0  0  0  0  0
  121.1069  111.8164  110.3659 H   0  0  0  0  0  0  0  0  0  0  0  0
  121.1772  110.5707  109.1425 H   0  0  0  0  0  0  0  0  0  0  0  0
  1  2  1  0  0  0  0
  1  4  2  0  0  0  0
  2  6  2  0  0  0  0
  3  5  2  0  0  0  0
  3 13  1  0  0  0  0
  4 15  1  0  0  0  0
  5  6  1  0  0  0  0
  5 12  1  0  0  0  0
  6 15  1  0  0  0  0
  7 10  1  0  0  0  0
  7 12  2  0  0  0  0
  7 13  1  0  0  0  0
  8 11  1  0  0  0  0
  9 11  1  0  0  0  0
 10 11  1  0  0  0  0
 10 14  1  0  0  0  0
  1 16  1  0  0  0  0
  2 17  1  0  0  0  0
  3 18  1  0  0  0  0
  4 19  1  0  0  0  0
  8 20  1  0  0  0  0
  8 21  1  0  0  0  0
  8 22  1  0  0  0  0
  9 23  1  0  0  0  0
  9 24  1  0  0  0  0
  9 25  1  0  0  0  0
 10 26  1  0  0  0  0
 11 27  1  0  0  0  0
 13 28  1  0  0  0  0
 14 29  1  0  0  0  0
 14 30  1  0  0  0  0
M  END
> <FRED Chemgauss4 score>
-9.406110

$$$$
C67844972	P104163880
  -OEChem-05122015313D

 38 39  0     1  0  0  0  0  0999 V2000
  117.3613  107.4814  104.5163 C   0  0  0  0  0  0  0  0  0  0  0  0
  117.3133  108.5500  105.4090 C   0  0  0  0  0  0  0  0  0  0  0  0
  118.9995  107.4828  106.7702 C   0  0  0  0  0  0  0  0  0  0  0  0
  119.0771  106.4093  105.8686 C   0  0  0  0  0  0  0  0  0  0  0  0
  118.2240  106.4070  104.7538 C   0  0  0  0  0  0  0  0  0  0  0  0
  118.1266  108.5475  106.5390 C   0  0  0  0  0  0  0  0  0  0  0  0
  122.1378  106.5111  105.7738 C   0  0  0  0  0  0  0  0  0  0  0  0
  120.1495  104.3886  104.8660 C   0  0  0  0  0  0  0  0  0  0  0  0
  118.7732  104.1674  104.2640 C   0  0  0  0  0  0  0  0  0  0  0  0
  120.0209  105.2563  106.1170 C   0  0  1  0  0  0  0  0  0  0  0  0
  124.5376  107.1704  105.4664 C   0  0  0  0  0  0  0  0  0  0  0  0
  124.9354  107.0898  109.2089 C   0  0  0  0  0  0  0  0  0  0  0  0
  123.4457  106.8517  106.4758 C   0  0  1  0  0  0  0  0  0  0  0  0
  121.3318  105.6861  106.5450 N   0  0  0  0  0  0  0  0  0  0  0  0
  123.2024  107.9666  107.3529 N   0  0  0  0  0  0  0  0  0  0  0  0
  121.8337  106.9564  104.6691 O   0  0  0  0  0  0  0  0  0  0  0  0
  123.9045  109.4927  109.3257 O   0  0  0  0  0  0  0  0  0  0  0  0
  125.5912  108.9719  107.5257 O   0  0  0  0  0  0  0  0  0  0  0  0
  118.1892  105.3970  103.8254 O   0  0  0  0  0  0  0  0  0  0  0  0
  124.4676  108.5767  108.3532 S   0  0  0  0  0  0  0  0  0  0  0  0
  118.0446  109.9836  107.7654 Br  0  0  0  0  0  0  0  0  0  0  0  0
  116.7268  107.4925  103.6340 H   0  0  0  0  0  0  0  0  0  0  0  0
  116.6360  109.3759  105.2099 H   0  0  0  0  0  0  0  0  0  0  0  0
  119.6264  107.4767  107.6606 H   0  0  0  0  0  0  0  0  0  0  0  0
  120.5674  103.4166  105.1516 H   0  0  0  0  0  0  0  0  0  0  0  0
  120.8229  104.8451  104.1354 H   0  0  0  0  0  0  0  0  0  0  0  0
  118.7966  103.4646  103.4257 H   0  0  0  0  0  0  0  0  0  0  0  0
  118.1062  103.7481  105.0220 H   0  0  0  0  0  0  0  0  0  0  0  0
  119.6286  104.6198  106.9256 H   0  0  0  0  0  0  0  0  0  0  0  0
  124.2502  108.0098  104.8227 H   0  0  0  0  0  0  0  0  0  0  0  0
  125.4730  107.4425  105.9663 H   0  0  0  0  0  0  0  0  0  0  0  0
  124.7345  106.3083  104.8201 H   0  0  0  0  0  0  0  0  0  0  0  0
  125.7490  107.3291  109.8955 H   0  0  0  0  0  0  0  0  0  0  0  0
  124.0677  106.7209  109.7579 H   0  0  0  0  0  0  0  0  0  0  0  0
  125.2615  106.3558  108.4705 H   0  0  0  0  0  0  0  0  0  0  0  0
  123.7505  106.0115  107.1092 H   0  0  0  0  0  0  0  0  0  0  0  0
  121.6801  105.3322  107.4307 H   0  0  0  0  0  0  0  0  0  0  0  0
  122.2523  108.0058  107.7811 H   0  0  0  0  0  0  0  0  0  0  0  0
  1  2  1  0  0  0  0
  1  5  2  0  0  0  0
  2  6  2  0  0  0  0
  3  4  2  0  0  0  0
  3  6  1  0  0  0  0
  4  5  1  0  0  0  0
  4 10  1  0  0  0  0
  5 19  1  0  0  0  0
  6 21  1  0  0  0  0
  7 13  1  0  0  0  0
  7 14  1  0  0  0  0
  7 16  2  0  0  0  0
  8  9  1  0  0  0  0
  8 10  1  0  0  0  0
  9 19  1  0  0  0  0
 10 14  1  0  0  0  0
 11 13  1  0  0  0  0
 12 20  1  0  0  0  0
 13 15  1  0  0  0  0
 15 20  1  0  0  0  0
 17 20  2  0  0  0  0
 18 20  2  0  0  0  0
  1 22  1  0  0  0  0
  2 23  1  0  0  0  0
  3 24  1  0  0  0  0
  8 25  1  0  0  0  0
  8 26  1  0  0  0  0
  9 27  1  0  0  0  0
  9 28  1  0  0  0  0
 10 29  1  0  0  0  0
 11 30  1  0  0  0  0
 11 31  1  0  0  0  0
 11 32  1  0  0  0  0
 12 33  1  0  0  0  0
 12 34  1  0  0  0  0
 12 35  1  0  0  0  0
 13 36  1  0  0  0  0
 14 37  1  0  0  0  0
 15 38  1  0  0  0  0
M  END
> <FRED Chemgauss4 score>
-9.404390

$$$$
C83746311	P131018920
  -OEChem-05122015313D

 26 27  0     1  0  0  0  0  0999 V2000
  123.1475  106.6983  105.9195 C   0  0  0  0  0  0  0  0  0  0  0  0
  121.3007  105.5601  106.2785 C   0  0  0  0  0  0  0  0  0  0  0  0
  127.1187  107.0639  107.6945 C   0  0  0  0  0  0  0  0  0  0  0  0
  122.6441  105.5526  106.5643 C   0  0  0  0  0  0  0  0  0  0  0  0
  125.7885  105.4713  107.4684 C   0  0  0  0  0  0  0  0  0  0  0  0
  119.8266  107.1000  104.9615 C   0  0  0  0  0  0  0  0  0  0  0  0
  123.4084  104.5387  107.3849 C   0  0  0  0  0  0  0  0  0  0  0  0
  124.8783  104.3771  106.9371 C   0  0  2  0  0  0  0  0  0  0  0  0
  122.2011  107.3837  105.2727 N   0  0  0  0  0  0  0  0  0  0  0  0
  126.4939  106.3085  106.7439 N   0  0  0  0  0  0  0  0  0  0  0  0
  125.9913  105.7255  108.7890 N   0  0  0  0  0  0  0  0  0  0  0  0
  126.8442  106.7468  108.9616 N   0  0  0  0  0  0  0  0  0  0  0  0
  121.0894  106.6666  105.5095 N   0  0  0  0  0  0  0  0  0  0  0  0
  125.3758  103.0503  107.3253 N   0  0  0  0  0  0  0  0  0  0  0  0
  124.1643  107.0638  105.8918 H   0  0  0  0  0  0  0  0  0  0  0  0
  120.4973  104.8884  106.5489 H   0  0  0  0  0  0  0  0  0  0  0  0
  127.7942  107.8695  107.4382 H   0  0  0  0  0  0  0  0  0  0  0  0
  119.3522  107.7625  105.6902 H   0  0  0  0  0  0  0  0  0  0  0  0
  120.0004  107.6289  104.0203 H   0  0  0  0  0  0  0  0  0  0  0  0
  119.1968  106.2266  104.7704 H   0  0  0  0  0  0  0  0  0  0  0  0
  122.8841  103.5769  107.2961 H   0  0  0  0  0  0  0  0  0  0  0  0
  123.3485  104.8048  108.4485 H   0  0  0  0  0  0  0  0  0  0  0  0
  124.9100  104.4045  105.8404 H   0  0  0  0  0  0  0  0  0  0  0  0
  127.1228  107.0881  109.8774 H   0  0  0  0  0  0  0  0  0  0  0  0
  126.3592  102.9252  107.3793 H   0  0  0  0  0  0  0  0  0  0  0  0
  124.7301  102.2961  107.3164 H   0  0  0  0  0  0  0  0  0  0  0  0
  1  4  1  0  0  0  0
  1  9  2  0  0  0  0
  2  4  2  0  0  0  0
  2 13  1  0  0  0  0
  3 10  2  0  0  0  0
  3 12  1  0  0  0  0
  4  7  1  0  0  0  0
  5  8  1  0  0  0  0
  5 10  1  0  0  0  0
  5 11  2  0  0  0  0
  6 13  1  0  0  0  0
  7  8  1  0  0  0  0
  8 14  1  0  0  0  0
  9 13  1  0  0  0  0
 11 12  1  0  0  0  0
  1 15  1  0  0  0  0
  2 16  1  0  0  0  0
  3 17  1  0  0  0  0
  6 18  1  0  0  0  0
  6 19  1  0  0  0  0
  6 20  1  0  0  0  0
  7 21  1  0  0  0  0
  7 22  1  0  0  0  0
  8 23  1  0  0  0  0
 12 24  1  0  0  0  0
 14 25  1  0  0  0  0
 14 26  1  0  0  0  0
M  END
> <FRED Chemgauss4 score>
-9.404222

$$$$
C93825618	P147013249
  -OEChem-05122015313D

 47 49  0     1  0  0  0  0  0999 V2000
  125.6133  108.3472  107.0164 C   0  0  0  0  0  0  0  0  0  0  0  0
  122.9296  108.0971  108.8652 C   0  0  0  0  0  0  0  0  0  0  0  0
  125.9733  103.6165  108.2194 C   0  0  0  0  0  0  0  0  0  0  0  0
  125.1401  103.8427  106.9913 C   0  0  0  0  0  0  0  0  0  0  0  0
  124.3876  107.7214  109.1069 C   0  0  0  0  0  0  0  0  0  0  0  0
  123.6239  106.8316  106.9436 C   0  0  0  0  0  0  0  0  0  0  0  0
  120.1320  107.5012  108.2659 C   0  0  0  0  0  0  0  0  0  0  0  0
  120.8063  106.2135  106.3573 C   0  0  0  0  0  0  0  0  0  0  0  0
  118.8217  107.8353  107.5619 C   0  0  0  0  0  0  0  0  0  0  0  0
  122.4634  106.9868  107.9320 C   0  0  2  0  0  0  0  0  0  0  0  0
  125.1783  104.8854  108.0748 C   0  0  0  0  0  0  0  0  0  0  0  0
  124.8846  107.2426  107.7320 C   0  0  1  0  0  0  0  0  0  0  0  0
  119.4746  106.5404  105.6505 C   0  0  0  0  0  0  0  0  0  0  0  0
  118.9925  105.3045  104.8794 C   0  0  0  0  0  0  0  0  0  0  0  0
  119.6104  107.7096  104.6620 C   0  0  0  0  0  0  0  0  0  0  0  0
  121.1950  107.2956  107.2740 N   0  0  2  0  0  0  0  0  0  0  0  0
  126.7162  108.8128  107.6924 N   0  0  0  0  0  0  0  0  0  0  0  0
  125.8502  106.1577  107.8494 N   0  0  0  0  0  0  0  0  0  0  0  0
  125.2484  108.7674  105.9211 O   0  0  0  0  0  0  0  0  0  0  0  0
  118.4605  106.8160  106.6308 O   0  0  0  0  0  0  0  0  0  0  0  0
  122.3541  108.1321  109.7954 H   0  0  0  0  0  0  0  0  0  0  0  0
  122.8653  109.0808  108.3837 H   0  0  0  0  0  0  0  0  0  0  0  0
  125.6352  102.8674  108.9252 H   0  0  0  0  0  0  0  0  0  0  0  0
  127.0498  103.6814  108.1171 H   0  0  0  0  0  0  0  0  0  0  0  0
  125.6568  104.0596  106.0643 H   0  0  0  0  0  0  0  0  0  0  0  0
  124.2442  103.2450  106.8747 H   0  0  0  0  0  0  0  0  0  0  0  0
  124.9589  108.5629  109.5131 H   0  0  0  0  0  0  0  0  0  0  0  0
  124.4249  106.9107  109.8468 H   0  0  0  0  0  0  0  0  0  0  0  0
  123.6682  105.8003  106.5727 H   0  0  0  0  0  0  0  0  0  0  0  0
  123.4845  107.4735  106.0636 H   0  0  0  0  0  0  0  0  0  0  0  0
  120.3990  108.3194  108.9476 H   0  0  0  0  0  0  0  0  0  0  0  0
  119.9897  106.5952  108.8662 H   0  0  0  0  0  0  0  0  0  0  0  0
  120.7026  105.2720  106.9114 H   0  0  0  0  0  0  0  0  0  0  0  0
  121.5961  106.0679  105.6070 H   0  0  0  0  0  0  0  0  0  0  0  0
  118.0070  107.9973  108.2760 H   0  0  0  0  0  0  0  0  0  0  0  0
  118.9370  108.7664  106.9970 H   0  0  0  0  0  0  0  0  0  0  0  0
  122.3544  106.0554  108.5046 H   0  0  0  0  0  0  0  0  0  0  0  0
  124.2909  104.9704  108.6940 H   0  0  0  0  0  0  0  0  0  0  0  0
  118.0554  105.5342  104.3820 H   0  0  0  0  0  0  0  0  0  0  0  0
  118.8446  104.4831  105.5734 H   0  0  0  0  0  0  0  0  0  0  0  0
  119.7387  105.0280  104.1411 H   0  0  0  0  0  0  0  0  0  0  0  0
  118.6496  107.9000  104.1921 H   0  0  0  0  0  0  0  0  0  0  0  0
  120.3423  107.4563  103.9001 H   0  0  0  0  0  0  0  0  0  0  0  0
  119.9354  108.5986  105.1953 H   0  0  0  0  0  0  0  0  0  0  0  0
  126.9504  108.3963  108.5875 H   0  0  0  0  0  0  0  0  0  0  0  0
  127.3055  109.5564  107.3321 H   0  0  0  0  0  0  0  0  0  0  0  0
  126.4765  106.3498  108.6305 H   0  0  0  0  0  0  0  0  0  0  0  0
  1 12  1  0  0  0  0
  1 17  1  0  0  0  0
  1 19  2  0  0  0  0
  2  5  1  0  0  0  0
  2 10  1  0  0  0  0
  3  4  1  0  0  0  0
  3 11  1  0  0  0  0
  4 11  1  0  0  0  0
  5 12  1  0  0  0  0
  6 10  1  0  0  0  0
  6 12  1  0  0  0  0
  7  9  1  0  0  0  0
  7 16  1  0  0  0  0
  8 13  1  0  0  0  0
  8 16  1  0  0  0  0
  9 20  1  0  0  0  0
 10 16  1  0  0  0  0
 11 18  1  0  0  0  0
 12 18  1  0  0  0  0
 13 14  1  0  0  0  0
 13 15  1  0  0  0  0
 13 20  1  0  0  0  0
  2 21  1  0  0  0  0
  2 22  1  0  0  0  0
  3 23  1  0  0  0  0
  3 24  1  0  0  0  0
  4 25  1  0  0  0  0
  4 26  1  0  0  0  0
  5 27  1  0  0  0  0
  5 28  1  0  0  0  0
  6 29  1  0  0  0  0
  6 30  1  0  0  0  0
  7 31  1  0  0  0  0
  7 32  1  0  0  0  0
  8 33  1  0  0  0  0
  8 34  1  0  0  0  0
  9 35  1  0  0  0  0
  9 36  1  0  0  0  0
 10 37  1  0  0  0  0
 11 38  1  0  0  0  0
 14 39  1  0  0  0  0
 14 40  1  0  0  0  0
 14 41  1  0  0  0  0
 15 42  1  0  0  0  0
 15 43  1  0  0  0  0
 15 44  1  0  0  0  0
 17 45  1  0  0  0  0
 17 46  1  0  0  0  0
 18 47  1  0  0  0  0
M  END
> <FRED Chemgauss4 score>
-9.402766

$$$$
C05669319	P122489113
  -OEChem-05122015313D

 35 35  0     0  0  0  0  0  0999 V2000
  123.3278  105.3975  106.7793 C   0  0  0  0  0  0  0  0  0  0  0  0
  124.5862  105.0597  107.4974 C   0  0  0  0  0  0  0  0  0  0  0  0
  123.1595  106.6631  106.0157 C   0  0  0  0  0  0  0  0  0  0  0  0
  125.4765  107.2262  106.6893 C   0  0  0  0  0  0  0  0  0  0  0  0
  122.3120  104.5328  106.8217 C   0  0  0  0  0  0  0  0  0  0  0  0
  115.8517  104.8096  105.0876 C   0  0  0  0  0  0  0  0  0  0  0  0
  116.0108  107.3075  105.3181 C   0  0  0  0  0  0  0  0  0  0  0  0
  117.3407  106.1233  103.5443 C   0  0  0  0  0  0  0  0  0  0  0  0
  120.0543  103.8188  106.2563 C   0  0  0  0  0  0  0  0  0  0  0  0
  118.8328  104.2951  105.4821 C   0  0  0  0  0  0  0  0  0  0  0  0
  116.7721  106.0271  104.9628 C   0  0  0  0  0  0  0  0  0  0  0  0
  125.5687  106.0332  107.3814 N   0  0  0  0  0  0  0  0  0  0  0  0
  124.2811  107.4802  106.0435 N   0  0  0  0  0  0  0  0  0  0  0  0
  121.1484  104.7506  106.2094 N   0  0  0  0  0  0  0  0  0  0  0  0
  124.7388  104.0193  108.1306 O   0  0  0  0  0  0  0  0  0  0  0  0
  122.1270  106.9547  105.4196 O   0  0  0  0  0  0  0  0  0  0  0  0
  126.7491  108.3093  106.6359 S   0  0  0  0  0  0  0  0  0  0  0  0
  118.1641  105.8355  106.1429 S   0  0  0  0  0  0  0  0  0  0  0  0
  122.3846  103.5974  107.3628 H   0  0  0  0  0  0  0  0  0  0  0  0
  116.3736  103.8783  104.8381 H   0  0  0  0  0  0  0  0  0  0  0  0
  115.4809  104.7082  106.1144 H   0  0  0  0  0  0  0  0  0  0  0  0
  114.9755  104.8933  104.4340 H   0  0  0  0  0  0  0  0  0  0  0  0
  116.6485  108.1956  105.2366 H   0  0  0  0  0  0  0  0  0  0  0  0
  115.6075  107.2713  106.3370 H   0  0  0  0  0  0  0  0  0  0  0  0
  115.1626  107.4547  104.6391 H   0  0  0  0  0  0  0  0  0  0  0  0
  118.0040  106.9886  103.4296 H   0  0  0  0  0  0  0  0  0  0  0  0
  117.9288  105.2304  103.3017 H   0  0  0  0  0  0  0  0  0  0  0  0
  116.5466  106.2022  102.7925 H   0  0  0  0  0  0  0  0  0  0  0  0
  120.4212  102.8850  105.8174 H   0  0  0  0  0  0  0  0  0  0  0  0
  119.8216  103.6239  107.3084 H   0  0  0  0  0  0  0  0  0  0  0  0
  119.0756  104.4477  104.4255 H   0  0  0  0  0  0  0  0  0  0  0  0
  118.0439  103.5389  105.5426 H   0  0  0  0  0  0  0  0  0  0  0  0
  126.4482  105.8485  107.8558 H   0  0  0  0  0  0  0  0  0  0  0  0
  124.2154  108.3575  105.5347 H   0  0  0  0  0  0  0  0  0  0  0  0
  121.0506  105.6261  105.6891 H   0  0  0  0  0  0  0  0  0  0  0  0
  1  2  1  0  0  0  0
  1  3  1  0  0  0  0
  1  5  2  0  0  0  0
  2 12  1  0  0  0  0
  2 15  2  0  0  0  0
  3 13  1  0  0  0  0
  3 16  2  0  0  0  0
  4 12  1  0  0  0  0
  4 13  1  0  0  0  0
  4 17  2  0  0  0  0
  5 14  1  0  0  0  0
  6 11  1  0  0  0  0
  7 11  1  0  0  0  0
  8 11  1  0  0  0  0
  9 10  1  0  0  0  0
  9 14  1  0  0  0  0
 10 18  1  0  0  0  0
 11 18  1  0  0  0  0
  5 19  1  0  0  0  0
  6 20  1  0  0  0  0
  6 21  1  0  0  0  0
  6 22  1  0  0  0  0
  7 23  1  0  0  0  0
  7 24  1  0  0  0  0
  7 25  1  0  0  0  0
  8 26  1  0  0  0  0
  8 27  1  0  0  0  0
  8 28  1  0  0  0  0
  9 29  1  0  0  0  0
  9 30  1  0  0  0  0
 10 31  1  0  0  0  0
 10 32  1  0  0  0  0
 12 33  1  0  0  0  0
 13 34  1  0  0  0  0
 14 35  1  0  0  0  0
M  END
> <FRED Chemgauss4 score>
-9.398170

$$$$
C50306591	P75244020
  -OEChem-05122015313D

 35 35  0     1  0  0  0  0  0999 V2000
  121.9177  106.1675  106.2936 C   0  0  0  0  0  0  0  0  0  0  0  0
  123.1946  106.3263  106.8646 C   0  0  0  0  0  0  0  0  0  0  0  0
  121.5453  104.8903  106.6349 C   0  0  0  0  0  0  0  0  0  0  0  0
  124.0677  107.5096  106.8105 C   0  0  0  0  0  0  0  0  0  0  0  0
  120.3328  104.1023  106.3538 C   0  0  0  0  0  0  0  0  0  0  0  0
  126.2133  108.4017  107.6320 C   0  0  0  0  0  0  0  0  0  0  0  0
  122.2983  111.5141  110.2804 C   0  0  0  0  0  0  0  0  0  0  0  0
  124.6844  107.3579  109.2665 C   0  0  0  0  0  0  0  0  0  0  0  0
  123.5036  109.5610  109.7753 C   0  0  0  0  0  0  0  0  0  0  0  0
  123.4250  108.0377  109.8038 C   0  0  2  0  0  0  0  0  0  0  0  0
  123.6058  105.2371  107.5193 N   0  0  0  0  0  0  0  0  0  0  0  0
  122.5813  104.3817  107.3617 N   0  0  0  0  0  0  0  0  0  0  0  0
  121.2103  107.0589  105.5709 N   0  0  0  0  0  0  0  0  0  0  0  0
  124.9384  107.7331  107.8943 N   0  0  0  0  0  0  0  0  0  0  0  0
  123.9728  108.2106  105.8037 O   0  0  0  0  0  0  0  0  0  0  0  0
  123.1907  107.6201  111.1492 O   0  0  0  0  0  0  0  0  0  0  0  0
  122.2782  110.0943  110.2680 O   0  0  0  0  0  0  0  0  0  0  0  0
  120.4350  103.5319  105.4149 H   0  0  0  0  0  0  0  0  0  0  0  0
  120.1091  103.3802  107.1591 H   0  0  0  0  0  0  0  0  0  0  0  0
  119.4347  104.7386  106.2605 H   0  0  0  0  0  0  0  0  0  0  0  0
  126.0977  109.4840  107.7326 H   0  0  0  0  0  0  0  0  0  0  0  0
  126.5562  108.1771  106.6183 H   0  0  0  0  0  0  0  0  0  0  0  0
  126.9718  108.0612  108.3420 H   0  0  0  0  0  0  0  0  0  0  0  0
  121.3458  111.8894  110.6627 H   0  0  0  0  0  0  0  0  0  0  0  0
  122.4681  111.8859  109.2668 H   0  0  0  0  0  0  0  0  0  0  0  0
  123.1082  111.8525  110.9310 H   0  0  0  0  0  0  0  0  0  0  0  0
  125.5523  107.6498  109.8672 H   0  0  0  0  0  0  0  0  0  0  0  0
  124.5838  106.2693  109.3288 H   0  0  0  0  0  0  0  0  0  0  0  0
  123.6473  109.9285  108.7546 H   0  0  0  0  0  0  0  0  0  0  0  0
  124.3079  109.9338  110.4176 H   0  0  0  0  0  0  0  0  0  0  0  0
  122.5581  107.7085  109.2186 H   0  0  0  0  0  0  0  0  0  0  0  0
  122.6586  103.4620  107.7781 H   0  0  0  0  0  0  0  0  0  0  0  0
  121.5476  108.0185  105.3979 H   0  0  0  0  0  0  0  0  0  0  0  0
  120.2555  106.8598  105.2341 H   0  0  0  0  0  0  0  0  0  0  0  0
  123.0792  106.6580  111.1213 H   0  0  0  0  0  0  0  0  0  0  0  0
  1  2  1  0  0  0  0
  1  3  2  0  0  0  0
  1 13  1  0  0  0  0
  2  4  1  0  0  0  0
  2 11  2  0  0  0  0
  3  5  1  0  0  0  0
  3 12  1  0  0  0  0
  4 14  1  0  0  0  0
  4 15  2  0  0  0  0
  6 14  1  0  0  0  0
  7 17  1  0  0  0  0
  8 10  1  0  0  0  0
  8 14  1  0  0  0  0
  9 10  1  0  0  0  0
  9 17  1  0  0  0  0
 10 16  1  0  0  0  0
 11 12  1  0  0  0  0
  5 18  1  0  0  0  0
  5 19  1  0  0  0  0
  5 20  1  0  0  0  0
  6 21  1  0  0  0  0
  6 22  1  0  0  0  0
  6 23  1  0  0  0  0
  7 24  1  0  0  0  0
  7 25  1  0  0  0  0
  7 26  1  0  0  0  0
  8 27  1  0  0  0  0
  8 28  1  0  0  0  0
  9 29  1  0  0  0  0
  9 30  1  0  0  0  0
 10 31  1  0  0  0  0
 12 32  1  0  0  0  0
 13 33  1  0  0  0  0
 13 34  1  0  0  0  0
 16 35  1  0  0  0  0
M  END
> <FRED Chemgauss4 score>
-9.398013

$$$$
C94230257	P147684548
  -OEChem-05122015313D

 39 38  0     1  0  0  0  0  0999 V2000
  123.8154  109.1053  110.0913 C   0  0  0  0  0  0  0  0  0  0  0  0
  124.5074  107.2434  106.2040 C   0  0  0  0  0  0  0  0  0  0  0  0
  122.3198  111.0406  110.5354 C   0  0  0  0  0  0  0  0  0  0  0  0
  117.4475  111.9814  108.9855 C   0  0  0  0  0  0  0  0  0  0  0  0
  124.0157  105.0910  107.3101 C   0  0  0  0  0  0  0  0  0  0  0  0
  124.5461  108.4807  108.9285 C   0  0  0  0  0  0  0  0  0  0  0  0
  118.8965  112.4429  108.9814 C   0  0  0  0  0  0  0  0  0  0  0  0
  119.4128  112.6758  110.4031 C   0  0  0  0  0  0  0  0  0  0  0  0
  120.8824  113.0819  110.4337 C   0  0  0  0  0  0  0  0  0  0  0  0
  124.7230  106.4344  107.5072 C   0  0  1  0  0  0  0  0  0  0  0  0
  126.1874  106.2222  107.8711 C   0  0  0  0  0  0  0  0  0  0  0  0
  123.1019  110.2370  109.6923 N   0  0  0  0  0  0  0  0  0  0  0  0
  121.7409  112.0912  109.8262 N   0  0  0  0  0  0  0  0  0  0  0  0
  124.0840  107.0943  108.6788 N   0  3  0  0  0  0  0  0  0  0  0  0
  125.3955  107.0764  105.3175 O   0  5  0  0  0  0  0  0  0  0  0  0
  123.8585  108.6558  111.2330 O   0  0  0  0  0  0  0  0  0  0  0  0
  123.4776  107.9734  106.1634 O   0  0  0  0  0  0  0  0  0  0  0  0
  122.1663  110.8438  111.7397 O   0  0  0  0  0  0  0  0  0  0  0  0
  126.8276  107.3992  108.0523 F   0  0  0  0  0  0  0  0  0  0  0  0
  126.3138  105.5134  109.0169 F   0  0  0  0  0  0  0  0  0  0  0  0
  126.8471  105.5408  106.9076 F   0  0  0  0  0  0  0  0  0  0  0  0
  116.8034  112.7162  109.4792 H   0  0  0  0  0  0  0  0  0  0  0  0
  117.0889  111.8499  107.9598 H   0  0  0  0  0  0  0  0  0  0  0  0
  117.3415  111.0252  109.5075 H   0  0  0  0  0  0  0  0  0  0  0  0
  124.1192  104.4500  108.1933 H   0  0  0  0  0  0  0  0  0  0  0  0
  122.9432  105.2162  107.1204 H   0  0  0  0  0  0  0  0  0  0  0  0
  124.4356  104.5475  106.4555 H   0  0  0  0  0  0  0  0  0  0  0  0
  124.3617  109.0494  108.0128 H   0  0  0  0  0  0  0  0  0  0  0  0
  125.6185  108.4280  109.1351 H   0  0  0  0  0  0  0  0  0  0  0  0
  119.5127  111.6867  108.4812 H   0  0  0  0  0  0  0  0  0  0  0  0
  118.9734  113.3650  108.3943 H   0  0  0  0  0  0  0  0  0  0  0  0
  118.8046  113.4461  110.8933 H   0  0  0  0  0  0  0  0  0  0  0  0
  119.2941  111.7528  110.9836 H   0  0  0  0  0  0  0  0  0  0  0  0
  121.2291  113.2428  111.4594 H   0  0  0  0  0  0  0  0  0  0  0  0
  121.0248  114.0131  109.8761 H   0  0  0  0  0  0  0  0  0  0  0  0
  123.1483  110.5079  108.7136 H   0  0  0  0  0  0  0  0  0  0  0  0
  121.9321  112.1641  108.8319 H   0  0  0  0  0  0  0  0  0  0  0  0
  124.2540  106.5212  109.5184 H   0  0  0  0  0  0  0  0  0  0  0  0
  123.0619  107.0938  108.5460 H   0  0  0  0  0  0  0  0  0  0  0  0
  1  6  1  0  0  0  0
  1 12  1  0  0  0  0
  1 16  2  0  0  0  0
  2 10  1  0  0  0  0
  2 15  1  0  0  0  0
  2 17  2  0  0  0  0
  3 12  1  0  0  0  0
  3 13  1  0  0  0  0
  3 18  2  0  0  0  0
  4  7  1  0  0  0  0
  5 10  1  0  0  0  0
  6 14  1  0  0  0  0
  7  8  1  0  0  0  0
  8  9  1  0  0  0  0
  9 13  1  0  0  0  0
 10 11  1  0  0  0  0
 10 14  1  0  0  0  0
 11 19  1  0  0  0  0
 11 20  1  0  0  0  0
 11 21  1  0  0  0  0
  4 22  1  0  0  0  0
  4 23  1  0  0  0  0
  4 24  1  0  0  0  0
  5 25  1  0  0  0  0
  5 26  1  0  0  0  0
  5 27  1  0  0  0  0
  6 28  1  0  0  0  0
  6 29  1  0  0  0  0
  7 30  1  0  0  0  0
  7 31  1  0  0  0  0
  8 32  1  0  0  0  0
  8 33  1  0  0  0  0
  9 34  1  0  0  0  0
  9 35  1  0  0  0  0
 12 36  1  0  0  0  0
 13 37  1  0  0  0  0
 14 38  1  0  0  0  0
 14 39  1  0  0  0  0
M  CHG  2  14   1  15  -1
M  END
> <FRED Chemgauss4 score>
-9.396006

$$$$
C42040378	P88561192
  -OEChem-05122015313D

 24 25  0     1  0  0  0  0  0999 V2000
  125.1258  107.1744  106.4853 C   0  0  0  0  0  0  0  0  0  0  0  0
  126.5543  108.1670  107.8383 C   0  0  0  0  0  0  0  0  0  0  0  0
  125.4399  106.3752  107.5591 C   0  0  0  0  0  0  0  0  0  0  0  0
  122.4601  105.2334  107.8615 C   0  0  0  0  0  0  0  0  0  0  0  0
  120.7925  104.7426  106.5619 C   0  0  0  0  0  0  0  0  0  0  0  0
  124.9337  104.9882  107.8708 C   0  0  0  0  0  0  0  0  0  0  0  0
  123.6627  105.0038  108.7183 C   0  0  2  0  0  0  0  0  0  0  0  0
  126.3294  106.9989  108.3977 N   0  0  0  0  0  0  0  0  0  0  0  0
  121.9287  106.3975  107.6304 N   0  0  0  0  0  0  0  0  0  0  0  0
  125.8469  108.3190  106.6782 N   0  0  0  0  0  0  0  0  0  0  0  0
  121.8438  104.1944  107.2622 N   0  0  0  0  0  0  0  0  0  0  0  0
  120.8719  106.1190  106.8112 N   0  0  0  0  0  0  0  0  0  0  0  0
  123.4016  103.7420  109.3560 N   0  0  0  0  0  0  0  0  0  0  0  0
  119.9679  104.1621  105.8726 O   0  0  0  0  0  0  0  0  0  0  0  0
  124.4782  107.0415  105.6306 H   0  0  0  0  0  0  0  0  0  0  0  0
  127.2098  108.9387  108.2166 H   0  0  0  0  0  0  0  0  0  0  0  0
  124.7465  104.4644  106.9237 H   0  0  0  0  0  0  0  0  0  0  0  0
  125.7243  104.4107  108.3693 H   0  0  0  0  0  0  0  0  0  0  0  0
  123.6922  105.7739  109.4955 H   0  0  0  0  0  0  0  0  0  0  0  0
  125.8564  109.1295  106.0736 H   0  0  0  0  0  0  0  0  0  0  0  0
  122.1004  103.2161  107.3159 H   0  0  0  0  0  0  0  0  0  0  0  0
  120.2350  106.8105  106.4365 H   0  0  0  0  0  0  0  0  0  0  0  0
  122.4504  103.4867  109.5699 H   0  0  0  0  0  0  0  0  0  0  0  0
  124.1681  103.2280  109.7611 H   0  0  0  0  0  0  0  0  0  0  0  0
  1  3  2  0  0  0  0
  1 10  1  0  0  0  0
  2  8  2  0  0  0  0
  2 10  1  0  0  0  0
  3  6  1  0  0  0  0
  3  8  1  0  0  0  0
  4  7  1  0  0  0  0
  4  9  2  0  0  0  0
  4 11  1  0  0  0  0
  5 11  1  0  0  0  0
  5 12  1  0  0  0  0
  5 14  2  0  0  0  0
  6  7  1  0  0  0  0
  7 13  1  0  0  0  0
  9 12  1  0  0  0  0
  1 15  1  0  0  0  0
  2 16  1  0  0  0  0
  6 17  1  0  0  0  0
  6 18  1  0  0  0  0
  7 19  1  0  0  0  0
 10 20  1  0  0  0  0
 11 21  1  0  0  0  0
 12 22  1  0  0  0  0
 13 23  1  0  0  0  0
 13 24  1  0  0  0  0
M  END
> <FRED Chemgauss4 score>
-9.382566

$$$$
C97344605	P154171042
  -OEChem-05122015313D

 40 42  0     1  0  0  0  0  0999 V2000
  122.1399  105.0203  108.4329 C   0  0  0  0  0  0  0  0  0  0  0  0
  125.9190  107.7367  107.0872 C   0  0  0  0  0  0  0  0  0  0  0  0
  123.4589  105.4211  108.6256 C   0  0  0  0  0  0  0  0  0  0  0  0
  125.3699  106.7946  107.9450 C   0  0  0  0  0  0  0  0  0  0  0  0
  121.4020  105.5679  107.3908 C   0  0  0  0  0  0  0  0  0  0  0  0
  119.0774  108.2343  106.3008 C   0  0  0  0  0  0  0  0  0  0  0  0
  118.8664  105.9936  105.4224 C   0  0  0  0  0  0  0  0  0  0  0  0
  117.7087  108.2584  106.5683 C   0  0  0  0  0  0  0  0  0  0  0  0
  117.4976  106.0176  105.6899 C   0  0  0  0  0  0  0  0  0  0  0  0
  125.1141  108.2278  106.0793 C   0  0  0  0  0  0  0  0  0  0  0  0
  124.0443  106.3733  107.7739 C   0  0  0  0  0  0  0  0  0  0  0  0
  119.6563  107.1020  105.7278 C   0  0  0  0  0  0  0  0  0  0  0  0
  121.9843  106.5145  106.5442 C   0  0  0  0  0  0  0  0  0  0  0  0
  123.3010  106.9336  106.7139 C   0  0  0  0  0  0  0  0  0  0  0  0
  116.9188  107.1500  106.2629 C   0  0  0  0  0  0  0  0  0  0  0  0
  114.9240  108.3441  107.1319 C   0  0  0  0  0  0  0  0  0  0  0  0
  114.7037  106.0317  106.2084 C   0  0  0  0  0  0  0  0  0  0  0  0
  121.1483  107.0750  105.4354 C   0  0  1  0  0  0  0  0  0  0  0  0
  123.8312  107.8479  105.8798 N   0  0  0  0  0  0  0  0  0  0  0  0
  121.3962  106.3515  104.1768 N   0  0  0  0  0  0  0  0  0  0  0  0
  115.5352  107.1732  106.5350 N   0  0  0  0  0  0  0  0  0  0  0  0
  121.6912  104.2842  109.0930 H   0  0  0  0  0  0  0  0  0  0  0  0
  126.9425  108.0725  107.2042 H   0  0  0  0  0  0  0  0  0  0  0  0
  124.0276  104.9862  109.4445 H   0  0  0  0  0  0  0  0  0  0  0  0
  125.9822  106.3892  108.7473 H   0  0  0  0  0  0  0  0  0  0  0  0
  120.3724  105.2533  107.2413 H   0  0  0  0  0  0  0  0  0  0  0  0
  119.6850  109.1026  106.5410 H   0  0  0  0  0  0  0  0  0  0  0  0
  119.3083  105.1077  104.9743 H   0  0  0  0  0  0  0  0  0  0  0  0
  117.2675  109.1464  107.0137 H   0  0  0  0  0  0  0  0  0  0  0  0
  116.8916  105.1486  105.4472 H   0  0  0  0  0  0  0  0  0  0  0  0
  125.4892  108.9660  105.3781 H   0  0  0  0  0  0  0  0  0  0  0  0
  113.8518  108.1801  107.2680 H   0  0  0  0  0  0  0  0  0  0  0  0
  115.0677  109.2156  106.4874 H   0  0  0  0  0  0  0  0  0  0  0  0
  115.3749  108.5506  108.1063 H   0  0  0  0  0  0  0  0  0  0  0  0
  113.6661  106.2301  106.4892 H   0  0  0  0  0  0  0  0  0  0  0  0
  115.0505  105.1452  106.7463 H   0  0  0  0  0  0  0  0  0  0  0  0
  114.7451  105.8288  105.1349 H   0  0  0  0  0  0  0  0  0  0  0  0
  121.4800  108.1050  105.2207 H   0  0  0  0  0  0  0  0  0  0  0  0
  122.3137  106.0116  104.0185 H   0  0  0  0  0  0  0  0  0  0  0  0
  120.7046  106.4154  103.4696 H   0  0  0  0  0  0  0  0  0  0  0  0
  1  3  1  0  0  0  0
  1  5  2  0  0  0  0
  2  4  2  0  0  0  0
  2 10  1  0  0  0  0
  3 11  2  0  0  0  0
  4 11  1  0  0  0  0
  5 13  1  0  0  0  0
  6  8  2  0  0  0  0
  6 12  1  0  0  0  0
  7  9  1  0  0  0  0
  7 12  2  0  0  0  0
  8 15  1  0  0  0  0
  9 15  2  0  0  0  0
 10 19  2  0  0  0  0
 11 14  1  0  0  0  0
 12 18  1  0  0  0  0
 13 14  2  0  0  0  0
 13 18  1  0  0  0  0
 14 19  1  0  0  0  0
 15 21  1  0  0  0  0
 16 21  1  0  0  0  0
 17 21  1  0  0  0  0
 18 20  1  0  0  0  0
  1 22  1  0  0  0  0
  2 23  1  0  0  0  0
  3 24  1  0  0  0  0
  4 25  1  0  0  0  0
  5 26  1  0  0  0  0
  6 27  1  0  0  0  0
  7 28  1  0  0  0  0
  8 29  1  0  0  0  0
  9 30  1  0  0  0  0
 10 31  1  0  0  0  0
 16 32  1  0  0  0  0
 16 33  1  0  0  0  0
 16 34  1  0  0  0  0
 17 35  1  0  0  0  0
 17 36  1  0  0  0  0
 17 37  1  0  0  0  0
 18 38  1  0  0  0  0
 20 39  1  0  0  0  0
 20 40  1  0  0  0  0
M  END
> <FRED Chemgauss4 score>
-9.382024

$$$$
C35716825	P53011960
  -OEChem-05122015313D

 31 33  0     1  0  0  0  0  0999 V2000
  116.1059  103.6587  104.1529 C   0  0  0  0  0  0  0  0  0  0  0  0
  121.6202  105.1635  108.1004 C   0  0  0  0  0  0  0  0  0  0  0  0
  122.9309  105.5281  108.4189 C   0  0  0  0  0  0  0  0  0  0  0  0
  117.0670  103.2692  105.1300 C   0  0  0  0  0  0  0  0  0  0  0  0
  116.5507  104.7081  103.3792 C   0  0  0  0  0  0  0  0  0  0  0  0
  125.0708  107.6609  106.0796 C   0  0  0  0  0  0  0  0  0  0  0  0
  123.0805  106.7332  106.2915 C   0  0  0  0  0  0  0  0  0  0  0  0
  121.0377  105.5685  106.9045 C   0  0  0  0  0  0  0  0  0  0  0  0
  121.7544  106.3508  105.9944 C   0  0  0  0  0  0  0  0  0  0  0  0
  123.6448  106.3141  107.5001 C   0  0  0  0  0  0  0  0  0  0  0  0
  118.2099  104.0356  105.0658 C   0  0  0  0  0  0  0  0  0  0  0  0
  118.5985  106.0071  107.0392 C   0  0  0  0  0  0  0  0  0  0  0  0
  119.4459  103.9426  105.9130 C   0  0  0  0  0  0  0  0  0  0  0  0
  123.9093  107.5038  105.4890 N   0  0  0  0  0  0  0  0  0  0  0  0
  121.1515  106.7571  104.7840 N   0  0  0  0  0  0  0  0  0  0  0  0
  119.7078  105.1746  106.6259 N   0  0  3  0  0  0  0  0  0  0  0  0
  118.1212  105.2193  103.8315 S   0  0  0  0  0  0  0  0  0  0  0  0
  125.2571  106.9156  107.6079 S   0  0  0  0  0  0  0  0  0  0  0  0
  115.1378  103.1930  104.0229 H   0  0  0  0  0  0  0  0  0  0  0  0
  121.0597  104.5548  108.8068 H   0  0  0  0  0  0  0  0  0  0  0  0
  123.3798  105.2082  109.3542 H   0  0  0  0  0  0  0  0  0  0  0  0
  116.9230  102.4655  105.8410 H   0  0  0  0  0  0  0  0  0  0  0  0
  116.0285  105.1992  102.5703 H   0  0  0  0  0  0  0  0  0  0  0  0
  125.8714  108.2302  105.6277 H   0  0  0  0  0  0  0  0  0  0  0  0
  117.6525  105.5476  106.7413 H   0  0  0  0  0  0  0  0  0  0  0  0
  118.6725  106.9937  106.5737 H   0  0  0  0  0  0  0  0  0  0  0  0
  118.6030  106.1309  108.1255 H   0  0  0  0  0  0  0  0  0  0  0  0
  119.3481  103.1397  106.6518 H   0  0  0  0  0  0  0  0  0  0  0  0
  120.3256  103.7164  105.3013 H   0  0  0  0  0  0  0  0  0  0  0  0
  121.6584  107.3559  104.1652 H   0  0  0  0  0  0  0  0  0  0  0  0
  120.1970  106.5169  104.6118 H   0  0  0  0  0  0  0  0  0  0  0  0
  1  4  1  0  0  0  0
  1  5  2  0  0  0  0
  2  3  2  0  0  0  0
  2  8  1  0  0  0  0
  3 10  1  0  0  0  0
  4 11  2  0  0  0  0
  5 17  1  0  0  0  0
  6 14  2  0  0  0  0
  6 18  1  0  0  0  0
  7  9  1  0  0  0  0
  7 10  2  0  0  0  0
  7 14  1  0  0  0  0
  8  9  2  0  0  0  0
  8 16  1  0  0  0  0
  9 15  1  0  0  0  0
 10 18  1  0  0  0  0
 11 13  1  0  0  0  0
 11 17  1  0  0  0  0
 12 16  1  0  0  0  0
 13 16  1  0  0  0  0
  1 19  1  0  0  0  0
  2 20  1  0  0  0  0
  3 21  1  0  0  0  0
  4 22  1  0  0  0  0
  5 23  1  0  0  0  0
  6 24  1  0  0  0  0
 12 25  1  0  0  0  0
 12 26  1  0  0  0  0
 12 27  1  0  0  0  0
 13 28  1  0  0  0  0
 13 29  1  0  0  0  0
 15 30  1  0  0  0  0
 15 31  1  0  0  0  0
M  END
> <FRED Chemgauss4 score>
-9.376726

$$$$
C55351659	P83373187
  -OEChem-05122015313D

 30 32  0     0  0  0  0  0  0999 V2000
  123.2146  110.8931  113.0177 C   0  0  0  0  0  0  0  0  0  0  0  0
  123.0280  109.6608  113.6261 C   0  0  0  0  0  0  0  0  0  0  0  0
  123.6464  110.9477  111.6937 C   0  0  0  0  0  0  0  0  0  0  0  0
  123.2751  108.4937  112.9053 C   0  0  0  0  0  0  0  0  0  0  0  0
  122.2675  105.6946  108.8558 C   0  0  0  0  0  0  0  0  0  0  0  0
  123.7184  105.3005  106.9646 C   0  0  0  0  0  0  0  0  0  0  0  0
  121.2001  105.1350  108.1536 C   0  0  0  0  0  0  0  0  0  0  0  0
  122.6510  104.7409  106.2623 C   0  0  0  0  0  0  0  0  0  0  0  0
  123.8961  109.7875  110.9645 C   0  0  0  0  0  0  0  0  0  0  0  0
  123.7069  108.5373  111.5817 C   0  0  0  0  0  0  0  0  0  0  0  0
  123.5266  105.7774  108.2613 C   0  0  0  0  0  0  0  0  0  0  0  0
  121.3918  104.6581  106.8569 C   0  0  0  0  0  0  0  0  0  0  0  0
  124.5380  108.7145  109.0310 C   0  0  0  0  0  0  0  0  0  0  0  0
  124.3540  107.4977  109.6318 C   0  0  0  0  0  0  0  0  0  0  0  0
  124.9993  108.8234  107.6188 C   0  0  0  0  0  0  0  0  0  0  0  0
  124.3119  109.8662  109.6883 N   0  0  0  0  0  0  0  0  0  0  0  0
  123.9385  107.3975  110.9073 N   0  0  0  0  0  0  0  0  0  0  0  0
  124.5844  106.3326  108.9573 O   0  0  0  0  0  0  0  0  0  0  0  0
  119.9462  103.8979  105.9060 Br  0  0  0  0  0  0  0  0  0  0  0  0
  123.0250  111.8096  113.5677 H   0  0  0  0  0  0  0  0  0  0  0  0
  122.6909  109.6042  114.6567 H   0  0  0  0  0  0  0  0  0  0  0  0
  123.7879  111.9213  111.2283 H   0  0  0  0  0  0  0  0  0  0  0  0
  123.1239  107.5337  113.3948 H   0  0  0  0  0  0  0  0  0  0  0  0
  122.1117  106.0648  109.8654 H   0  0  0  0  0  0  0  0  0  0  0  0
  124.6968  105.3632  106.4959 H   0  0  0  0  0  0  0  0  0  0  0  0
  120.2253  105.0783  108.6311 H   0  0  0  0  0  0  0  0  0  0  0  0
  122.8174  104.3739  105.2529 H   0  0  0  0  0  0  0  0  0  0  0  0
  124.1410  108.8412  106.9350 H   0  0  0  0  0  0  0  0  0  0  0  0
  125.5882  109.7368  107.4594 H   0  0  0  0  0  0  0  0  0  0  0  0
  125.6450  107.9788  107.3424 H   0  0  0  0  0  0  0  0  0  0  0  0
  1  2  1  0  0  0  0
  1  3  2  0  0  0  0
  2  4  2  0  0  0  0
  3  9  1  0  0  0  0
  4 10  1  0  0  0  0
  5  7  2  0  0  0  0
  5 11  1  0  0  0  0
  6  8  1  0  0  0  0
  6 11  2  0  0  0  0
  7 12  1  0  0  0  0
  8 12  2  0  0  0  0
  9 10  2  0  0  0  0
  9 16  1  0  0  0  0
 10 17  1  0  0  0  0
 11 18  1  0  0  0  0
 12 19  1  0  0  0  0
 13 14  1  0  0  0  0
 13 15  1  0  0  0  0
 13 16  2  0  0  0  0
 14 17  2  0  0  0  0
 14 18  1  0  0  0  0
  1 20  1  0  0  0  0
  2 21  1  0  0  0  0
  3 22  1  0  0  0  0
  4 23  1  0  0  0  0
  5 24  1  0  0  0  0
  6 25  1  0  0  0  0
  7 26  1  0  0  0  0
  8 27  1  0  0  0  0
 15 28  1  0  0  0  0
 15 29  1  0  0  0  0
 15 30  1  0  0  0  0
M  END
> <FRED Chemgauss4 score>
-9.370412

$$$$
C80627122	P125899765
  -OEChem-05122015313D

 22 22  0     0  0  0  0  0  0999 V2000
  127.3849  107.4409  107.4478 C   0  0  0  0  0  0  0  0  0  0  0  0
  125.3956  107.4935  106.8180 C   0  0  0  0  0  0  0  0  0  0  0  0
  122.1003  105.9412  105.8736 C   0  0  0  0  0  0  0  0  0  0  0  0
  120.1521  104.3063  105.9160 C   0  0  0  0  0  0  0  0  0  0  0  0
  124.1100  107.4006  106.0480 C   0  0  0  0  0  0  0  0  0  0  0  0
  121.4909  104.6987  106.4959 C   0  0  0  0  0  0  0  0  0  0  0  0
  126.5883  107.1755  106.3710 N   0  0  0  0  0  0  0  0  0  0  0  0
  125.4893  107.9272  108.1036 N   0  0  0  0  0  0  0  0  0  0  0  0
  126.7602  107.9030  108.5329 N   0  0  0  0  0  0  0  0  0  0  0  0
  120.2074  103.4491  104.8497 N   0  0  0  0  0  0  0  0  0  0  0  0
  123.3130  106.2683  106.4609 N   0  0  0  0  0  0  0  0  0  0  0  0
  121.5672  106.5569  104.9541 O   0  0  0  0  0  0  0  0  0  0  0  0
  118.7066  104.8919  106.5167 S   0  0  0  0  0  0  0  0  0  0  0  0
  128.4557  107.2866  107.4244 H   0  0  0  0  0  0  0  0  0  0  0  0
  123.5090  108.3055  106.1894 H   0  0  0  0  0  0  0  0  0  0  0  0
  124.3013  107.3017  104.9743 H   0  0  0  0  0  0  0  0  0  0  0  0
  122.2025  103.8766  106.3473 H   0  0  0  0  0  0  0  0  0  0  0  0
  121.3928  104.8569  107.5770 H   0  0  0  0  0  0  0  0  0  0  0  0
  127.0354  108.1903  109.4681 H   0  0  0  0  0  0  0  0  0  0  0  0
  121.0965  103.1144  104.4935 H   0  0  0  0  0  0  0  0  0  0  0  0
  119.3734  103.1146  104.3779 H   0  0  0  0  0  0  0  0  0  0  0  0
  123.6590  105.7063  107.2331 H   0  0  0  0  0  0  0  0  0  0  0  0
  1  7  2  0  0  0  0
  1  9  1  0  0  0  0
  2  5  1  0  0  0  0
  2  7  1  0  0  0  0
  2  8  2  0  0  0  0
  3  6  1  0  0  0  0
  3 11  1  0  0  0  0
  3 12  2  0  0  0  0
  4  6  1  0  0  0  0
  4 10  1  0  0  0  0
  4 13  2  0  0  0  0
  5 11  1  0  0  0  0
  8  9  1  0  0  0  0
  1 14  1  0  0  0  0
  5 15  1  0  0  0  0
  5 16  1  0  0  0  0
  6 17  1  0  0  0  0
  6 18  1  0  0  0  0
  9 19  1  0  0  0  0
 10 20  1  0  0  0  0
 10 21  1  0  0  0  0
 11 22  1  0  0  0  0
M  END
> <FRED Chemgauss4 score>
-9.369360

$$$$
C79162526	P123601573
  -OEChem-05122015313D

 20 20  0     1  0  0  0  0  0999 V2000
  125.4186  105.4074  107.7911 C   0  0  0  0  0  0  0  0  0  0  0  0
  126.3524  105.6920  108.7594 C   0  0  0  0  0  0  0  0  0  0  0  0
  125.2454  107.4980  108.1513 C   0  0  0  0  0  0  0  0  0  0  0  0
  124.8492  108.9556  108.1393 C   0  0  0  0  0  0  0  0  0  0  0  0
  122.6421  108.5627  109.2922 C   0  0  0  0  0  0  0  0  0  0  0  0
  123.9642  109.3258  109.3341 C   0  0  2  0  0  0  0  0  0  0  0  0
  124.7331  106.5359  107.4166 N   0  0  0  0  0  0  0  0  0  0  0  0
  126.2299  107.0351  108.9794 N   0  0  0  0  0  0  0  0  0  0  0  0
  121.8255  108.9489  110.3929 O   0  0  0  0  0  0  0  0  0  0  0  0
  123.6782  110.7245  109.2723 O   0  0  0  0  0  0  0  0  0  0  0  0
  125.2061  104.4476  107.3436 H   0  0  0  0  0  0  0  0  0  0  0  0
  127.0676  105.0843  109.2941 H   0  0  0  0  0  0  0  0  0  0  0  0
  125.7562  109.5740  108.1324 H   0  0  0  0  0  0  0  0  0  0  0  0
  124.3252  109.1617  107.1972 H   0  0  0  0  0  0  0  0  0  0  0  0
  122.0847  108.7904  108.3780 H   0  0  0  0  0  0  0  0  0  0  0  0
  122.7988  107.4810  109.3505 H   0  0  0  0  0  0  0  0  0  0  0  0
  124.4794  109.1398  110.2838 H   0  0  0  0  0  0  0  0  0  0  0  0
  126.7677  107.5842  109.6370 H   0  0  0  0  0  0  0  0  0  0  0  0
  121.0032  108.4392  110.3207 H   0  0  0  0  0  0  0  0  0  0  0  0
  123.2185  110.8716  108.4324 H   0  0  0  0  0  0  0  0  0  0  0  0
  1  2  2  0  0  0  0
  1  7  1  0  0  0  0
  2  8  1  0  0  0  0
  3  4  1  0  0  0  0
  3  7  2  0  0  0  0
  3  8  1  0  0  0  0
  4  6  1  0  0  0  0
  5  6  1  0  0  0  0
  5  9  1  0  0  0  0
  6 10  1  0  0  0  0
  1 11  1  0  0  0  0
  2 12  1  0  0  0  0
  4 13  1  0  0  0  0
  4 14  1  0  0  0  0
  5 15  1  0  0  0  0
  5 16  1  0  0  0  0
  6 17  1  0  0  0  0
  8 18  1  0  0  0  0
  9 19  1  0  0  0  0
 10 20  1  0  0  0  0
M  END
> <FRED Chemgauss4 score>
-9.364269

$$$$
C86400076	P135284226
  -OEChem-05122015313D

 27 28  0     1  0  0  0  0  0999 V2000
  124.1123  108.0845  106.3686 C   0  0  0  0  0  0  0  0  0  0  0  0
  124.5293  104.0304  108.3877 C   0  0  0  0  0  0  0  0  0  0  0  0
  126.0585  104.0410  108.3899 C   0  0  0  0  0  0  0  0  0  0  0  0
  125.1533  106.2947  108.7386 C   0  0  0  0  0  0  0  0  0  0  0  0
  124.1207  105.4492  107.9911 C   0  0  1  0  0  0  0  0  0  0  0  0
  126.4549  105.4994  108.6316 C   0  0  1  0  0  0  0  0  0  0  0  0
  123.4070  106.7828  106.1185 C   0  0  0  0  0  0  0  0  0  0  0  0
  123.6102  109.0541  107.1566 N   0  5  0  0  0  0  0  0  0  0  0  0
  125.3059  108.3911  105.8257 N   0  0  0  0  0  0  0  0  0  0  0  0
  124.5497  110.0313  107.1041 N   0  0  0  0  0  0  0  0  0  0  0  0
  125.5685  109.6331  106.3046 N   0  0  0  0  0  0  0  0  0  0  0  0
  124.2049  105.6396  106.5439 N   0  0  0  0  0  0  0  0  0  0  0  0
  127.2258  105.6243  109.8893 N   0  3  0  0  0  0  0  0  0  0  0  0
  124.1734  103.2976  107.6492 H   0  0  0  0  0  0  0  0  0  0  0  0
  124.1180  103.7370  109.3613 H   0  0  0  0  0  0  0  0  0  0  0  0
  126.4498  103.3671  109.1580 H   0  0  0  0  0  0  0  0  0  0  0  0
  126.4332  103.6904  107.4240 H   0  0  0  0  0  0  0  0  0  0  0  0
  125.2854  107.2687  108.2406 H   0  0  0  0  0  0  0  0  0  0  0  0
  124.8507  106.5007  109.7760 H   0  0  0  0  0  0  0  0  0  0  0  0
  123.1237  105.6649  108.3263 H   0  0  0  0  0  0  0  0  0  0  0  0
  127.1148  105.8958  107.8328 H   0  0  0  0  0  0  0  0  0  0  0  0
  122.4549  106.7495  106.6591 H   0  0  0  0  0  0  0  0  0  0  0  0
  123.1814  106.6562  105.0544 H   0  0  0  0  0  0  0  0  0  0  0  0
  123.8649  104.8010  106.0720 H   0  0  0  0  0  0  0  0  0  0  0  0
  126.8794  104.9661  110.5925 H   0  0  0  0  0  0  0  0  0  0  0  0
  127.1451  106.5715  110.2695 H   0  0  0  0  0  0  0  0  0  0  0  0
  128.2172  105.4275  109.7266 H   0  0  0  0  0  0  0  0  0  0  0  0
  1  7  1  0  0  0  0
  1  8  1  0  0  0  0
  1  9  2  0  0  0  0
  2  3  1  0  0  0  0
  2  5  1  0  0  0  0
  3  6  1  0  0  0  0
  4  5  1  0  0  0  0
  4  6  1  0  0  0  0
  5 12  1  0  0  0  0
  6 13  1  0  0  0  0
  7 12  1  0  0  0  0
  8 10  1  0  0  0  0
  9 11  1  0  0  0  0
 10 11  2  0  0  0  0
  2 14  1  0  0  0  0
  2 15  1  0  0  0  0
  3 16  1  0  0  0  0
  3 17  1  0  0  0  0
  4 18  1  0  0  0  0
  4 19  1  0  0  0  0
  5 20  1  0  0  0  0
  6 21  1  0  0  0  0
  7 22  1  0  0  0  0
  7 23  1  0  0  0  0
 12 24  1  0  0  0  0
 13 25  1  0  0  0  0
 13 26  1  0  0  0  0
 13 27  1  0  0  0  0
M  CHG  2   8  -1  13   1
M  END
> <FRED Chemgauss4 score>
-9.361897

$$$$
C92988027	P145579086
  -OEChem-05122015313D

 38 39  0     1  0  0  0  0  0999 V2000
  124.0457  109.5035  108.6798 C   0  0  0  0  0  0  0  0  0  0  0  0
  122.6291  105.2715  106.5143 C   0  0  0  0  0  0  0  0  0  0  0  0
  123.7152  108.4344  111.7850 C   0  0  0  0  0  0  0  0  0  0  0  0
  123.6539  109.9601  111.8159 C   0  0  0  0  0  0  0  0  0  0  0  0
  124.4146  107.8487  110.5588 C   0  0  0  0  0  0  0  0  0  0  0  0
  119.9918  103.2643  104.6867 C   0  0  0  0  0  0  0  0  0  0  0  0
  119.1855  103.8813  105.7924 C   0  0  0  0  0  0  0  0  0  0  0  0
  122.8724  110.5589  110.6543 C   0  0  0  0  0  0  0  0  0  0  0  0
  123.6845  108.1351  109.2464 C   0  0  2  0  0  0  0  0  0  0  0  0
  120.5395  104.4396  105.4494 C   0  0  0  0  0  0  0  0  0  0  0  0
  123.6835  104.8493  107.5217 C   0  0  0  0  0  0  0  0  0  0  0  0
  123.7667  105.7970  108.7104 C   0  0  0  0  0  0  0  0  0  0  0  0
  123.6435  110.5909  109.4248 N   0  0  0  0  0  0  0  0  0  0  0  0
  121.6602  104.2926  106.3493 N   0  0  0  0  0  0  0  0  0  0  0  0
  124.0874  107.1369  108.2493 N   0  0  0  0  0  0  0  0  0  0  0  0
  124.6575  109.6486  107.6196 O   0  0  0  0  0  0  0  0  0  0  0  0
  122.6509  106.3521  105.9314 O   0  0  0  0  0  0  0  0  0  0  0  0
  124.2479  108.0946  112.6819 H   0  0  0  0  0  0  0  0  0  0  0  0
  122.6996  108.0255  111.8570 H   0  0  0  0  0  0  0  0  0  0  0  0
  123.1636  110.2547  112.7519 H   0  0  0  0  0  0  0  0  0  0  0  0
  124.6700  110.3721  111.8452 H   0  0  0  0  0  0  0  0  0  0  0  0
  125.4478  108.2173  110.5152 H   0  0  0  0  0  0  0  0  0  0  0  0
  124.4774  106.7642  110.7214 H   0  0  0  0  0  0  0  0  0  0  0  0
  120.4241  102.2870  104.8635 H   0  0  0  0  0  0  0  0  0  0  0  0
  119.6643  103.4325  103.6680 H   0  0  0  0  0  0  0  0  0  0  0  0
  118.3155  104.4649  105.5176 H   0  0  0  0  0  0  0  0  0  0  0  0
  119.0770  103.3169  106.7105 H   0  0  0  0  0  0  0  0  0  0  0  0
  121.9362  110.0200  110.4757 H   0  0  0  0  0  0  0  0  0  0  0  0
  122.6195  111.5998  110.8835 H   0  0  0  0  0  0  0  0  0  0  0  0
  122.5984  108.0661  109.3706 H   0  0  0  0  0  0  0  0  0  0  0  0
  120.5540  105.3926  104.9319 H   0  0  0  0  0  0  0  0  0  0  0  0
  123.4459  103.8349  107.8656 H   0  0  0  0  0  0  0  0  0  0  0  0
  124.6525  104.8033  107.0090 H   0  0  0  0  0  0  0  0  0  0  0  0
  124.5355  105.4632  109.4155 H   0  0  0  0  0  0  0  0  0  0  0  0
  122.8152  105.8188  109.2525 H   0  0  0  0  0  0  0  0  0  0  0  0
  123.9138  111.5067  109.0789 H   0  0  0  0  0  0  0  0  0  0  0  0
  121.7424  103.4337  106.8854 H   0  0  0  0  0  0  0  0  0  0  0  0
  125.0890  107.2161  108.0967 H   0  0  0  0  0  0  0  0  0  0  0  0
  1  9  1  0  0  0  0
  1 13  1  0  0  0  0
  1 16  2  0  0  0  0
  2 11  1  0  0  0  0
  2 14  1  0  0  0  0
  2 17  2  0  0  0  0
  3  4  1  0  0  0  0
  3  5  1  0  0  0  0
  4  8  1  0  0  0  0
  5  9  1  0  0  0  0
  6  7  1  0  0  0  0
  6 10  1  0  0  0  0
  7 10  1  0  0  0  0
  8 13  1  0  0  0  0
  9 15  1  0  0  0  0
 10 14  1  0  0  0  0
 11 12  1  0  0  0  0
 12 15  1  0  0  0  0
  3 18  1  0  0  0  0
  3 19  1  0  0  0  0
  4 20  1  0  0  0  0
  4 21  1  0  0  0  0
  5 22  1  0  0  0  0
  5 23  1  0  0  0  0
  6 24  1  0  0  0  0
  6 25  1  0  0  0  0
  7 26  1  0  0  0  0
  7 27  1  0  0  0  0
  8 28  1  0  0  0  0
  8 29  1  0  0  0  0
  9 30  1  0  0  0  0
 10 31  1  0  0  0  0
 11 32  1  0  0  0  0
 11 33  1  0  0  0  0
 12 34  1  0  0  0  0
 12 35  1  0  0  0  0
 13 36  1  0  0  0  0
 14 37  1  0  0  0  0
 15 38  1  0  0  0  0
M  END
> <FRED Chemgauss4 score>
-9.359529

$$$$
C27865868	P41105896
  -OEChem-05122015313D

 19 19  0     1  0  0  0  0  0999 V2000
  125.3760  107.8107  107.8253 C   0  0  0  0  0  0  0  0  0  0  0  0
  125.5682  105.9336  106.3664 C   0  0  0  0  0  0  0  0  0  0  0  0
  125.4905  106.5751  108.6990 C   0  0  1  0  0  0  0  0  0  0  0  0
  125.1877  105.3955  107.7502 C   0  0  1  0  0  0  0  0  0  0  0  0
  123.7039  105.0216  107.8059 C   0  0  0  0  0  0  0  0  0  0  0  0
  125.3428  107.3380  106.5233 N   0  0  0  0  0  0  0  0  0  0  0  0
  126.8823  106.4661  109.2087 N   0  3  0  0  0  0  0  0  0  0  0  0
  125.5658  108.1763  105.4655 O   0  5  0  0  0  0  0  0  0  0  0  0
  125.3769  108.9613  108.2358 O   0  0  0  0  0  0  0  0  0  0  0  0
  126.6327  105.7603  106.1667 H   0  0  0  0  0  0  0  0  0  0  0  0
  124.9626  105.5167  105.5549 H   0  0  0  0  0  0  0  0  0  0  0  0
  124.8243  106.6286  109.5642 H   0  0  0  0  0  0  0  0  0  0  0  0
  125.7703  104.4991  107.9930 H   0  0  0  0  0  0  0  0  0  0  0  0
  123.0984  105.8933  107.5688 H   0  0  0  0  0  0  0  0  0  0  0  0
  123.4531  104.6702  108.8040 H   0  0  0  0  0  0  0  0  0  0  0  0
  123.4985  104.2340  107.0848 H   0  0  0  0  0  0  0  0  0  0  0  0
  127.2665  105.5346  109.0226 H   0  0  0  0  0  0  0  0  0  0  0  0
  126.9127  106.6265  110.2204 H   0  0  0  0  0  0  0  0  0  0  0  0
  127.4904  107.1571  108.7584 H   0  0  0  0  0  0  0  0  0  0  0  0
  1  3  1  0  0  0  0
  1  6  1  0  0  0  0
  1  9  2  0  0  0  0
  2  4  1  0  0  0  0
  2  6  1  0  0  0  0
  3  4  1  0  0  0  0
  3  7  1  0  0  0  0
  4  5  1  0  0  0  0
  6  8  1  0  0  0  0
  2 10  1  0  0  0  0
  2 11  1  0  0  0  0
  3 12  1  0  0  0  0
  4 13  1  0  0  0  0
  5 14  1  0  0  0  0
  5 15  1  0  0  0  0
  5 16  1  0  0  0  0
  7 17  1  0  0  0  0
  7 18  1  0  0  0  0
  7 19  1  0  0  0  0
M  CHG  2   7   1   8  -1
M  END
> <FRED Chemgauss4 score>
-9.358046

$$$$
C71791139	P111281991
  -OEChem-05122015313D

 21 21  0     1  0  0  0  0  0999 V2000
  124.5041  108.4569  109.3935 C   0  0  0  0  0  0  0  0  0  0  0  0
  125.3286  109.2074  108.4787 C   0  0  0  0  0  0  0  0  0  0  0  0
  124.6143  107.1246  109.4959 C   0  0  0  0  0  0  0  0  0  0  0  0
  126.0456  108.5938  107.5255 C   0  0  0  0  0  0  0  0  0  0  0  0
  125.5959  106.3363  108.6635 C   0  0  1  0  0  0  0  0  0  0  0  0
  126.0627  107.0895  107.3795 C   0  0  2  0  0  0  0  0  0  0  0  0
  126.7893  105.9684  109.4923 N   0  3  0  0  0  0  0  0  0  0  0  0
  124.9445  105.3152  105.9390 O   0  5  0  0  0  0  0  0  0  0  0  0
  123.6591  107.3202  106.5777 O   0  0  0  0  0  0  0  0  0  0  0  0
  125.4893  107.5005  104.9351 O   0  0  0  0  0  0  0  0  0  0  0  0
  127.3640  106.6578  106.9843 O   0  0  0  0  0  0  0  0  0  0  0  0
  124.9011  106.7682  106.0501 S   0  0  0  0  0  0  0  0  0  0  0  0
  123.7742  109.0004  109.9837 H   0  0  0  0  0  0  0  0  0  0  0  0
  125.3836  110.2819  108.6092 H   0  0  0  0  0  0  0  0  0  0  0  0
  123.9556  106.5869  110.1757 H   0  0  0  0  0  0  0  0  0  0  0  0
  126.6589  109.1992  106.8629 H   0  0  0  0  0  0  0  0  0  0  0  0
  125.1208  105.3950  108.4220 H   0  0  0  0  0  0  0  0  0  0  0  0
  126.7011  105.0109  109.8373 H   0  0  0  0  0  0  0  0  0  0  0  0
  126.8722  106.5966  110.2939 H   0  0  0  0  0  0  0  0  0  0  0  0
  127.6434  106.0364  108.9358 H   0  0  0  0  0  0  0  0  0  0  0  0
  127.3188  105.6934  106.9060 H   0  0  0  0  0  0  0  0  0  0  0  0
  1  2  1  0  0  0  0
  1  3  2  0  0  0  0
  2  4  2  0  0  0  0
  3  5  1  0  0  0  0
  4  6  1  0  0  0  0
  5  6  1  0  0  0  0
  5  7  1  0  0  0  0
  6 11  1  0  0  0  0
  6 12  1  0  0  0  0
  8 12  1  0  0  0  0
  9 12  2  0  0  0  0
 10 12  2  0  0  0  0
  1 13  1  0  0  0  0
  2 14  1  0  0  0  0
  3 15  1  0  0  0  0
  4 16  1  0  0  0  0
  5 17  1  0  0  0  0
  7 18  1  0  0  0  0
  7 19  1  0  0  0  0
  7 20  1  0  0  0  0
 11 21  1  0  0  0  0
M  CHG  2   7   1   8  -1
M  END
> <FRED Chemgauss4 score>
-9.356073

$$$$
C53110661	P79635694
  -OEChem-05122015313D

 39 41  0     1  0  0  0  0  0999 V2000
  125.0326  107.0175  106.2530 C   0  0  0  0  0  0  0  0  0  0  0  0
  124.0589  104.3088  108.5169 C   0  0  0  0  0  0  0  0  0  0  0  0
  123.9407  107.0517  105.4036 C   0  0  0  0  0  0  0  0  0  0  0  0
  125.2459  104.5061  109.1819 C   0  0  0  0  0  0  0  0  0  0  0  0
  123.8862  105.2000  107.4055 C   0  0  0  0  0  0  0  0  0  0  0  0
  124.9808  106.0588  107.2719 C   0  0  0  0  0  0  0  0  0  0  0  0
  122.8323  105.3233  106.4864 C   0  0  0  0  0  0  0  0  0  0  0  0
  118.1406  103.9055  105.7841 C   0  0  0  0  0  0  0  0  0  0  0  0
  117.7450  105.1839  106.5272 C   0  0  0  0  0  0  0  0  0  0  0  0
  119.5739  103.4885  106.0924 C   0  0  0  0  0  0  0  0  0  0  0  0
  119.9982  105.9918  105.7157 C   0  0  0  0  0  0  0  0  0  0  0  0
  118.9317  106.1215  106.8109 C   0  0  1  0  0  0  0  0  0  0  0  0
  120.5990  104.5657  105.6663 C   0  0  2  0  0  0  0  0  0  0  0  0
  118.4567  107.5659  106.9552 C   0  0  0  0  0  0  0  0  0  0  0  0
  121.1326  104.2839  104.2551 C   0  0  0  0  0  0  0  0  0  0  0  0
  122.8667  106.2436  105.4969 N   0  0  0  0  0  0  0  0  0  0  0  0
  121.7313  104.4971  106.5801 N   0  0  0  0  0  0  0  0  0  0  0  0
  120.0571  103.8287  103.4602 O   0  0  0  0  0  0  0  0  0  0  0  0
  126.1680  105.7589  108.4850 S   0  0  0  0  0  0  0  0  0  0  0  0
  125.8724  107.6914  106.1333 H   0  0  0  0  0  0  0  0  0  0  0  0
  123.3414  103.5545  108.8159 H   0  0  0  0  0  0  0  0  0  0  0  0
  123.9039  107.7668  104.5874 H   0  0  0  0  0  0  0  0  0  0  0  0
  125.6129  103.9706  110.0461 H   0  0  0  0  0  0  0  0  0  0  0  0
  117.4424  103.1005  106.0448 H   0  0  0  0  0  0  0  0  0  0  0  0
  118.0323  104.0693  104.7048 H   0  0  0  0  0  0  0  0  0  0  0  0
  116.9809  105.7200  105.9366 H   0  0  0  0  0  0  0  0  0  0  0  0
  117.2529  104.9089  107.4761 H   0  0  0  0  0  0  0  0  0  0  0  0
  119.6659  103.2816  107.1626 H   0  0  0  0  0  0  0  0  0  0  0  0
  119.7885  102.5543  105.5636 H   0  0  0  0  0  0  0  0  0  0  0  0
  119.5482  106.2241  104.7469 H   0  0  0  0  0  0  0  0  0  0  0  0
  120.7907  106.7231  105.8899 H   0  0  0  0  0  0  0  0  0  0  0  0
  119.3773  105.8218  107.7734 H   0  0  0  0  0  0  0  0  0  0  0  0
  118.0084  107.9010  106.0218 H   0  0  0  0  0  0  0  0  0  0  0  0
  119.3012  108.2085  107.1971 H   0  0  0  0  0  0  0  0  0  0  0  0
  117.7173  107.6323  107.7512 H   0  0  0  0  0  0  0  0  0  0  0  0
  121.9017  103.5180  104.3053 H   0  0  0  0  0  0  0  0  0  0  0  0
  121.5398  105.1985  103.8327 H   0  0  0  0  0  0  0  0  0  0  0  0
  121.6962  103.8073  107.3153 H   0  0  0  0  0  0  0  0  0  0  0  0
  120.4097  103.6544  102.5698 H   0  0  0  0  0  0  0  0  0  0  0  0
  1  3  2  0  0  0  0
  1  6  1  0  0  0  0
  2  4  2  0  0  0  0
  2  5  1  0  0  0  0
  3 16  1  0  0  0  0
  4 19  1  0  0  0  0
  5  6  2  0  0  0  0
  5  7  1  0  0  0  0
  6 19  1  0  0  0  0
  7 16  2  0  0  0  0
  7 17  1  0  0  0  0
  8  9  1  0  0  0  0
  8 10  1  0  0  0  0
  9 12  1  0  0  0  0
 10 13  1  0  0  0  0
 11 12  1  0  0  0  0
 11 13  1  0  0  0  0
 12 14  1  0  0  0  0
 13 15  1  0  0  0  0
 13 17  1  0  0  0  0
 15 18  1  0  0  0  0
  1 20  1  0  0  0  0
  2 21  1  0  0  0  0
  3 22  1  0  0  0  0
  4 23  1  0  0  0  0
  8 24  1  0  0  0  0
  8 25  1  0  0  0  0
  9 26  1  0  0  0  0
  9 27  1  0  0  0  0
 10 28  1  0  0  0  0
 10 29  1  0  0  0  0
 11 30  1  0  0  0  0
 11 31  1  0  0  0  0
 12 32  1  0  0  0  0
 14 33  1  0  0  0  0
 14 34  1  0  0  0  0
 14 35  1  0  0  0  0
 15 36  1  0  0  0  0
 15 37  1  0  0  0  0
 17 38  1  0  0  0  0
 18 39  1  0  0  0  0
M  END
> <FRED Chemgauss4 score>
-9.353102

$$$$
C34797558	P51637068
  -OEChem-05122015313D

 24 25  0     1  0  0  0  0  0999 V2000
  123.0074  113.7632  113.1752 C   0  0  0  0  0  0  0  0  0  0  0  0
  123.4991  113.8215  111.8898 C   0  0  0  0  0  0  0  0  0  0  0  0
  123.1622  111.4820  113.1310 C   0  0  0  0  0  0  0  0  0  0  0  0
  123.6532  111.5402  111.8453 C   0  0  0  0  0  0  0  0  0  0  0  0
  124.0034  110.2927  111.1325 C   0  0  0  0  0  0  0  0  0  0  0  0
  124.6612  108.9416  109.6360 C   0  0  0  0  0  0  0  0  0  0  0  0
  124.3399  108.7769  107.1335 C   0  0  0  0  0  0  0  0  0  0  0  0
  125.1949  108.3854  108.3361 C   0  0  1  0  0  0  0  0  0  0  0  0
  123.8758  109.0592  111.6598 N   0  5  0  0  0  0  0  0  0  0  0  0
  122.8302  112.5924  113.8189 N   0  0  0  0  0  0  0  0  0  0  0  0
  123.8308  112.7110  111.2017 N   0  0  0  0  0  0  0  0  0  0  0  0
  124.4863  110.2466  109.8836 N   0  0  0  0  0  0  0  0  0  0  0  0
  124.3023  108.1848  110.6915 N   0  0  0  0  0  0  0  0  0  0  0  0
  126.6030  108.8082  108.0623 N   0  3  0  0  0  0  0  0  0  0  0  0
  122.7400  114.6554  113.7277 H   0  0  0  0  0  0  0  0  0  0  0  0
  123.6435  114.7629  111.3739 H   0  0  0  0  0  0  0  0  0  0  0  0
  123.0155  110.5471  113.6604 H   0  0  0  0  0  0  0  0  0  0  0  0
  124.2559  109.8640  107.0246 H   0  0  0  0  0  0  0  0  0  0  0  0
  124.7687  108.3825  106.2055 H   0  0  0  0  0  0  0  0  0  0  0  0
  123.3256  108.3736  107.2297 H   0  0  0  0  0  0  0  0  0  0  0  0
  125.2407  107.2914  108.3910 H   0  0  0  0  0  0  0  0  0  0  0  0
  127.2269  107.9998  108.0833 H   0  0  0  0  0  0  0  0  0  0  0  0
  126.9150  109.4789  108.7668 H   0  0  0  0  0  0  0  0  0  0  0  0
  126.6693  109.2472  107.1424 H   0  0  0  0  0  0  0  0  0  0  0  0
  1  2  2  0  0  0  0
  1 10  1  0  0  0  0
  2 11  1  0  0  0  0
  3  4  1  0  0  0  0
  3 10  2  0  0  0  0
  4  5  1  0  0  0  0
  4 11  2  0  0  0  0
  5  9  1  0  0  0  0
  5 12  2  0  0  0  0
  6  8  1  0  0  0  0
  6 12  1  0  0  0  0
  6 13  2  0  0  0  0
  7  8  1  0  0  0  0
  8 14  1  0  0  0  0
  9 13  1  0  0  0  0
  1 15  1  0  0  0  0
  2 16  1  0  0  0  0
  3 17  1  0  0  0  0
  7 18  1  0  0  0  0
  7 19  1  0  0  0  0
  7 20  1  0  0  0  0
  8 21  1  0  0  0  0
 14 22  1  0  0  0  0
 14 23  1  0  0  0  0
 14 24  1  0  0  0  0
M  CHG  2   9  -1  14   1
M  END
> <FRED Chemgauss4 score>
-9.346650

$$$$
C70680111	P109060696
  -OEChem-05122015313D

 32 32  0     1  0  0  0  0  0999 V2000
  118.3201  106.3792  106.4869 C   0  0  0  0  0  0  0  0  0  0  0  0
  123.0457  105.2366  106.3076 C   0  0  0  0  0  0  0  0  0  0  0  0
  124.2505  105.0179  107.1704 C   0  0  0  0  0  0  0  0  0  0  0  0
  117.7352  105.2843  105.6291 C   0  0  0  0  0  0  0  0  0  0  0  0
  118.3121  104.0149  106.2505 C   0  0  0  0  0  0  0  0  0  0  0  0
  119.6523  104.4573  106.8251 C   0  0  1  0  0  0  0  0  0  0  0  0
  120.7941  104.3204  105.8268 C   0  0  0  0  0  0  0  0  0  0  0  0
  126.8536  106.6775  108.3603 C   0  0  0  0  0  0  0  0  0  0  0  0
  125.5908  106.0839  108.9617 C   0  0  0  0  0  0  0  0  0  0  0  0
  119.4128  105.8400  107.1578 N   0  0  0  0  0  0  0  0  0  0  0  0
  126.6688  108.0433  107.9492 N   0  0  0  0  0  0  0  0  0  0  0  0
  122.0423  104.3027  106.5152 N   0  0  0  0  0  0  0  0  0  0  0  0
  124.4964  106.0726  108.0195 N   0  0  0  0  0  0  0  0  0  0  0  0
  117.9139  107.5298  106.5389 O   0  0  0  0  0  0  0  0  0  0  0  0
  123.0534  106.1906  105.5462 O   0  0  0  0  0  0  0  0  0  0  0  0
  124.8560  103.9650  107.0503 O   0  0  0  0  0  0  0  0  0  0  0  0
  116.6434  105.2967  105.6695 H   0  0  0  0  0  0  0  0  0  0  0  0
  118.0755  105.4201  104.5980 H   0  0  0  0  0  0  0  0  0  0  0  0
  117.6545  103.6885  107.0668 H   0  0  0  0  0  0  0  0  0  0  0  0
  118.3876  103.1898  105.5361 H   0  0  0  0  0  0  0  0  0  0  0  0
  119.8910  103.9108  107.7431 H   0  0  0  0  0  0  0  0  0  0  0  0
  120.7726  105.1662  105.1503 H   0  0  0  0  0  0  0  0  0  0  0  0
  120.6777  103.3942  105.2777 H   0  0  0  0  0  0  0  0  0  0  0  0
  127.1811  106.1129  107.4815 H   0  0  0  0  0  0  0  0  0  0  0  0
  127.6609  106.6710  109.0993 H   0  0  0  0  0  0  0  0  0  0  0  0
  125.7661  105.0465  109.2629 H   0  0  0  0  0  0  0  0  0  0  0  0
  125.2633  106.6496  109.8398 H   0  0  0  0  0  0  0  0  0  0  0  0
  119.9972  106.3752  107.7922 H   0  0  0  0  0  0  0  0  0  0  0  0
  125.8009  108.3120  107.5139 H   0  0  0  0  0  0  0  0  0  0  0  0
  127.4669  108.6573  107.9127 H   0  0  0  0  0  0  0  0  0  0  0  0
  122.2069  103.5592  107.2008 H   0  0  0  0  0  0  0  0  0  0  0  0
  123.8905  106.8875  107.9887 H   0  0  0  0  0  0  0  0  0  0  0  0
  1  4  1  0  0  0  0
  1 10  1  0  0  0  0
  1 14  2  0  0  0  0
  2  3  1  0  0  0  0
  2 12  1  0  0  0  0
  2 15  2  0  0  0  0
  3 13  1  0  0  0  0
  3 16  2  0  0  0  0
  4  5  1  0  0  0  0
  5  6  1  0  0  0  0
  6  7  1  0  0  0  0
  6 10  1  0  0  0  0
  7 12  1  0  0  0  0
  8  9  1  0  0  0  0
  8 11  1  0  0  0  0
  9 13  1  0  0  0  0
  4 17  1  0  0  0  0
  4 18  1  0  0  0  0
  5 19  1  0  0  0  0
  5 20  1  0  0  0  0
  6 21  1  0  0  0  0
  7 22  1  0  0  0  0
  7 23  1  0  0  0  0
  8 24  1  0  0  0  0
  8 25  1  0  0  0  0
  9 26  1  0  0  0  0
  9 27  1  0  0  0  0
 10 28  1  0  0  0  0
 11 29  1  0  0  0  0
 11 30  1  0  0  0  0
 12 31  1  0  0  0  0
 13 32  1  0  0  0  0
M  END
> <FRED Chemgauss4 score>
-9.342613

$$$$
C41058628	P62323748
  -OEChem-05122015313D

 29 29  0     1  0  0  0  0  0999 V2000
  124.2314  108.2565  108.7537 C   0  0  0  0  0  0  0  0  0  0  0  0
  123.0575  108.9898  110.3161 C   0  0  0  0  0  0  0  0  0  0  0  0
  122.5857  110.8051  113.6906 C   0  0  0  0  0  0  0  0  0  0  0  0
  124.4565  106.3188  106.0953 C   0  0  0  0  0  0  0  0  0  0  0  0
  122.3883  109.7759  111.3651 C   0  0  0  0  0  0  0  0  0  0  0  0
  123.2632  109.9599  112.6237 C   0  0  0  0  0  0  0  0  0  0  0  0
  125.2663  108.2173  107.6377 C   0  0  1  0  0  0  0  0  0  0  0  0
  124.6249  107.8250  106.2842 C   0  0  1  0  0  0  0  0  0  0  0  0
  123.9970  109.3836  109.4881 N   0  0  0  0  0  0  0  0  0  0  0  0
  123.4961  107.1901  109.0753 N   0  0  0  0  0  0  0  0  0  0  0  0
  122.7538  107.6858  110.0770 N   0  0  0  0  0  0  0  0  0  0  0  0
  125.9714  109.5010  107.5521 N   0  0  0  0  0  0  0  0  0  0  0  0
  125.4575  108.2947  105.2183 O   0  0  0  0  0  0  0  0  0  0  0  0
  122.3272  111.7950  113.3012 H   0  0  0  0  0  0  0  0  0  0  0  0
  121.6688  110.3252  114.0475 H   0  0  0  0  0  0  0  0  0  0  0  0
  123.2534  110.9411  114.5471 H   0  0  0  0  0  0  0  0  0  0  0  0
  125.4036  105.7843  106.2099 H   0  0  0  0  0  0  0  0  0  0  0  0
  124.0407  106.0919  105.1074 H   0  0  0  0  0  0  0  0  0  0  0  0
  123.7499  105.9200  106.8319 H   0  0  0  0  0  0  0  0  0  0  0  0
  122.0972  110.7821  110.9961 H   0  0  0  0  0  0  0  0  0  0  0  0
  121.4301  109.3083  111.6754 H   0  0  0  0  0  0  0  0  0  0  0  0
  123.5081  108.9776  113.0458 H   0  0  0  0  0  0  0  0  0  0  0  0
  124.2136  110.4300  112.3434 H   0  0  0  0  0  0  0  0  0  0  0  0
  126.0112  107.4517  107.8929 H   0  0  0  0  0  0  0  0  0  0  0  0
  123.6466  108.3028  106.1581 H   0  0  0  0  0  0  0  0  0  0  0  0
  122.0783  107.0862  110.5363 H   0  0  0  0  0  0  0  0  0  0  0  0
  126.4309  109.7201  106.6986 H   0  0  0  0  0  0  0  0  0  0  0  0
  126.1330  109.9968  108.3982 H   0  0  0  0  0  0  0  0  0  0  0  0
  124.9913  108.0803  104.3976 H   0  0  0  0  0  0  0  0  0  0  0  0
  1  7  1  0  0  0  0
  1  9  1  0  0  0  0
  1 10  2  0  0  0  0
  2  5  1  0  0  0  0
  2  9  2  0  0  0  0
  2 11  1  0  0  0  0
  3  6  1  0  0  0  0
  4  8  1  0  0  0  0
  5  6  1  0  0  0  0
  7  8  1  0  0  0  0
  7 12  1  0  0  0  0
  8 13  1  0  0  0  0
 10 11  1  0  0  0  0
  3 14  1  0  0  0  0
  3 15  1  0  0  0  0
  3 16  1  0  0  0  0
  4 17  1  0  0  0  0
  4 18  1  0  0  0  0
  4 19  1  0  0  0  0
  5 20  1  0  0  0  0
  5 21  1  0  0  0  0
  6 22  1  0  0  0  0
  6 23  1  0  0  0  0
  7 24  1  0  0  0  0
  8 25  1  0  0  0  0
 11 26  1  0  0  0  0
 12 27  1  0  0  0  0
 12 28  1  0  0  0  0
 13 29  1  0  0  0  0
M  END
> <FRED Chemgauss4 score>
-9.338164

$$$$
C87588455	P137001872
  -OEChem-05122015313D

 29 29  0     1  0  0  0  0  0999 V2000
  124.4780  106.7859  106.3682 C   0  0  0  0  0  0  0  0  0  0  0  0
  126.1292  108.0749  106.9348 C   0  0  0  0  0  0  0  0  0  0  0  0
  118.9794  103.6815  106.0204 C   0  0  0  0  0  0  0  0  0  0  0  0
  122.2718  105.8456  107.2649 C   0  0  0  0  0  0  0  0  0  0  0  0
  121.2513  104.7102  107.2486 C   0  0  0  0  0  0  0  0  0  0  0  0
  123.5089  105.6186  106.3678 C   0  0  2  0  0  0  0  0  0  0  0  0
  124.4795  107.8101  105.5452 N   0  0  0  0  0  0  0  0  0  0  0  0
  125.5300  108.6303  105.9057 N   0  0  0  0  0  0  0  0  0  0  0  0
  125.4998  106.9117  107.2597 N   0  0  0  0  0  0  0  0  0  0  0  0
  127.2042  108.4993  107.6373 N   0  0  0  0  0  0  0  0  0  0  0  0
  124.1838  104.3874  106.8013 N   0  0  0  0  0  0  0  0  0  0  0  0
  125.8299  106.0142  108.3015 N   0  0  0  0  0  0  0  0  0  0  0  0
  120.2778  105.7312  105.0480 O   0  0  0  0  0  0  0  0  0  0  0  0
  121.3576  103.4513  104.9603 O   0  0  0  0  0  0  0  0  0  0  0  0
  120.5471  104.4381  105.6548 S   0  0  0  0  0  0  0  0  0  0  0  0
  118.4684  103.4758  105.0785 H   0  0  0  0  0  0  0  0  0  0  0  0
  119.1632  102.7548  106.5661 H   0  0  0  0  0  0  0  0  0  0  0  0
  118.3962  104.3745  106.6285 H   0  0  0  0  0  0  0  0  0  0  0  0
  122.5861  106.0048  108.3046 H   0  0  0  0  0  0  0  0  0  0  0  0
  121.7681  106.7704  106.9525 H   0  0  0  0  0  0  0  0  0  0  0  0
  121.6748  103.7610  107.5868 H   0  0  0  0  0  0  0  0  0  0  0  0
  120.4137  104.9592  107.9082 H   0  0  0  0  0  0  0  0  0  0  0  0
  123.1629  105.4397  105.3429 H   0  0  0  0  0  0  0  0  0  0  0  0
  127.7233  109.3501  107.3797 H   0  0  0  0  0  0  0  0  0  0  0  0
  127.6100  107.9430  108.4026 H   0  0  0  0  0  0  0  0  0  0  0  0
  125.1327  104.2655  106.5365 H   0  0  0  0  0  0  0  0  0  0  0  0
  123.6175  103.6527  107.1550 H   0  0  0  0  0  0  0  0  0  0  0  0
  125.0157  105.5235  108.6851 H   0  0  0  0  0  0  0  0  0  0  0  0
  126.2562  106.4811  109.1088 H   0  0  0  0  0  0  0  0  0  0  0  0
  1  6  1  0  0  0  0
  1  7  2  0  0  0  0
  1  9  1  0  0  0  0
  2  8  2  0  0  0  0
  2  9  1  0  0  0  0
  2 10  1  0  0  0  0
  3 15  1  0  0  0  0
  4  5  1  0  0  0  0
  4  6  1  0  0  0  0
  5 15  1  0  0  0  0
  6 11  1  0  0  0  0
  7  8  1  0  0  0  0
  9 12  1  0  0  0  0
 13 15  2  0  0  0  0
 14 15  2  0  0  0  0
  3 16  1  0  0  0  0
  3 17  1  0  0  0  0
  3 18  1  0  0  0  0
  4 19  1  0  0  0  0
  4 20  1  0  0  0  0
  5 21  1  0  0  0  0
  5 22  1  0  0  0  0
  6 23  1  0  0  0  0
 10 24  1  0  0  0  0
 10 25  1  0  0  0  0
 11 26  1  0  0  0  0
 11 27  1  0  0  0  0
 12 28  1  0  0  0  0
 12 29  1  0  0  0  0
M  END
> <FRED Chemgauss4 score>
-9.334168

$$$$
C06184893	P09576532
  -OEChem-05122015313D

 35 35  0     1  0  0  0  0  0999 V2000
  124.6983  107.8202  106.1930 C   0  0  1  0  0  0  0  0  0  0  0  0
  125.0841  106.3475  106.3650 C   0  0  2  0  0  0  0  0  0  0  0  0
  124.8604  108.6036  107.4958 C   0  0  1  0  0  0  0  0  0  0  0  0
  124.3864  105.7233  107.5832 C   0  0  2  0  0  0  0  0  0  0  0  0
  124.1009  107.8939  108.6173 C   0  0  1  0  0  0  0  0  0  0  0  0
  122.9150  105.4013  107.3310 C   0  0  0  0  0  0  0  0  0  0  0  0
  122.5440  108.7597  113.1483 C   0  0  0  0  0  0  0  0  0  0  0  0
  123.3128  108.3077  110.7932 C   0  0  0  0  0  0  0  0  0  0  0  0
  123.5996  109.0548  112.0907 C   0  0  2  0  0  0  0  0  0  0  0  0
  124.5432  106.5418  108.7527 O   0  0  0  0  0  0  0  0  0  0  0  0
  125.4715  108.4297  105.1655 O   0  0  0  0  0  0  0  0  0  0  0  0
  126.4988  106.2535  106.5554 O   0  0  0  0  0  0  0  0  0  0  0  0
  126.2399  108.6848  107.8602 O   0  0  0  0  0  0  0  0  0  0  0  0
  122.3728  104.8242  108.5046 O   0  0  0  0  0  0  0  0  0  0  0  0
  122.8777  109.4596  114.3423 O   0  0  0  0  0  0  0  0  0  0  0  0
  124.8647  108.6242  112.5982 O   0  0  0  0  0  0  0  0  0  0  0  0
  124.3126  108.6108  109.8317 O   0  0  0  0  0  0  0  0  0  0  0  0
  123.6377  107.8976  105.8345 H   0  0  0  0  0  0  0  0  0  0  0  0
  124.8247  105.8014  105.4650 H   0  0  0  0  0  0  0  0  0  0  0  0
  124.4709  109.5930  107.3679 H   0  0  0  0  0  0  0  0  0  0  0  0
  124.8844  104.7256  107.8006 H   0  0  0  0  0  0  0  0  0  0  0  0
  123.0452  107.9044  108.4136 H   0  0  0  0  0  0  0  0  0  0  0  0
  122.8255  104.6940  106.5067 H   0  0  0  0  0  0  0  0  0  0  0  0
  122.3700  106.3147  107.0933 H   0  0  0  0  0  0  0  0  0  0  0  0
  122.5066  107.6910  113.3843 H   0  0  0  0  0  0  0  0  0  0  0  0
  121.5550  109.0972  112.8228 H   0  0  0  0  0  0  0  0  0  0  0  0
  122.3422  108.5886  110.3727 H   0  0  0  0  0  0  0  0  0  0  0  0
  123.3299  107.2245  110.9497 H   0  0  0  0  0  0  0  0  0  0  0  0
  123.6801  110.1338  111.9171 H   0  0  0  0  0  0  0  0  0  0  0  0
  125.2847  107.9352  104.3536 H   0  0  0  0  0  0  0  0  0  0  0  0
  126.7046  105.3107  106.6602 H   0  0  0  0  0  0  0  0  0  0  0  0
  126.6957  109.1399  107.1336 H   0  0  0  0  0  0  0  0  0  0  0  0
  121.4382  104.6281  108.3210 H   0  0  0  0  0  0  0  0  0  0  0  0
  122.1868  109.2489  114.9900 H   0  0  0  0  0  0  0  0  0  0  0  0
  124.7813  107.6739  112.7657 H   0  0  0  0  0  0  0  0  0  0  0  0
  1  2  1  0  0  0  0
  1  3  1  0  0  0  0
  1 11  1  0  0  0  0
  2  4  1  0  0  0  0
  2 12  1  0  0  0  0
  3  5  1  0  0  0  0
  3 13  1  0  0  0  0
  4  6  1  0  0  0  0
  4 10  1  0  0  0  0
  5 10  1  0  0  0  0
  5 17  1  0  0  0  0
  6 14  1  0  0  0  0
  7  9  1  0  0  0  0
  7 15  1  0  0  0  0
  8  9  1  0  0  0  0
  8 17  1  0  0  0  0
  9 16  1  0  0  0  0
  1 18  1  0  0  0  0
  2 19  1  0  0  0  0
  3 20  1  0  0  0  0
  4 21  1  0  0  0  0
  5 22  1  0  0  0  0
  6 23  1  0  0  0  0
  6 24  1  0  0  0  0
  7 25  1  0  0  0  0
  7 26  1  0  0  0  0
  8 27  1  0  0  0  0
  8 28  1  0  0  0  0
  9 29  1  0  0  0  0
 11 30  1  0  0  0  0
 12 31  1  0  0  0  0
 13 32  1  0  0  0  0
 14 33  1  0  0  0  0
 15 34  1  0  0  0  0
 16 35  1  0  0  0  0
M  END
> <FRED Chemgauss4 score>
-9.330869

$$$$
C87969103	P137597619
  -OEChem-05122015313D

 41 42  0     1  0  0  0  0  0999 V2000
  121.9725  106.5135  105.6897 C   0  0  0  0  0  0  0  0  0  0  0  0
  123.0350  107.2866  107.2875 C   0  0  0  0  0  0  0  0  0  0  0  0
  119.5059  104.3659  106.4840 C   0  0  0  0  0  0  0  0  0  0  0  0
  120.6848  104.2386  105.5161 C   0  0  0  0  0  0  0  0  0  0  0  0
  118.3215  105.0945  105.8601 C   0  0  0  0  0  0  0  0  0  0  0  0
  119.8675  106.2689  104.2597 C   0  0  0  0  0  0  0  0  0  0  0  0
  121.1104  105.5681  104.8554 C   0  0  1  0  0  0  0  0  0  0  0  0
  118.7377  106.4513  105.2836 C   0  0  1  0  0  0  0  0  0  0  0  0
  117.9116  108.4872  104.0961 C   0  0  0  0  0  0  0  0  0  0  0  0
  117.5390  107.1495  104.6420 C   0  0  0  0  0  0  0  0  0  0  0  0
  124.9851  108.5027  108.4095 C   0  0  0  0  0  0  0  0  0  0  0  0
  126.0793  107.8380  107.5806 C   0  0  0  0  0  0  0  0  0  0  0  0
  123.7164  107.6129  108.5475 C   0  0  1  0  0  0  0  0  0  0  0  0
  122.3182  106.2352  106.9800 N   0  0  0  0  0  0  0  0  0  0  0  0
  122.4366  107.6669  105.1998 N   0  0  0  0  0  0  0  0  0  0  0  0
  122.8286  108.2748  109.5044 N   0  0  0  0  0  0  0  0  0  0  0  0
  123.1560  108.1913  106.2810 O   0  0  0  0  0  0  0  0  0  0  0  0
  127.2019  108.7087  107.5246 O   0  0  0  0  0  0  0  0  0  0  0  0
  119.1993  103.3655  106.8197 H   0  0  0  0  0  0  0  0  0  0  0  0
  119.8346  104.9042  107.3838 H   0  0  0  0  0  0  0  0  0  0  0  0
  121.5479  103.7990  106.0564 H   0  0  0  0  0  0  0  0  0  0  0  0
  120.4305  103.4971  104.7330 H   0  0  0  0  0  0  0  0  0  0  0  0
  117.8718  104.4730  105.0863 H   0  0  0  0  0  0  0  0  0  0  0  0
  117.5639  105.2557  106.6291 H   0  0  0  0  0  0  0  0  0  0  0  0
  120.1606  107.2574  103.8824 H   0  0  0  0  0  0  0  0  0  0  0  0
  119.5024  105.7075  103.3915 H   0  0  0  0  0  0  0  0  0  0  0  0
  121.7658  105.2915  103.9643 H   0  0  0  0  0  0  0  0  0  0  0  0
  119.0919  107.0784  106.0859 H   0  0  0  0  0  0  0  0  0  0  0  0
  118.3014  109.1162  104.9050 H   0  0  0  0  0  0  0  0  0  0  0  0
  117.0404  108.9909  103.6641 H   0  0  0  0  0  0  0  0  0  0  0  0
  118.6906  108.3953  103.3318 H   0  0  0  0  0  0  0  0  0  0  0  0
  117.1500  106.5184  103.8403 H   0  0  0  0  0  0  0  0  0  0  0  0
  116.7530  107.2621  105.3914 H   0  0  0  0  0  0  0  0  0  0  0  0
  124.7378  109.4691  107.9485 H   0  0  0  0  0  0  0  0  0  0  0  0
  125.3836  108.7607  109.3995 H   0  0  0  0  0  0  0  0  0  0  0  0
  126.4023  106.8935  108.0284 H   0  0  0  0  0  0  0  0  0  0  0  0
  125.7346  107.6504  106.5588 H   0  0  0  0  0  0  0  0  0  0  0  0
  124.0384  106.6949  109.0885 H   0  0  0  0  0  0  0  0  0  0  0  0
  123.2433  108.8440  110.2079 H   0  0  0  0  0  0  0  0  0  0  0  0
  121.8802  107.9748  109.5444 H   0  0  0  0  0  0  0  0  0  0  0  0
  127.8781  108.2592  106.9926 H   0  0  0  0  0  0  0  0  0  0  0  0
  1  7  1  0  0  0  0
  1 14  1  0  0  0  0
  1 15  2  0  0  0  0
  2 13  1  0  0  0  0
  2 14  2  0  0  0  0
  2 17  1  0  0  0  0
  3  4  1  0  0  0  0
  3  5  1  0  0  0  0
  4  7  1  0  0  0  0
  5  8  1  0  0  0  0
  6  7  1  0  0  0  0
  6  8  1  0  0  0  0
  8 10  1  0  0  0  0
  9 10  1  0  0  0  0
 11 12  1  0  0  0  0
 11 13  1  0  0  0  0
 12 18  1  0  0  0  0
 13 16  1  0  0  0  0
 15 17  1  0  0  0  0
  3 19  1  0  0  0  0
  3 20  1  0  0  0  0
  4 21  1  0  0  0  0
  4 22  1  0  0  0  0
  5 23  1  0  0  0  0
  5 24  1  0  0  0  0
  6 25  1  0  0  0  0
  6 26  1  0  0  0  0
  7 27  1  0  0  0  0
  8 28  1  0  0  0  0
  9 29  1  0  0  0  0
  9 30  1  0  0  0  0
  9 31  1  0  0  0  0
 10 32  1  0  0  0  0
 10 33  1  0  0  0  0
 11 34  1  0  0  0  0
 11 35  1  0  0  0  0
 12 36  1  0  0  0  0
 12 37  1  0  0  0  0
 13 38  1  0  0  0  0
 16 39  1  0  0  0  0
 16 40  1  0  0  0  0
 18 41  1  0  0  0  0
M  END
> <FRED Chemgauss4 score>
-9.324746

$$$$
C86576375	P135532690
  -OEChem-05122015313D

 28 28  0     1  0  0  0  0  0999 V2000
  122.9950  108.1619  110.3049 C   0  0  0  0  0  0  0  0  0  0  0  0
  123.8156  107.1706  109.7784 C   0  0  0  0  0  0  0  0  0  0  0  0
  123.2299  109.4715  109.9181 C   0  0  0  0  0  0  0  0  0  0  0  0
  124.8317  107.5143  108.8936 C   0  0  0  0  0  0  0  0  0  0  0  0
  124.9842  108.8529  108.5698 C   0  0  0  0  0  0  0  0  0  0  0  0
  124.2395  106.0145  106.2562 C   0  0  0  0  0  0  0  0  0  0  0  0
  125.0814  103.1857  106.7348 C   0  0  0  0  0  0  0  0  0  0  0  0
  125.7278  106.4257  108.3193 C   0  0  2  0  0  0  0  0  0  0  0  0
  124.9145  105.4068  107.4841 C   0  0  2  0  0  0  0  0  0  0  0  0
  124.2068  109.8438  109.0611 N   0  0  0  0  0  0  0  0  0  0  0  0
  126.0179  109.2076  107.6677 N   0  0  0  0  0  0  0  0  0  0  0  0
  126.4853  105.7726  109.3926 N   0  0  0  0  0  0  0  0  0  0  0  0
  125.7940  104.3777  107.0178 O   0  0  0  0  0  0  0  0  0  0  0  0
  122.1965  107.9170  110.9958 H   0  0  0  0  0  0  0  0  0  0  0  0
  123.6553  106.1344  110.0634 H   0  0  0  0  0  0  0  0  0  0  0  0
  122.6186  110.2823  110.3007 H   0  0  0  0  0  0  0  0  0  0  0  0
  124.9570  106.5197  105.6036 H   0  0  0  0  0  0  0  0  0  0  0  0
  123.4643  106.7309  106.5495 H   0  0  0  0  0  0  0  0  0  0  0  0
  123.7398  105.2337  105.6718 H   0  0  0  0  0  0  0  0  0  0  0  0
  125.7764  102.4199  106.3818 H   0  0  0  0  0  0  0  0  0  0  0  0
  124.3242  103.3851  105.9724 H   0  0  0  0  0  0  0  0  0  0  0  0
  124.5931  102.8381  107.6483 H   0  0  0  0  0  0  0  0  0  0  0  0
  126.4562  106.9040  107.6508 H   0  0  0  0  0  0  0  0  0  0  0  0
  124.1480  104.9173  108.0957 H   0  0  0  0  0  0  0  0  0  0  0  0
  126.6295  108.4955  107.3327 H   0  0  0  0  0  0  0  0  0  0  0  0
  126.1681  110.1715  107.4634 H   0  0  0  0  0  0  0  0  0  0  0  0
  126.7682  106.3308  110.1646 H   0  0  0  0  0  0  0  0  0  0  0  0
  126.8553  104.8679  109.2127 H   0  0  0  0  0  0  0  0  0  0  0  0
  1  2  2  0  0  0  0
  1  3  1  0  0  0  0
  2  4  1  0  0  0  0
  3 10  2  0  0  0  0
  4  5  2  0  0  0  0
  4  8  1  0  0  0  0
  5 10  1  0  0  0  0
  5 11  1  0  0  0  0
  6  9  1  0  0  0  0
  7 13  1  0  0  0  0
  8  9  1  0  0  0  0
  8 12  1  0  0  0  0
  9 13  1  0  0  0  0
  1 14  1  0  0  0  0
  2 15  1  0  0  0  0
  3 16  1  0  0  0  0
  6 17  1  0  0  0  0
  6 18  1  0  0  0  0
  6 19  1  0  0  0  0
  7 20  1  0  0  0  0
  7 21  1  0  0  0  0
  7 22  1  0  0  0  0
  8 23  1  0  0  0  0
  9 24  1  0  0  0  0
 11 25  1  0  0  0  0
 11 26  1  0  0  0  0
 12 27  1  0  0  0  0
 12 28  1  0  0  0  0
M  END
> <FRED Chemgauss4 score>
-9.322527

$$$$
C47822425	P71595812
  -OEChem-05122015313D

 37 36  0     0  0  0  0  0  0999 V2000
  126.0405  108.4006  107.5085 C   0  0  0  0  0  0  0  0  0  0  0  0
  117.2889  106.1499  104.8103 C   0  0  0  0  0  0  0  0  0  0  0  0
  121.8188  104.9417  107.0141 C   0  0  0  0  0  0  0  0  0  0  0  0
  125.5710  109.7757  107.8508 C   0  0  0  0  0  0  0  0  0  0  0  0
  116.1394  106.1848  103.8586 C   0  0  0  0  0  0  0  0  0  0  0  0
  125.0654  105.2238  107.7397 C   0  0  0  0  0  0  0  0  0  0  0  0
  126.1701  106.0710  108.3679 C   0  0  0  0  0  0  0  0  0  0  0  0
  123.7698  105.2026  108.5478 C   0  0  0  0  0  0  0  0  0  0  0  0
  118.5900  104.6477  106.3046 C   0  0  0  0  0  0  0  0  0  0  0  0
  119.8812  104.2402  105.6151 C   0  0  0  0  0  0  0  0  0  0  0  0
  125.8010  107.4544  108.4929 N   0  0  0  0  0  0  0  0  0  0  0  0
  117.5308  104.9037  105.3658 N   0  0  0  0  0  0  0  0  0  0  0  0
  122.7416  104.4175  107.9216 N   0  0  0  0  0  0  0  0  0  0  0  0
  120.9361  103.9642  106.5617 N   0  0  0  0  0  0  0  0  0  0  0  0
  126.5826  108.1988  106.4283 O   0  0  0  0  0  0  0  0  0  0  0  0
  117.9210  107.1761  105.0320 O   0  0  0  0  0  0  0  0  0  0  0  0
  121.7905  106.1193  106.6588 O   0  0  0  0  0  0  0  0  0  0  0  0
  126.3447  110.3683  108.3650 H   0  0  0  0  0  0  0  0  0  0  0  0
  125.3006  110.3621  106.9580 H   0  0  0  0  0  0  0  0  0  0  0  0
  124.6869  109.8223  108.5066 H   0  0  0  0  0  0  0  0  0  0  0  0
  115.1855  106.4151  104.3596 H   0  0  0  0  0  0  0  0  0  0  0  0
  116.2570  106.9610  103.0854 H   0  0  0  0  0  0  0  0  0  0  0  0
  115.9575  105.2498  103.3048 H   0  0  0  0  0  0  0  0  0  0  0  0
  125.4358  104.1981  107.6217 H   0  0  0  0  0  0  0  0  0  0  0  0
  124.8444  105.6040  106.7348 H   0  0  0  0  0  0  0  0  0  0  0  0
  126.4389  105.7051  109.3635 H   0  0  0  0  0  0  0  0  0  0  0  0
  127.0672  106.0371  107.7416 H   0  0  0  0  0  0  0  0  0  0  0  0
  123.3765  106.2192  108.6478 H   0  0  0  0  0  0  0  0  0  0  0  0
  123.9308  104.8021  109.5534 H   0  0  0  0  0  0  0  0  0  0  0  0
  118.7250  105.5557  106.9010 H   0  0  0  0  0  0  0  0  0  0  0  0
  118.2468  103.8451  106.9648 H   0  0  0  0  0  0  0  0  0  0  0  0
  119.7270  103.3278  105.0309 H   0  0  0  0  0  0  0  0  0  0  0  0
  120.2396  105.0264  104.9429 H   0  0  0  0  0  0  0  0  0  0  0  0
  125.3390  107.7555  109.3502 H   0  0  0  0  0  0  0  0  0  0  0  0
  116.9272  104.1288  105.0953 H   0  0  0  0  0  0  0  0  0  0  0  0
  122.6830  103.4269  108.1518 H   0  0  0  0  0  0  0  0  0  0  0  0
  121.0643  103.0071  106.8748 H   0  0  0  0  0  0  0  0  0  0  0  0
  1  4  1  0  0  0  0
  1 11  1  0  0  0  0
  1 15  2  0  0  0  0
  2  5  1  0  0  0  0
  2 12  1  0  0  0  0
  2 16  2  0  0  0  0
  3 13  1  0  0  0  0
  3 14  1  0  0  0  0
  3 17  2  0  0  0  0
  6  7  1  0  0  0  0
  6  8  1  0  0  0  0
  7 11  1  0  0  0  0
  8 13  1  0  0  0  0
  9 10  1  0  0  0  0
  9 12  1  0  0  0  0
 10 14  1  0  0  0  0
  4 18  1  0  0  0  0
  4 19  1  0  0  0  0
  4 20  1  0  0  0  0
  5 21  1  0  0  0  0
  5 22  1  0  0  0  0
  5 23  1  0  0  0  0
  6 24  1  0  0  0  0
  6 25  1  0  0  0  0
  7 26  1  0  0  0  0
  7 27  1  0  0  0  0
  8 28  1  0  0  0  0
  8 29  1  0  0  0  0
  9 30  1  0  0  0  0
  9 31  1  0  0  0  0
 10 32  1  0  0  0  0
 10 33  1  0  0  0  0
 11 34  1  0  0  0  0
 12 35  1  0  0  0  0
 13 36  1  0  0  0  0
 14 37  1  0  0  0  0
M  END
> <FRED Chemgauss4 score>
-9.318749

$$$$
C54503944	P82019601
  -OEChem-05122015313D

 27 29  0     1  0  0  0  0  0999 V2000
  125.5771  105.7776  107.5229 C   0  0  0  0  0  0  0  0  0  0  0  0
  125.3180  107.6740  108.3556 C   0  0  0  0  0  0  0  0  0  0  0  0
  124.0065  103.8074  106.8060 C   0  0  0  0  0  0  0  0  0  0  0  0
  125.2594  103.1840  107.3365 C   0  0  0  0  0  0  0  0  0  0  0  0
  123.1199  110.1972  110.3421 C   0  0  0  0  0  0  0  0  0  0  0  0
  123.3343  108.8041  110.8643 C   0  0  0  0  0  0  0  0  0  0  0  0
  125.3187  104.5466  106.6867 C   0  0  0  0  0  0  0  0  0  0  0  0
  123.5021  109.0913  109.3978 C   0  0  0  0  0  0  0  0  0  0  0  0
  124.8568  109.0683  108.7791 C   0  0  2  0  0  0  0  0  0  0  0  0
  124.7343  106.8519  107.5148 N   0  0  0  0  0  0  0  0  0  0  0  0
  126.6455  105.8832  108.3158 N   0  0  0  0  0  0  0  0  0  0  0  0
  126.4558  107.1050  108.8367 N   0  0  0  0  0  0  0  0  0  0  0  0
  124.9563  109.9835  107.6476 N   0  0  0  0  0  0  0  0  0  0  0  0
  123.5779  103.3881  105.9033 H   0  0  0  0  0  0  0  0  0  0  0  0
  123.2751  104.1591  107.5241 H   0  0  0  0  0  0  0  0  0  0  0  0
  125.3714  103.1166  108.4124 H   0  0  0  0  0  0  0  0  0  0  0  0
  125.6763  102.3447  106.7924 H   0  0  0  0  0  0  0  0  0  0  0  0
  122.1050  110.5743  110.3162 H   0  0  0  0  0  0  0  0  0  0  0  0
  123.8699  110.9434  110.5740 H   0  0  0  0  0  0  0  0  0  0  0  0
  124.2280  108.6163  111.4466 H   0  0  0  0  0  0  0  0  0  0  0  0
  122.4629  108.2483  111.1877 H   0  0  0  0  0  0  0  0  0  0  0  0
  125.7615  104.5739  105.6757 H   0  0  0  0  0  0  0  0  0  0  0  0
  122.7403  108.7208  108.7226 H   0  0  0  0  0  0  0  0  0  0  0  0
  125.6014  109.4595  109.5019 H   0  0  0  0  0  0  0  0  0  0  0  0
  127.1301  107.4717  109.4981 H   0  0  0  0  0  0  0  0  0  0  0  0
  125.6751  109.8234  106.9746 H   0  0  0  0  0  0  0  0  0  0  0  0
  124.4470  110.8405  107.6894 H   0  0  0  0  0  0  0  0  0  0  0  0
  1  7  1  0  0  0  0
  1 10  1  0  0  0  0
  1 11  2  0  0  0  0
  2  9  1  0  0  0  0
  2 10  2  0  0  0  0
  2 12  1  0  0  0  0
  3  4  1  0  0  0  0
  3  7  1  0  0  0  0
  4  7  1  0  0  0  0
  5  6  1  0  0  0  0
  5  8  1  0  0  0  0
  6  8  1  0  0  0  0
  8  9  1  0  0  0  0
  9 13  1  0  0  0  0
 11 12  1  0  0  0  0
  3 14  1  0  0  0  0
  3 15  1  0  0  0  0
  4 16  1  0  0  0  0
  4 17  1  0  0  0  0
  5 18  1  0  0  0  0
  5 19  1  0  0  0  0
  6 20  1  0  0  0  0
  6 21  1  0  0  0  0
  7 22  1  0  0  0  0
  8 23  1  0  0  0  0
  9 24  1  0  0  0  0
 12 25  1  0  0  0  0
 13 26  1  0  0  0  0
 13 27  1  0  0  0  0
M  END
> <FRED Chemgauss4 score>
-9.315277

$$$$
C42920684	P64883577
  -OEChem-05122015313D

 19 19  0     1  0  0  0  0  0999 V2000
  124.8655  107.4244  106.0732 C   0  0  0  0  0  0  0  0  0  0  0  0
  125.8800  108.0492  107.0379 C   0  0  0  0  0  0  0  0  0  0  0  0
  125.3395  106.0968  108.4296 C   0  0  0  0  0  0  0  0  0  0  0  0
  125.2667  105.3378  107.1139 C   0  0  1  0  0  0  0  0  0  0  0  0
  124.4819  104.0421  107.2725 C   0  0  0  0  0  0  0  0  0  0  0  0
  124.5887  106.1644  106.1097 N   0  0  0  0  0  0  0  0  0  0  0  0
  126.0423  107.3358  108.2081 N   0  0  0  0  0  0  0  0  0  0  0  0
  123.0374  104.3562  107.2794 N   0  3  0  0  0  0  0  0  0  0  0  0
  124.4285  108.3423  105.3602 O   0  5  0  0  0  0  0  0  0  0  0  0
  126.4914  109.0732  106.7645 O   0  0  0  0  0  0  0  0  0  0  0  0
  124.3444  106.3454  108.8155 H   0  0  0  0  0  0  0  0  0  0  0  0
  125.8819  105.5303  109.1928 H   0  0  0  0  0  0  0  0  0  0  0  0
  126.2743  105.0960  106.7518 H   0  0  0  0  0  0  0  0  0  0  0  0
  124.7156  103.5526  108.2177 H   0  0  0  0  0  0  0  0  0  0  0  0
  124.6664  103.3649  106.4388 H   0  0  0  0  0  0  0  0  0  0  0  0
  126.6677  107.6898  108.9254 H   0  0  0  0  0  0  0  0  0  0  0  0
  122.4882  103.5741  107.6569 H   0  0  0  0  0  0  0  0  0  0  0  0
  122.6943  104.5481  106.3299 H   0  0  0  0  0  0  0  0  0  0  0  0
  122.8391  105.1834  107.8558 H   0  0  0  0  0  0  0  0  0  0  0  0
  1  2  1  0  0  0  0
  1  6  2  0  0  0  0
  1  9  1  0  0  0  0
  2  7  1  0  0  0  0
  2 10  2  0  0  0  0
  3  4  1  0  0  0  0
  3  7  1  0  0  0  0
  4  5  1  0  0  0  0
  4  6  1  0  0  0  0
  5  8  1  0  0  0  0
  3 11  1  0  0  0  0
  3 12  1  0  0  0  0
  4 13  1  0  0  0  0
  5 14  1  0  0  0  0
  5 15  1  0  0  0  0
  7 16  1  0  0  0  0
  8 17  1  0  0  0  0
  8 18  1  0  0  0  0
  8 19  1  0  0  0  0
M  CHG  2   8   1   9  -1
M  END
> <FRED Chemgauss4 score>
-9.314797

$$$$
C45073360	P67936567
  -OEChem-05122015313D

 35 36  0     1  0  0  0  0  0999 V2000
  120.6871  106.2355  104.8371 C   0  0  0  0  0  0  0  0  0  0  0  0
  120.3423  104.2493  105.9629 C   0  0  0  0  0  0  0  0  0  0  0  0
  122.0637  105.7350  105.1753 C   0  0  0  0  0  0  0  0  0  0  0  0
  117.5420  104.3617  104.3988 C   0  0  0  0  0  0  0  0  0  0  0  0
  117.7696  105.6680  103.6979 C   0  0  0  0  0  0  0  0  0  0  0  0
  121.8271  104.4947  106.0241 C   0  0  1  0  0  0  0  0  0  0  0  0
  118.3456  105.4424  105.0690 C   0  0  0  0  0  0  0  0  0  0  0  0
  124.4131  105.7086  107.3173 C   0  0  0  0  0  0  0  0  0  0  0  0
  123.5792  104.4737  107.6390 C   0  0  0  0  0  0  0  0  0  0  0  0
  124.0027  106.9194  108.1443 C   0  0  0  0  0  0  0  0  0  0  0  0
  119.7745  105.2994  105.2726 N   0  0  0  0  0  0  0  0  0  0  0  0
  124.2845  109.4790  108.7926 N   0  0  0  0  0  0  0  0  0  0  0  0
  122.1566  104.6848  107.4084 N   0  0  0  0  0  0  0  0  0  0  0  0
  120.4650  107.2882  104.2548 O   0  0  0  0  0  0  0  0  0  0  0  0
  119.7715  103.3122  106.5045 O   0  0  0  0  0  0  0  0  0  0  0  0
  126.3417  108.0839  108.1302 O   0  0  0  0  0  0  0  0  0  0  0  0
  124.6505  108.7178  106.3628 O   0  0  0  0  0  0  0  0  0  0  0  0
  124.9690  108.3369  107.7279 S   0  0  0  0  0  0  0  0  0  0  0  0
  122.5850  105.4793  104.2469 H   0  0  0  0  0  0  0  0  0  0  0  0
  122.6305  106.5153  105.6929 H   0  0  0  0  0  0  0  0  0  0  0  0
  116.5448  104.1556  104.7680 H   0  0  0  0  0  0  0  0  0  0  0  0
  118.0736  103.4926  104.0314 H   0  0  0  0  0  0  0  0  0  0  0  0
  118.4544  105.6781  102.8589 H   0  0  0  0  0  0  0  0  0  0  0  0
  116.9252  106.3385  103.5965 H   0  0  0  0  0  0  0  0  0  0  0  0
  122.3531  103.6286  105.6164 H   0  0  0  0  0  0  0  0  0  0  0  0
  117.8670  105.9658  105.8896 H   0  0  0  0  0  0  0  0  0  0  0  0
  124.2992  105.9432  106.2518 H   0  0  0  0  0  0  0  0  0  0  0  0
  125.4771  105.4949  107.4790 H   0  0  0  0  0  0  0  0  0  0  0  0
  123.8929  103.6181  107.0325 H   0  0  0  0  0  0  0  0  0  0  0  0
  123.6951  104.2063  108.6939 H   0  0  0  0  0  0  0  0  0  0  0  0
  122.9564  107.1859  107.9670 H   0  0  0  0  0  0  0  0  0  0  0  0
  124.1464  106.7455  109.2147 H   0  0  0  0  0  0  0  0  0  0  0  0
  124.8521  109.7889  109.5909 H   0  0  0  0  0  0  0  0  0  0  0  0
  123.7002  110.2205  108.3872 H   0  0  0  0  0  0  0  0  0  0  0  0
  121.6232  104.0249  107.9737 H   0  0  0  0  0  0  0  0  0  0  0  0
  1  3  1  0  0  0  0
  1 11  1  0  0  0  0
  1 14  2  0  0  0  0
  2  6  1  0  0  0  0
  2 11  1  0  0  0  0
  2 15  2  0  0  0  0
  3  6  1  0  0  0  0
  4  5  1  0  0  0  0
  4  7  1  0  0  0  0
  5  7  1  0  0  0  0
  6 13  1  0  0  0  0
  7 11  1  0  0  0  0
  8  9  1  0  0  0  0
  8 10  1  0  0  0  0
  9 13  1  0  0  0  0
 10 18  1  0  0  0  0
 12 18  1  0  0  0  0
 16 18  2  0  0  0  0
 17 18  2  0  0  0  0
  3 19  1  0  0  0  0
  3 20  1  0  0  0  0
  4 21  1  0  0  0  0
  4 22  1  0  0  0  0
  5 23  1  0  0  0  0
  5 24  1  0  0  0  0
  6 25  1  0  0  0  0
  7 26  1  0  0  0  0
  8 27  1  0  0  0  0
  8 28  1  0  0  0  0
  9 29  1  0  0  0  0
  9 30  1  0  0  0  0
 10 31  1  0  0  0  0
 10 32  1  0  0  0  0
 12 33  1  0  0  0  0
 12 34  1  0  0  0  0
 13 35  1  0  0  0  0
M  END
> <FRED Chemgauss4 score>
-9.307771

$$$$
C51362684	P76947179
  -OEChem-05122015313D

 28 30  0     1  0  0  0  0  0999 V2000
  122.4162  104.0303  106.8345 C   0  0  0  0  0  0  0  0  0  0  0  0
  123.5053  104.5946  107.5038 C   0  0  0  0  0  0  0  0  0  0  0  0
  119.0129  105.2873  106.6518 C   0  0  0  0  0  0  0  0  0  0  0  0
  117.6103  105.4190  106.8649 C   0  0  0  0  0  0  0  0  0  0  0  0
  122.3171  105.9138  105.2854 C   0  0  0  0  0  0  0  0  0  0  0  0
  121.8268  104.6843  105.7345 C   0  0  0  0  0  0  0  0  0  0  0  0
  123.9669  105.8080  107.0381 C   0  0  0  0  0  0  0  0  0  0  0  0
  123.3923  106.4514  105.9610 C   0  0  0  0  0  0  0  0  0  0  0  0
  119.2995  104.4552  105.5921 C   0  0  0  0  0  0  0  0  0  0  0  0
  116.8781  104.6826  105.9595 C   0  0  0  0  0  0  0  0  0  0  0  0
  125.0291  107.7317  106.6347 C   0  0  0  0  0  0  0  0  0  0  0  0
  125.8874  106.3559  108.5627 C   0  0  0  0  0  0  0  0  0  0  0  0
  120.6637  104.0552  105.0416 C   0  0  1  0  0  0  0  0  0  0  0  0
  124.9982  106.6189  107.4594 N   0  0  0  0  0  0  0  0  0  0  0  0
  125.8063  108.6768  106.6956 O   0  0  0  0  0  0  0  0  0  0  0  0
  124.0133  107.6555  105.6639 O   0  0  0  0  0  0  0  0  0  0  0  0
  117.8809  103.8369  104.8589 S   0  0  0  0  0  0  0  0  0  0  0  0
  115.1732  104.5493  105.8481 Cl  0  0  0  0  0  0  0  0  0  0  0  0
  120.6844  104.3080  103.2591 Cl  0  0  0  0  0  0  0  0  0  0  0  0
  122.0232  103.0741  107.1728 H   0  0  0  0  0  0  0  0  0  0  0  0
  123.9573  104.0909  108.3501 H   0  0  0  0  0  0  0  0  0  0  0  0
  119.7702  105.7800  107.2484 H   0  0  0  0  0  0  0  0  0  0  0  0
  117.1669  106.0253  107.6448 H   0  0  0  0  0  0  0  0  0  0  0  0
  121.8719  106.4260  104.4397 H   0  0  0  0  0  0  0  0  0  0  0  0
  126.7620  105.7994  108.2159 H   0  0  0  0  0  0  0  0  0  0  0  0
  125.3758  105.7662  109.3282 H   0  0  0  0  0  0  0  0  0  0  0  0
  126.2228  107.2955  109.0101 H   0  0  0  0  0  0  0  0  0  0  0  0
  120.7419  102.9571  105.1230 H   0  0  0  0  0  0  0  0  0  0  0  0
  1  2  2  0  0  0  0
  1  6  1  0  0  0  0
  2  7  1  0  0  0  0
  3  4  1  0  0  0  0
  3  9  2  0  0  0  0
  4 10  2  0  0  0  0
  5  6  2  0  0  0  0
  5  8  1  0  0  0  0
  6 13  1  0  0  0  0
  7  8  2  0  0  0  0
  7 14  1  0  0  0  0
  8 16  1  0  0  0  0
  9 13  1  0  0  0  0
  9 17  1  0  0  0  0
 10 17  1  0  0  0  0
 10 18  1  0  0  0  0
 11 14  1  0  0  0  0
 11 15  2  0  0  0  0
 11 16  1  0  0  0  0
 12 14  1  0  0  0  0
 13 19  1  0  0  0  0
  1 20  1  0  0  0  0
  2 21  1  0  0  0  0
  3 22  1  0  0  0  0
  4 23  1  0  0  0  0
  5 24  1  0  0  0  0
 12 25  1  0  0  0  0
 12 26  1  0  0  0  0
 12 27  1  0  0  0  0
 13 28  1  0  0  0  0
M  END
> <FRED Chemgauss4 score>
-9.302015

$$$$
C62209210	P95475553
  -OEChem-05122015313D

 41 43  0     1  0  0  0  0  0999 V2000
  122.1664  106.4823  108.6828 C   0  0  0  0  0  0  0  0  0  0  0  0
  123.3766  105.1877  107.0408 C   0  0  0  0  0  0  0  0  0  0  0  0
  120.9593  106.0692  108.1191 C   0  0  0  0  0  0  0  0  0  0  0  0
  122.1695  104.7744  106.4770 C   0  0  0  0  0  0  0  0  0  0  0  0
  123.3750  106.0416  108.1437 C   0  0  0  0  0  0  0  0  0  0  0  0
  120.9609  105.2152  107.0162 C   0  0  0  0  0  0  0  0  0  0  0  0
  126.3089  107.5247  107.3483 C   0  0  0  0  0  0  0  0  0  0  0  0
  126.5709  106.0380  107.2935 C   0  0  0  0  0  0  0  0  0  0  0  0
  124.4776  109.4760  109.9042 C   0  0  0  0  0  0  0  0  0  0  0  0
  125.4889  110.1319  109.0094 C   0  0  0  0  0  0  0  0  0  0  0  0
  124.6892  106.4908  108.7566 C   0  0  1  0  0  0  0  0  0  0  0  0
  124.6449  109.0019  108.4864 C   0  0  0  0  0  0  0  0  0  0  0  0
  125.8207  105.4783  108.5087 C   0  0  2  0  0  0  0  0  0  0  0  0
  119.4735  103.2469  106.4992 C   0  0  0  0  0  0  0  0  0  0  0  0
  119.5083  105.2401  104.9562 C   0  0  0  0  0  0  0  0  0  0  0  0
  119.6697  104.7725  106.4150 C   0  0  0  0  0  0  0  0  0  0  0  0
  125.2170  107.7212  108.1935 N   0  0  0  0  0  0  0  0  0  0  0  0
  126.7275  105.4118  109.6595 N   0  0  0  0  0  0  0  0  0  0  0  0
  126.9356  108.3662  106.7215 O   0  0  0  0  0  0  0  0  0  0  0  0
  122.1557  107.1483  109.5417 H   0  0  0  0  0  0  0  0  0  0  0  0
  124.3137  104.8385  106.6151 H   0  0  0  0  0  0  0  0  0  0  0  0
  120.0225  106.4162  108.5466 H   0  0  0  0  0  0  0  0  0  0  0  0
  122.1797  104.1091  105.6177 H   0  0  0  0  0  0  0  0  0  0  0  0
  126.1999  105.6087  106.3547 H   0  0  0  0  0  0  0  0  0  0  0  0
  127.6564  105.8797  107.3609 H   0  0  0  0  0  0  0  0  0  0  0  0
  124.8467  108.8479  110.7058 H   0  0  0  0  0  0  0  0  0  0  0  0
  123.5812  110.0333  110.1472 H   0  0  0  0  0  0  0  0  0  0  0  0
  125.2726  111.1305  108.6500 H   0  0  0  0  0  0  0  0  0  0  0  0
  126.5361  109.9435  109.2118 H   0  0  0  0  0  0  0  0  0  0  0  0
  124.5297  106.6666  109.8363 H   0  0  0  0  0  0  0  0  0  0  0  0
  123.8587  109.2671  107.7878 H   0  0  0  0  0  0  0  0  0  0  0  0
  125.4430  104.4948  108.2886 H   0  0  0  0  0  0  0  0  0  0  0  0
  120.2686  102.7084  105.9722 H   0  0  0  0  0  0  0  0  0  0  0  0
  118.5176  102.9411  106.0601 H   0  0  0  0  0  0  0  0  0  0  0  0
  119.4831  102.9173  107.5442 H   0  0  0  0  0  0  0  0  0  0  0  0
  120.3149  104.8368  104.3338 H   0  0  0  0  0  0  0  0  0  0  0  0
  119.5403  106.3324  104.8799 H   0  0  0  0  0  0  0  0  0  0  0  0
  118.5570  104.9052  104.5283 H   0  0  0  0  0  0  0  0  0  0  0  0
  118.8240  105.2187  106.9721 H   0  0  0  0  0  0  0  0  0  0  0  0
  127.6790  105.1507  109.4995 H   0  0  0  0  0  0  0  0  0  0  0  0
  126.3314  105.4271  110.5772 H   0  0  0  0  0  0  0  0  0  0  0  0
  1  3  2  0  0  0  0
  1  5  1  0  0  0  0
  2  4  1  0  0  0  0
  2  5  2  0  0  0  0
  3  6  1  0  0  0  0
  4  6  2  0  0  0  0
  5 11  1  0  0  0  0
  6 16  1  0  0  0  0
  7  8  1  0  0  0  0
  7 17  1  0  0  0  0
  7 19  2  0  0  0  0
  8 13  1  0  0  0  0
  9 10  1  0  0  0  0
  9 12  1  0  0  0  0
 10 12  1  0  0  0  0
 11 13  1  0  0  0  0
 11 17  1  0  0  0  0
 12 17  1  0  0  0  0
 13 18  1  0  0  0  0
 14 16  1  0  0  0  0
 15 16  1  0  0  0  0
  1 20  1  0  0  0  0
  2 21  1  0  0  0  0
  3 22  1  0  0  0  0
  4 23  1  0  0  0  0
  8 24  1  0  0  0  0
  8 25  1  0  0  0  0
  9 26  1  0  0  0  0
  9 27  1  0  0  0  0
 10 28  1  0  0  0  0
 10 29  1  0  0  0  0
 11 30  1  0  0  0  0
 12 31  1  0  0  0  0
 13 32  1  0  0  0  0
 14 33  1  0  0  0  0
 14 34  1  0  0  0  0
 14 35  1  0  0  0  0
 15 36  1  0  0  0  0
 15 37  1  0  0  0  0
 15 38  1  0  0  0  0
 16 39  1  0  0  0  0
 18 40  1  0  0  0  0
 18 41  1  0  0  0  0
M  END
> <FRED Chemgauss4 score>
-9.301330

$$$$
C97762331	P155116902
  -OEChem-05122015313D

 45 45  0     1  0  0  0  0  0999 V2000
  124.9239  104.1084  108.4286 C   0  0  0  0  0  0  0  0  0  0  0  0
  123.4730  104.1029  107.9538 C   0  0  0  0  0  0  0  0  0  0  0  0
  125.5093  105.5155  108.4058 C   0  0  0  0  0  0  0  0  0  0  0  0
  123.9626  106.1624  106.5826 C   0  0  0  0  0  0  0  0  0  0  0  0
  123.3495  104.7571  106.5713 C   0  0  2  0  0  0  0  0  0  0  0  0
  118.7908  104.8729  106.6461 C   0  0  0  0  0  0  0  0  0  0  0  0
  117.9618  107.1999  104.3390 C   0  0  0  0  0  0  0  0  0  0  0  0
  125.6275  108.5571  107.9741 C   0  0  0  0  0  0  0  0  0  0  0  0
  121.8896  104.8088  106.1272 C   0  0  0  0  0  0  0  0  0  0  0  0
  121.1194  106.0169  106.6968 C   0  0  1  0  0  0  0  0  0  0  0  0
  119.6401  106.0777  106.2500 C   0  0  1  0  0  0  0  0  0  0  0  0
  125.3848  106.0861  107.0330 N   0  0  1  0  0  0  0  0  0  0  0  0
  120.8547  107.3409  108.6055 N   0  0  0  0  0  0  0  0  0  0  0  0
  121.1735  106.0250  108.1638 N   0  0  0  0  0  0  0  0  0  0  0  0
  120.5651  107.2668  104.1138 O   0  0  0  0  0  0  0  0  0  0  0  0
  119.3761  105.0548  103.8591 O   0  0  0  0  0  0  0  0  0  0  0  0
  125.9668  108.0197  105.4397 O   0  0  0  0  0  0  0  0  0  0  0  0
  127.6939  107.2174  107.1006 O   0  0  0  0  0  0  0  0  0  0  0  0
  119.5115  106.3490  104.4952 S   0  0  0  0  0  0  0  0  0  0  0  0
  126.3215  107.4911  106.7377 S   0  0  0  0  0  0  0  0  0  0  0  0
  124.9829  103.6986  109.4430 H   0  0  0  0  0  0  0  0  0  0  0  0
  125.5184  103.4528  107.7800 H   0  0  0  0  0  0  0  0  0  0  0  0
  123.1049  103.0709  107.9170 H   0  0  0  0  0  0  0  0  0  0  0  0
  122.8505  104.6395  108.6812 H   0  0  0  0  0  0  0  0  0  0  0  0
  124.9917  106.1628  109.1231 H   0  0  0  0  0  0  0  0  0  0  0  0
  126.5673  105.4656  108.6854 H   0  0  0  0  0  0  0  0  0  0  0  0
  123.9299  106.5793  105.5693 H   0  0  0  0  0  0  0  0  0  0  0  0
  123.4038  106.8321  107.2474 H   0  0  0  0  0  0  0  0  0  0  0  0
  123.9040  104.1411  105.8502 H   0  0  0  0  0  0  0  0  0  0  0  0
  119.1974  103.9414  106.2418 H   0  0  0  0  0  0  0  0  0  0  0  0
  118.7576  104.7719  107.7368 H   0  0  0  0  0  0  0  0  0  0  0  0
  117.7558  104.9771  106.3045 H   0  0  0  0  0  0  0  0  0  0  0  0
  117.7910  107.4133  103.2826 H   0  0  0  0  0  0  0  0  0  0  0  0
  117.1738  106.5551  104.7310 H   0  0  0  0  0  0  0  0  0  0  0  0
  118.0185  108.1265  104.9121 H   0  0  0  0  0  0  0  0  0  0  0  0
  126.1309  109.5235  107.9175 H   0  0  0  0  0  0  0  0  0  0  0  0
  124.5611  108.6691  107.7730 H   0  0  0  0  0  0  0  0  0  0  0  0
  125.7866  108.0997  108.9517 H   0  0  0  0  0  0  0  0  0  0  0  0
  121.4065  103.8685  106.4172 H   0  0  0  0  0  0  0  0  0  0  0  0
  121.8790  104.8449  105.0329 H   0  0  0  0  0  0  0  0  0  0  0  0
  121.6139  106.9342  106.3525 H   0  0  0  0  0  0  0  0  0  0  0  0
  119.1813  106.9764  106.6844 H   0  0  0  0  0  0  0  0  0  0  0  0
  121.6508  107.7370  109.1046 H   0  0  0  0  0  0  0  0  0  0  0  0
  120.7190  107.9305  107.7853 H   0  0  0  0  0  0  0  0  0  0  0  0
  120.4867  105.3684  108.5221 H   0  0  0  0  0  0  0  0  0  0  0  0
  1  2  1  0  0  0  0
  1  3  1  0  0  0  0
  2  5  1  0  0  0  0
  3 12  1  0  0  0  0
  4  5  1  0  0  0  0
  4 12  1  0  0  0  0
  5  9  1  0  0  0  0
  6 11  1  0  0  0  0
  7 19  1  0  0  0  0
  8 20  1  0  0  0  0
  9 10  1  0  0  0  0
 10 11  1  0  0  0  0
 10 14  1  0  0  0  0
 11 19  1  0  0  0  0
 12 20  1  0  0  0  0
 13 14  1  0  0  0  0
 15 19  2  0  0  0  0
 16 19  2  0  0  0  0
 17 20  2  0  0  0  0
 18 20  2  0  0  0  0
  1 21  1  0  0  0  0
  1 22  1  0  0  0  0
  2 23  1  0  0  0  0
  2 24  1  0  0  0  0
  3 25  1  0  0  0  0
  3 26  1  0  0  0  0
  4 27  1  0  0  0  0
  4 28  1  0  0  0  0
  5 29  1  0  0  0  0
  6 30  1  0  0  0  0
  6 31  1  0  0  0  0
  6 32  1  0  0  0  0
  7 33  1  0  0  0  0
  7 34  1  0  0  0  0
  7 35  1  0  0  0  0
  8 36  1  0  0  0  0
  8 37  1  0  0  0  0
  8 38  1  0  0  0  0
  9 39  1  0  0  0  0
  9 40  1  0  0  0  0
 10 41  1  0  0  0  0
 11 42  1  0  0  0  0
 13 43  1  0  0  0  0
 13 44  1  0  0  0  0
 14 45  1  0  0  0  0
M  END
> <FRED Chemgauss4 score>
-9.298585

$$$$
C54140268	P81447142
  -OEChem-05122015313D

 39 39  0     1  0  0  0  0  0999 V2000
  118.7197  103.5674  105.7500 C   0  0  0  0  0  0  0  0  0  0  0  0
  120.1826  103.1423  105.8092 C   0  0  0  0  0  0  0  0  0  0  0  0
  118.4519  104.7043  106.7326 C   0  0  0  0  0  0  0  0  0  0  0  0
  121.1186  104.3228  105.5828 C   0  0  0  0  0  0  0  0  0  0  0  0
  119.4011  105.8939  106.5401 C   0  0  2  0  0  0  0  0  0  0  0  0
  119.0896  106.6970  105.2788 C   0  0  0  0  0  0  0  0  0  0  0  0
  125.8007  103.5312  108.2351 C   0  0  0  0  0  0  0  0  0  0  0  0
  123.9352  105.0418  107.4797 C   0  0  0  0  0  0  0  0  0  0  0  0
  125.9474  106.0055  108.7843 C   0  0  0  0  0  0  0  0  0  0  0  0
  125.0117  104.8055  108.5602 C   0  0  2  0  0  0  0  0  0  0  0  0
  122.8738  105.9132  107.9645 N   0  5  0  0  0  0  0  0  0  0  0  0
  120.8196  105.4071  106.5602 N   0  0  2  0  0  0  0  0  0  0  0  0
  126.8839  105.7822  109.9110 N   0  3  0  0  0  0  0  0  0  0  0  0
  121.3254  107.8051  107.1369 O   0  0  0  0  0  0  0  0  0  0  0  0
  122.7402  106.6339  105.4910 O   0  0  0  0  0  0  0  0  0  0  0  0
  122.0439  106.5812  106.7778 S   0  0  0  0  0  0  0  0  0  0  0  0
  118.4661  103.8872  104.7332 H   0  0  0  0  0  0  0  0  0  0  0  0
  118.0756  102.7127  105.9899 H   0  0  0  0  0  0  0  0  0  0  0  0
  120.3950  102.6827  106.7834 H   0  0  0  0  0  0  0  0  0  0  0  0
  120.3688  102.3730  105.0462 H   0  0  0  0  0  0  0  0  0  0  0  0
  117.4071  105.0359  106.6133 H   0  0  0  0  0  0  0  0  0  0  0  0
  118.5379  104.3160  107.7594 H   0  0  0  0  0  0  0  0  0  0  0  0
  122.1655  104.0108  105.6835 H   0  0  0  0  0  0  0  0  0  0  0  0
  120.9687  104.6950  104.5625 H   0  0  0  0  0  0  0  0  0  0  0  0
  119.2844  106.5843  107.4245 H   0  0  0  0  0  0  0  0  0  0  0  0
  119.1924  106.0604  104.4018 H   0  0  0  0  0  0  0  0  0  0  0  0
  119.7801  107.5343  105.1951 H   0  0  0  0  0  0  0  0  0  0  0  0
  118.0707  107.0774  105.3265 H   0  0  0  0  0  0  0  0  0  0  0  0
  126.3478  103.6202  107.2911 H   0  0  0  0  0  0  0  0  0  0  0  0
  125.1332  102.6660  108.1648 H   0  0  0  0  0  0  0  0  0  0  0  0
  126.5322  103.3213  109.0232 H   0  0  0  0  0  0  0  0  0  0  0  0
  124.4129  105.4989  106.6031 H   0  0  0  0  0  0  0  0  0  0  0  0
  123.5305  104.0846  107.1305 H   0  0  0  0  0  0  0  0  0  0  0  0
  125.3915  106.9189  109.0168 H   0  0  0  0  0  0  0  0  0  0  0  0
  126.5652  106.1937  107.9001 H   0  0  0  0  0  0  0  0  0  0  0  0
  124.4995  104.6247  109.5161 H   0  0  0  0  0  0  0  0  0  0  0  0
  127.6310  106.4855  109.9140 H   0  0  0  0  0  0  0  0  0  0  0  0
  127.3229  104.8568  109.8465 H   0  0  0  0  0  0  0  0  0  0  0  0
  126.3959  105.8372  110.8121 H   0  0  0  0  0  0  0  0  0  0  0  0
  1  2  1  0  0  0  0
  1  3  1  0  0  0  0
  2  4  1  0  0  0  0
  3  5  1  0  0  0  0
  4 12  1  0  0  0  0
  5  6  1  0  0  0  0
  5 12  1  0  0  0  0
  7 10  1  0  0  0  0
  8 10  1  0  0  0  0
  8 11  1  0  0  0  0
  9 10  1  0  0  0  0
  9 13  1  0  0  0  0
 11 16  1  0  0  0  0
 12 16  1  0  0  0  0
 14 16  2  0  0  0  0
 15 16  2  0  0  0  0
  1 17  1  0  0  0  0
  1 18  1  0  0  0  0
  2 19  1  0  0  0  0
  2 20  1  0  0  0  0
  3 21  1  0  0  0  0
  3 22  1  0  0  0  0
  4 23  1  0  0  0  0
  4 24  1  0  0  0  0
  5 25  1  0  0  0  0
  6 26  1  0  0  0  0
  6 27  1  0  0  0  0
  6 28  1  0  0  0  0
  7 29  1  0  0  0  0
  7 30  1  0  0  0  0
  7 31  1  0  0  0  0
  8 32  1  0  0  0  0
  8 33  1  0  0  0  0
  9 34  1  0  0  0  0
  9 35  1  0  0  0  0
 10 36  1  0  0  0  0
 13 37  1  0  0  0  0
 13 38  1  0  0  0  0
 13 39  1  0  0  0  0
M  CHG  2  11  -1  13   1
M  END
> <FRED Chemgauss4 score>
-9.298433

$$$$
C45089252	P67952041
  -OEChem-05122015313D

 40 42  0     1  0  0  0  0  0999 V2000
  119.6294  103.4440  106.7253 C   0  0  0  0  0  0  0  0  0  0  0  0
  120.3419  104.6246  106.5470 C   0  0  0  0  0  0  0  0  0  0  0  0
  118.2644  103.4682  106.4887 C   0  0  0  0  0  0  0  0  0  0  0  0
  119.6771  105.7771  106.1432 C   0  0  0  0  0  0  0  0  0  0  0  0
  118.3100  105.6968  105.9324 C   0  0  0  0  0  0  0  0  0  0  0  0
  120.4315  107.0100  105.9642 C   0  0  0  0  0  0  0  0  0  0  0  0
  115.6372  104.5514  102.4760 C   0  0  0  0  0  0  0  0  0  0  0  0
  114.5809  105.1414  103.4120 C   0  0  0  0  0  0  0  0  0  0  0  0
  116.4007  108.8522  105.6022 C   0  0  0  0  0  0  0  0  0  0  0  0
  116.9364  105.2895  102.7839 C   0  0  0  0  0  0  0  0  0  0  0  0
  115.2998  106.1929  104.2507 C   0  0  0  0  0  0  0  0  0  0  0  0
  117.2417  108.8252  104.3368 C   0  0  0  0  0  0  0  0  0  0  0  0
  117.0581  107.7916  106.4808 C   0  0  0  0  0  0  0  0  0  0  0  0
  116.4771  106.6171  103.3785 C   0  0  0  0  0  0  0  0  0  0  0  0
  117.5679  107.3356  104.1532 C   0  0  2  0  0  0  0  0  0  0  0  0
  117.5839  104.5682  106.0954 N   0  0  0  0  0  0  0  0  0  0  0  0
  117.6418  106.8388  105.5334 N   0  0  0  0  0  0  0  0  0  0  0  0
  120.5549  107.8354  107.0576 N   0  0  0  0  0  0  0  0  0  0  0  0
  121.1422  107.3947  104.4981 S   0  0  0  0  0  0  0  0  0  0  0  0
  120.1267  102.5341  107.0412 H   0  0  0  0  0  0  0  0  0  0  0  0
  121.4139  104.6343  106.7260 H   0  0  0  0  0  0  0  0  0  0  0  0
  117.6633  102.5736  106.6135 H   0  0  0  0  0  0  0  0  0  0  0  0
  115.7499  103.4717  102.6186 H   0  0  0  0  0  0  0  0  0  0  0  0
  115.3420  104.7154  101.4331 H   0  0  0  0  0  0  0  0  0  0  0  0
  113.7818  105.6049  102.8221 H   0  0  0  0  0  0  0  0  0  0  0  0
  114.1202  104.3744  104.0425 H   0  0  0  0  0  0  0  0  0  0  0  0
  116.3833  109.8362  106.0793 H   0  0  0  0  0  0  0  0  0  0  0  0
  115.3663  108.5675  105.3768 H   0  0  0  0  0  0  0  0  0  0  0  0
  117.5225  104.7167  103.5132 H   0  0  0  0  0  0  0  0  0  0  0  0
  117.5532  105.4242  101.8899 H   0  0  0  0  0  0  0  0  0  0  0  0
  114.6451  107.0319  104.5053 H   0  0  0  0  0  0  0  0  0  0  0  0
  115.6497  105.7428  105.1881 H   0  0  0  0  0  0  0  0  0  0  0  0
  116.7250  109.2622  103.4768 H   0  0  0  0  0  0  0  0  0  0  0  0
  118.1662  109.3930  104.5020 H   0  0  0  0  0  0  0  0  0  0  0  0
  117.8468  108.2497  107.0898 H   0  0  0  0  0  0  0  0  0  0  0  0
  116.3339  107.3091  107.1447 H   0  0  0  0  0  0  0  0  0  0  0  0
  116.1139  107.2689  102.5719 H   0  0  0  0  0  0  0  0  0  0  0  0
  118.5209  107.2356  103.6267 H   0  0  0  0  0  0  0  0  0  0  0  0
  120.1412  107.6174  107.9585 H   0  0  0  0  0  0  0  0  0  0  0  0
  121.0641  108.7108  106.9940 H   0  0  0  0  0  0  0  0  0  0  0  0
  1  2  1  0  0  0  0
  1  3  2  0  0  0  0
  2  4  2  0  0  0  0
  3 16  1  0  0  0  0
  4  5  1  0  0  0  0
  4  6  1  0  0  0  0
  5 16  2  0  0  0  0
  5 17  1  0  0  0  0
  6 18  1  0  0  0  0
  6 19  2  0  0  0  0
  7  8  1  0  0  0  0
  7 10  1  0  0  0  0
  8 11  1  0  0  0  0
  9 12  1  0  0  0  0
  9 13  1  0  0  0  0
 10 14  1  0  0  0  0
 11 14  1  0  0  0  0
 12 15  1  0  0  0  0
 13 17  1  0  0  0  0
 14 15  1  0  0  0  0
 15 17  1  0  0  0  0
  1 20  1  0  0  0  0
  2 21  1  0  0  0  0
  3 22  1  0  0  0  0
  7 23  1  0  0  0  0
  7 24  1  0  0  0  0
  8 25  1  0  0  0  0
  8 26  1  0  0  0  0
  9 27  1  0  0  0  0
  9 28  1  0  0  0  0
 10 29  1  0  0  0  0
 10 30  1  0  0  0  0
 11 31  1  0  0  0  0
 11 32  1  0  0  0  0
 12 33  1  0  0  0  0
 12 34  1  0  0  0  0
 13 35  1  0  0  0  0
 13 36  1  0  0  0  0
 14 37  1  0  0  0  0
 15 38  1  0  0  0  0
 18 39  1  0  0  0  0
 18 40  1  0  0  0  0
M  END
> <FRED Chemgauss4 score>
-9.295645

$$$$
C34516107	P59205293
  -OEChem-05122015313D

 24 23  0     1  0  0  0  0  0999 V2000
  124.9368  103.0464  106.6594 C   0  0  0  0  0  0  0  0  0  0  0  0
  125.1098  103.9375  107.4452 C   0  0  0  0  0  0  0  0  0  0  0  0
  123.0469  105.7505  108.1794 C   0  0  0  0  0  0  0  0  0  0  0  0
  125.3251  105.0219  108.4063 C   0  0  0  0  0  0  0  0  0  0  0  0
  124.7581  106.7076  106.7908 C   0  0  0  0  0  0  0  0  0  0  0  0
  125.0946  109.1127  107.7381 C   0  0  0  0  0  0  0  0  0  0  0  0
  124.3977  108.2142  106.6863 C   0  0  1  0  0  0  0  0  0  0  0  0
  124.4504  106.1558  108.1097 N   0  0  1  0  0  0  0  0  0  0  0  0
  126.5769  109.0801  107.6267 N   0  3  0  0  0  0  0  0  0  0  0  0
  124.8012  108.6425  105.4987 O   0  5  0  0  0  0  0  0  0  0  0  0
  124.7833  102.2564  105.9619 H   0  0  0  0  0  0  0  0  0  0  0  0
  122.3985  106.6019  107.9569 H   0  0  0  0  0  0  0  0  0  0  0  0
  122.8099  105.3797  109.1803 H   0  0  0  0  0  0  0  0  0  0  0  0
  122.8464  104.9566  107.4550 H   0  0  0  0  0  0  0  0  0  0  0  0
  126.3668  105.3561  108.3756 H   0  0  0  0  0  0  0  0  0  0  0  0
  125.1237  104.6686  109.4226 H   0  0  0  0  0  0  0  0  0  0  0  0
  124.2442  106.1066  106.0289 H   0  0  0  0  0  0  0  0  0  0  0  0
  125.8348  106.5715  106.6198 H   0  0  0  0  0  0  0  0  0  0  0  0
  124.8059  110.1624  107.6194 H   0  0  0  0  0  0  0  0  0  0  0  0
  124.8524  108.8113  108.7648 H   0  0  0  0  0  0  0  0  0  0  0  0
  123.3254  108.2774  106.9307 H   0  0  0  0  0  0  0  0  0  0  0  0
  126.8878  108.2216  107.1623 H   0  0  0  0  0  0  0  0  0  0  0  0
  127.0115  109.1164  108.5538 H   0  0  0  0  0  0  0  0  0  0  0  0
  126.9183  109.8785  107.0829 H   0  0  0  0  0  0  0  0  0  0  0  0
  1  2  3  0  0  0  0
  2  4  1  0  0  0  0
  3  8  1  0  0  0  0
  4  8  1  0  0  0  0
  5  7  1  0  0  0  0
  5  8  1  0  0  0  0
  6  7  1  0  0  0  0
  6  9  1  0  0  0  0
  7 10  1  0  0  0  0
  1 11  1  0  0  0  0
  3 12  1  0  0  0  0
  3 13  1  0  0  0  0
  3 14  1  0  0  0  0
  4 15  1  0  0  0  0
  4 16  1  0  0  0  0
  5 17  1  0  0  0  0
  5 18  1  0  0  0  0
  6 19  1  0  0  0  0
  6 20  1  0  0  0  0
  7 21  1  0  0  0  0
  9 22  1  0  0  0  0
  9 23  1  0  0  0  0
  9 24  1  0  0  0  0
M  CHG  2   9   1  10  -1
M  END
> <FRED Chemgauss4 score>
-9.289324

$$$$
C19331409	P28924605
  -OEChem-05122015313D

 51 53  0     1  0  0  0  0  0999 V2000
  124.6076  106.7790  108.1490 C   0  0  0  0  0  0  0  0  0  0  0  0
  122.8833  108.4248  108.7654 C   0  0  0  0  0  0  0  0  0  0  0  0
  124.0699  108.5680  106.5452 C   0  0  0  0  0  0  0  0  0  0  0  0
  122.2264  106.1583  108.2701 C   0  0  0  0  0  0  0  0  0  0  0  0
  123.4147  106.3017  106.0469 C   0  0  0  0  0  0  0  0  0  0  0  0
  121.7246  107.8976  106.6803 C   0  0  0  0  0  0  0  0  0  0  0  0
  124.2393  108.2629  108.0479 C   0  0  0  0  0  0  0  0  0  0  0  0
  123.5474  105.8671  107.5236 C   0  0  0  0  0  0  0  0  0  0  0  0
  125.3057  109.1561  108.6755 C   0  0  0  0  0  0  0  0  0  0  0  0
  125.6219  102.6388  107.0193 C   0  0  0  0  0  0  0  0  0  0  0  0
  123.9287  104.3936  107.6326 C   0  0  0  0  0  0  0  0  0  0  0  0
  125.2279  104.1013  106.8888 C   0  0  0  0  0  0  0  0  0  0  0  0
  117.8914  108.1070  104.2535 C   0  0  0  0  0  0  0  0  0  0  0  0
  120.5662  107.1416  106.0127 C   0  0  2  0  0  0  0  0  0  0  0  0
  118.9971  107.0948  103.9570 C   0  0  1  0  0  0  0  0  0  0  0  0
  120.3531  107.5184  104.5420 C   0  0  2  0  0  0  0  0  0  0  0  0
  121.8419  107.5847  108.1296 N   0  0  2  0  0  0  0  0  0  0  0  0
  123.0078  107.7253  105.9482 N   0  0  1  0  0  0  0  0  0  0  0  0
  125.6373  106.3669  108.6727 O   0  0  0  0  0  0  0  0  0  0  0  0
  116.8160  107.8902  103.3453 O   0  0  0  0  0  0  0  0  0  0  0  0
  119.3791  107.4463  106.7445 O   0  0  0  0  0  0  0  0  0  0  0  0
  118.6212  105.8351  104.5168 O   0  0  0  0  0  0  0  0  0  0  0  0
  121.3926  106.8872  103.7846 O   0  0  0  0  0  0  0  0  0  0  0  0
  122.9709  108.1460  109.8244 H   0  0  0  0  0  0  0  0  0  0  0  0
  122.5678  109.4748  108.7667 H   0  0  0  0  0  0  0  0  0  0  0  0
  123.8394  109.6282  106.3877 H   0  0  0  0  0  0  0  0  0  0  0  0
  125.0112  108.3919  106.0070 H   0  0  0  0  0  0  0  0  0  0  0  0
  121.4174  105.5267  107.8806 H   0  0  0  0  0  0  0  0  0  0  0  0
  122.3166  105.9097  109.3360 H   0  0  0  0  0  0  0  0  0  0  0  0
  124.3620  106.1567  105.5108 H   0  0  0  0  0  0  0  0  0  0  0  0
  122.6754  105.6783  105.5272 H   0  0  0  0  0  0  0  0  0  0  0  0
  121.4324  108.9545  106.5925 H   0  0  0  0  0  0  0  0  0  0  0  0
  125.0127  110.2013  108.5863 H   0  0  0  0  0  0  0  0  0  0  0  0
  126.2578  109.0091  108.1674 H   0  0  0  0  0  0  0  0  0  0  0  0
  125.4228  108.9081  109.7297 H   0  0  0  0  0  0  0  0  0  0  0  0
  125.7424  102.3573  108.0703 H   0  0  0  0  0  0  0  0  0  0  0  0
  126.5716  102.4548  106.5070 H   0  0  0  0  0  0  0  0  0  0  0  0
  124.8638  101.9869  106.5736 H   0  0  0  0  0  0  0  0  0  0  0  0
  124.0333  104.1321  108.6901 H   0  0  0  0  0  0  0  0  0  0  0  0
  123.1156  103.7862  107.2230 H   0  0  0  0  0  0  0  0  0  0  0  0
  125.1156  104.3501  105.8269 H   0  0  0  0  0  0  0  0  0  0  0  0
  126.0353  104.7282  107.2850 H   0  0  0  0  0  0  0  0  0  0  0  0
  117.5070  107.9826  105.2705 H   0  0  0  0  0  0  0  0  0  0  0  0
  118.2403  109.1352  104.1139 H   0  0  0  0  0  0  0  0  0  0  0  0
  120.7317  106.0685  106.1205 H   0  0  0  0  0  0  0  0  0  0  0  0
  119.0806  106.9526  102.8737 H   0  0  0  0  0  0  0  0  0  0  0  0
  120.4838  108.5991  104.4063 H   0  0  0  0  0  0  0  0  0  0  0  0
  116.1348  108.5464  103.5605 H   0  0  0  0  0  0  0  0  0  0  0  0
  118.6590  106.9630  106.3120 H   0  0  0  0  0  0  0  0  0  0  0  0
  117.7883  105.5849  104.0902 H   0  0  0  0  0  0  0  0  0  0  0  0
  122.2266  107.2343  104.1317 H   0  0  0  0  0  0  0  0  0  0  0  0
  1  7  1  0  0  0  0
  1  8  1  0  0  0  0
  1 19  2  0  0  0  0
  2  7  1  0  0  0  0
  2 17  1  0  0  0  0
  3  7  1  0  0  0  0
  3 18  1  0  0  0  0
  4  8  1  0  0  0  0
  4 17  1  0  0  0  0
  5  8  1  0  0  0  0
  5 18  1  0  0  0  0
  6 14  1  0  0  0  0
  6 17  1  0  0  0  0
  6 18  1  0  0  0  0
  7  9  1  0  0  0  0
  8 11  1  0  0  0  0
 10 12  1  0  0  0  0
 11 12  1  0  0  0  0
 13 15  1  0  0  0  0
 13 20  1  0  0  0  0
 14 16  1  0  0  0  0
 14 21  1  0  0  0  0
 15 16  1  0  0  0  0
 15 22  1  0  0  0  0
 16 23  1  0  0  0  0
  2 24  1  0  0  0  0
  2 25  1  0  0  0  0
  3 26  1  0  0  0  0
  3 27  1  0  0  0  0
  4 28  1  0  0  0  0
  4 29  1  0  0  0  0
  5 30  1  0  0  0  0
  5 31  1  0  0  0  0
  6 32  1  0  0  0  0
  9 33  1  0  0  0  0
  9 34  1  0  0  0  0
  9 35  1  0  0  0  0
 10 36  1  0  0  0  0
 10 37  1  0  0  0  0
 10 38  1  0  0  0  0
 11 39  1  0  0  0  0
 11 40  1  0  0  0  0
 12 41  1  0  0  0  0
 12 42  1  0  0  0  0
 13 43  1  0  0  0  0
 13 44  1  0  0  0  0
 14 45  1  0  0  0  0
 15 46  1  0  0  0  0
 16 47  1  0  0  0  0
 20 48  1  0  0  0  0
 21 49  1  0  0  0  0
 22 50  1  0  0  0  0
 23 51  1  0  0  0  0
M  END
> <FRED Chemgauss4 score>
-9.278222

$$$$
C97786166	P155186326
  -OEChem-05122015313D

 37 38  0     1  0  0  0  0  0999 V2000
  124.1755  107.3595  109.4928 C   0  0  0  0  0  0  0  0  0  0  0  0
  123.8466  108.2016  110.5493 C   0  0  0  0  0  0  0  0  0  0  0  0
  124.7964  109.2752  108.2275 C   0  0  0  0  0  0  0  0  0  0  0  0
  123.3555  103.7101  107.1958 C   0  0  0  0  0  0  0  0  0  0  0  0
  124.6601  107.8986  108.3064 C   0  0  0  0  0  0  0  0  0  0  0  0
  124.4338  104.4949  107.6467 C   0  0  0  0  0  0  0  0  0  0  0  0
  124.0194  109.5646  110.3701 C   0  0  0  0  0  0  0  0  0  0  0  0
  124.2246  105.7263  107.0754 C   0  0  0  0  0  0  0  0  0  0  0  0
  123.6769  110.4977  111.4831 C   0  0  0  0  0  0  0  0  0  0  0  0
  121.4855  107.4909  106.3935 C   0  0  0  0  0  0  0  0  0  0  0  0
  121.7486  106.0641  104.3195 C   0  0  0  0  0  0  0  0  0  0  0  0
  125.0205  107.0246  107.1580 C   0  0  2  0  0  0  0  0  0  0  0  0
  122.4413  106.6379  105.5570 C   0  0  0  0  0  0  0  0  0  0  0  0
  124.4874  110.1251  109.2324 N   0  0  0  0  0  0  0  0  0  0  0  0
  122.5231  104.3862  106.3997 N   0  0  0  0  0  0  0  0  0  0  0  0
  123.0783  105.6089  106.3458 N   0  0  0  0  0  0  0  0  0  0  0  0
  127.1614  107.9550  107.0211 N   0  0  0  0  0  0  0  0  0  0  0  0
  126.4652  106.7221  107.1489 N   0  0  0  0  0  0  0  0  0  0  0  0
  125.6837  103.9912  108.6677 Cl  0  0  0  0  0  0  0  0  0  0  0  0
  124.0513  106.2857  109.6026 H   0  0  0  0  0  0  0  0  0  0  0  0
  123.4675  107.7937  111.4801 H   0  0  0  0  0  0  0  0  0  0  0  0
  125.1694  109.7531  107.3269 H   0  0  0  0  0  0  0  0  0  0  0  0
  123.1375  102.6736  107.4127 H   0  0  0  0  0  0  0  0  0  0  0  0
  124.5503  110.6613  112.1257 H   0  0  0  0  0  0  0  0  0  0  0  0
  123.3404  111.4688  111.0984 H   0  0  0  0  0  0  0  0  0  0  0  0
  122.8606  110.0992  112.0990 H   0  0  0  0  0  0  0  0  0  0  0  0
  120.6512  106.9016  106.7887 H   0  0  0  0  0  0  0  0  0  0  0  0
  121.0639  108.3009  105.7889 H   0  0  0  0  0  0  0  0  0  0  0  0
  122.0080  107.9420  107.2444 H   0  0  0  0  0  0  0  0  0  0  0  0
  120.9342  105.3894  104.6056 H   0  0  0  0  0  0  0  0  0  0  0  0
  122.4591  105.4954  103.7103 H   0  0  0  0  0  0  0  0  0  0  0  0
  121.3232  106.8509  103.6875 H   0  0  0  0  0  0  0  0  0  0  0  0
  124.8642  107.5586  106.2012 H   0  0  0  0  0  0  0  0  0  0  0  0
  123.2413  107.3006  105.2026 H   0  0  0  0  0  0  0  0  0  0  0  0
  126.5015  108.7305  107.0740 H   0  0  0  0  0  0  0  0  0  0  0  0
  127.7750  108.0560  107.8286 H   0  0  0  0  0  0  0  0  0  0  0  0
  126.6636  106.1272  106.3534 H   0  0  0  0  0  0  0  0  0  0  0  0
  1  2  2  0  0  0  0
  1  5  1  0  0  0  0
  2  7  1  0  0  0  0
  3  5  2  0  0  0  0
  3 14  1  0  0  0  0
  4  6  1  0  0  0  0
  4 15  2  0  0  0  0
  5 12  1  0  0  0  0
  6  8  2  0  0  0  0
  6 19  1  0  0  0  0
  7  9  1  0  0  0  0
  7 14  2  0  0  0  0
  8 12  1  0  0  0  0
  8 16  1  0  0  0  0
 10 13  1  0  0  0  0
 11 13  1  0  0  0  0
 12 18  1  0  0  0  0
 13 16  1  0  0  0  0
 15 16  1  0  0  0  0
 17 18  1  0  0  0  0
  1 20  1  0  0  0  0
  2 21  1  0  0  0  0
  3 22  1  0  0  0  0
  4 23  1  0  0  0  0
  9 24  1  0  0  0  0
  9 25  1  0  0  0  0
  9 26  1  0  0  0  0
 10 27  1  0  0  0  0
 10 28  1  0  0  0  0
 10 29  1  0  0  0  0
 11 30  1  0  0  0  0
 11 31  1  0  0  0  0
 11 32  1  0  0  0  0
 12 33  1  0  0  0  0
 13 34  1  0  0  0  0
 17 35  1  0  0  0  0
 17 36  1  0  0  0  0
 18 37  1  0  0  0  0
M  END
> <FRED Chemgauss4 score>
-9.272644

$$$$
C84057443	P131527988
  -OEChem-05122015313D

 25 26  0     1  0  0  0  0  0999 V2000
  124.2796  106.5841  106.4417 C   0  0  0  0  0  0  0  0  0  0  0  0
  124.2255  105.5587  107.3546 C   0  0  0  0  0  0  0  0  0  0  0  0
  122.6524  105.3833  105.8298 C   0  0  0  0  0  0  0  0  0  0  0  0
  125.2944  107.5918  106.5779 C   0  0  0  0  0  0  0  0  0  0  0  0
  125.9577  106.2374  108.5737 C   0  0  0  0  0  0  0  0  0  0  0  0
  120.2197  104.7073  106.0038 C   0  0  0  0  0  0  0  0  0  0  0  0
  121.4910  104.8027  105.1293 C   0  0  1  0  0  0  0  0  0  0  0  0
  123.3049  106.4789  105.4940 N   0  0  0  0  0  0  0  0  0  0  0  0
  125.0183  105.3288  108.4245 N   0  0  0  0  0  0  0  0  0  0  0  0
  123.1740  104.7888  106.9529 N   0  0  0  0  0  0  0  0  0  0  0  0
  126.1049  107.3347  107.6925 N   0  0  0  0  0  0  0  0  0  0  0  0
  126.8647  106.1843  109.6002 N   0  0  0  0  0  0  0  0  0  0  0  0
  121.1720  105.5240  103.8991 N   0  0  0  0  0  0  0  0  0  0  0  0
  125.4197  108.5406  105.8139 O   0  0  0  0  0  0  0  0  0  0  0  0
  120.3000  103.5877  106.8800 O   0  0  0  0  0  0  0  0  0  0  0  0
  120.1217  105.6059  106.6227 H   0  0  0  0  0  0  0  0  0  0  0  0
  119.3166  104.6016  105.3928 H   0  0  0  0  0  0  0  0  0  0  0  0
  121.7089  103.7740  104.7716 H   0  0  0  0  0  0  0  0  0  0  0  0
  122.8418  103.9424  107.3963 H   0  0  0  0  0  0  0  0  0  0  0  0
  126.8587  107.9889  107.8829 H   0  0  0  0  0  0  0  0  0  0  0  0
  126.8013  105.4317  110.2459 H   0  0  0  0  0  0  0  0  0  0  0  0
  127.5510  106.9004  109.6597 H   0  0  0  0  0  0  0  0  0  0  0  0
  120.2428  105.4578  103.5452 H   0  0  0  0  0  0  0  0  0  0  0  0
  121.9279  105.8805  103.3563 H   0  0  0  0  0  0  0  0  0  0  0  0
  119.4800  103.5815  107.3982 H   0  0  0  0  0  0  0  0  0  0  0  0
  1  2  2  0  0  0  0
  1  4  1  0  0  0  0
  1  8  1  0  0  0  0
  2  9  1  0  0  0  0
  2 10  1  0  0  0  0
  3  7  1  0  0  0  0
  3  8  2  0  0  0  0
  3 10  1  0  0  0  0
  4 11  1  0  0  0  0
  4 14  2  0  0  0  0
  5  9  2  0  0  0  0
  5 11  1  0  0  0  0
  5 12  1  0  0  0  0
  6  7  1  0  0  0  0
  6 15  1  0  0  0  0
  7 13  1  0  0  0  0
  6 16  1  0  0  0  0
  6 17  1  0  0  0  0
  7 18  1  0  0  0  0
 10 19  1  0  0  0  0
 11 20  1  0  0  0  0
 12 21  1  0  0  0  0
 12 22  1  0  0  0  0
 13 23  1  0  0  0  0
 13 24  1  0  0  0  0
 15 25  1  0  0  0  0
M  END
> <FRED Chemgauss4 score>
-9.270268

$$$$
C92560841	P144877663
  -OEChem-05122015313D

 33 35  0     1  0  0  0  0  0999 V2000
  124.1555  109.4062  108.0912 C   0  0  0  0  0  0  0  0  0  0  0  0
  124.1709  109.5318  109.4803 C   0  0  0  0  0  0  0  0  0  0  0  0
  119.7286  104.3856  106.3213 C   0  0  0  0  0  0  0  0  0  0  0  0
  123.0094  107.4231  109.6838 C   0  0  0  0  0  0  0  0  0  0  0  0
  118.9393  106.5579  106.9706 C   0  0  0  0  0  0  0  0  0  0  0  0
  118.6855  105.3071  106.4164 C   0  0  0  0  0  0  0  0  0  0  0  0
  120.9833  104.7865  106.7978 C   0  0  0  0  0  0  0  0  0  0  0  0
  122.9940  107.2975  108.2947 C   0  0  0  0  0  0  0  0  0  0  0  0
  123.5671  108.2890  107.4984 C   0  0  0  0  0  0  0  0  0  0  0  0
  123.5978  108.5403  110.2766 C   0  0  0  0  0  0  0  0  0  0  0  0
  121.0962  106.0648  107.3267 C   0  0  0  0  0  0  0  0  0  0  0  0
  123.0199  104.9964  107.3982 C   0  0  0  0  0  0  0  0  0  0  0  0
  117.3219  104.9569  105.9310 C   0  0  0  0  0  0  0  0  0  0  0  0
  124.9774  103.3767  107.2225 C   0  0  0  0  0  0  0  0  0  0  0  0
  124.4543  104.7543  107.6664 C   0  0  1  0  0  0  0  0  0  0  0  0
  120.1322  106.9928  107.4445 N   0  0  0  0  0  0  0  0  0  0  0  0
  122.1909  104.1336  106.8496 N   0  0  0  0  0  0  0  0  0  0  0  0
  122.4040  106.1801  107.7048 N   0  0  0  0  0  0  0  0  0  0  0  0
  123.5601  108.1802  106.1619 F   0  0  0  0  0  0  0  0  0  0  0  0
  123.6165  108.6963  111.9907 Cl  0  0  0  0  0  0  0  0  0  0  0  0
  125.4712  106.0125  106.8769 Cl  0  0  0  0  0  0  0  0  0  0  0  0
  124.6024  110.1774  107.4708 H   0  0  0  0  0  0  0  0  0  0  0  0
  124.6333  110.4079  109.9285 H   0  0  0  0  0  0  0  0  0  0  0  0
  119.5779  103.3990  105.8964 H   0  0  0  0  0  0  0  0  0  0  0  0
  122.5617  106.6495  110.3046 H   0  0  0  0  0  0  0  0  0  0  0  0
  118.1404  107.2909  107.0537 H   0  0  0  0  0  0  0  0  0  0  0  0
  116.7324  104.5014  106.7371 H   0  0  0  0  0  0  0  0  0  0  0  0
  116.7853  105.8444  105.5688 H   0  0  0  0  0  0  0  0  0  0  0  0
  117.3649  104.2495  105.0914 H   0  0  0  0  0  0  0  0  0  0  0  0
  124.7952  103.1972  106.1571 H   0  0  0  0  0  0  0  0  0  0  0  0
  124.4723  102.5831  107.7845 H   0  0  0  0  0  0  0  0  0  0  0  0
  126.0540  103.2724  107.3957 H   0  0  0  0  0  0  0  0  0  0  0  0
  124.6806  104.8457  108.7461 H   0  0  0  0  0  0  0  0  0  0  0  0
  1  2  2  0  0  0  0
  1  9  1  0  0  0  0
  2 10  1  0  0  0  0
  3  6  1  0  0  0  0
  3  7  2  0  0  0  0
  4  8  1  0  0  0  0
  4 10  2  0  0  0  0
  5  6  2  0  0  0  0
  5 16  1  0  0  0  0
  6 13  1  0  0  0  0
  7 11  1  0  0  0  0
  7 17  1  0  0  0  0
  8  9  2  0  0  0  0
  8 18  1  0  0  0  0
  9 19  1  0  0  0  0
 10 20  1  0  0  0  0
 11 16  2  0  0  0  0
 11 18  1  0  0  0  0
 12 15  1  0  0  0  0
 12 17  2  0  0  0  0
 12 18  1  0  0  0  0
 14 15  1  0  0  0  0
 15 21  1  0  0  0  0
  1 22  1  0  0  0  0
  2 23  1  0  0  0  0
  3 24  1  0  0  0  0
  4 25  1  0  0  0  0
  5 26  1  0  0  0  0
 13 27  1  0  0  0  0
 13 28  1  0  0  0  0
 13 29  1  0  0  0  0
 14 30  1  0  0  0  0
 14 31  1  0  0  0  0
 14 32  1  0  0  0  0
 15 33  1  0  0  0  0
M  END
> <FRED Chemgauss4 score>
-9.262502

$$$$
C97761317	P155115888
  -OEChem-05122015313D

 42 44  0     1  0  0  0  0  0999 V2000
  125.5298  108.5108  106.9325 C   0  0  0  0  0  0  0  0  0  0  0  0
  126.1226  107.3960  107.5205 C   0  0  0  0  0  0  0  0  0  0  0  0
  121.3429  106.8561  108.1633 C   0  0  0  0  0  0  0  0  0  0  0  0
  124.2878  108.3606  106.3158 C   0  0  0  0  0  0  0  0  0  0  0  0
  125.4492  106.1931  107.4522 C   0  0  0  0  0  0  0  0  0  0  0  0
  121.3554  105.5652  107.6650 C   0  0  0  0  0  0  0  0  0  0  0  0
  124.2101  106.1460  106.8214 C   0  0  0  0  0  0  0  0  0  0  0  0
  120.2462  107.6462  107.8830 C   0  0  0  0  0  0  0  0  0  0  0  0
  120.2702  105.1497  106.9198 C   0  0  0  0  0  0  0  0  0  0  0  0
  125.8270  104.8658  108.0175 C   0  0  0  0  0  0  0  0  0  0  0  0
  124.8817  103.9339  107.2401 C   0  0  0  0  0  0  0  0  0  0  0  0
  123.6254  104.7574  106.8846 C   0  0  1  0  0  0  0  0  0  0  0  0
  120.1837  109.0442  108.3957 C   0  0  0  0  0  0  0  0  0  0  0  0
  119.1051  103.6182  105.3124 C   0  0  0  0  0  0  0  0  0  0  0  0
  120.2141  103.7726  106.3499 C   0  0  0  0  0  0  0  0  0  0  0  0
  122.5358  104.6548  107.9439 C   0  0  1  0  0  0  0  0  0  0  0  0
  123.6000  107.1955  106.2450 N   0  0  0  0  0  0  0  0  0  0  0  0
  119.1980  107.2133  107.1508 N   0  0  0  0  0  0  0  0  0  0  0  0
  119.2102  105.9444  106.6615 N   0  0  0  0  0  0  0  0  0  0  0  0
  122.0614  104.6832  110.2330 N   0  0  0  0  0  0  0  0  0  0  0  0
  123.0865  104.9027  109.2598 N   0  0  0  0  0  0  0  0  0  0  0  0
  126.0268  109.4748  106.9471 H   0  0  0  0  0  0  0  0  0  0  0  0
  127.0850  107.4761  108.0136 H   0  0  0  0  0  0  0  0  0  0  0  0
  122.1699  107.2346  108.7557 H   0  0  0  0  0  0  0  0  0  0  0  0
  123.8031  109.2085  105.8419 H   0  0  0  0  0  0  0  0  0  0  0  0
  126.8755  104.6421  107.7937 H   0  0  0  0  0  0  0  0  0  0  0  0
  125.6519  104.8013  109.0955 H   0  0  0  0  0  0  0  0  0  0  0  0
  125.3649  103.5101  106.3504 H   0  0  0  0  0  0  0  0  0  0  0  0
  124.6091  103.0845  107.8866 H   0  0  0  0  0  0  0  0  0  0  0  0
  123.2417  104.4877  105.9095 H   0  0  0  0  0  0  0  0  0  0  0  0
  120.6276  109.7381  107.6709 H   0  0  0  0  0  0  0  0  0  0  0  0
  119.1473  109.3548  108.5837 H   0  0  0  0  0  0  0  0  0  0  0  0
  120.7221  109.1450  109.3475 H   0  0  0  0  0  0  0  0  0  0  0  0
  118.1293  103.8732  105.7396 H   0  0  0  0  0  0  0  0  0  0  0  0
  119.0565  102.5875  104.9476 H   0  0  0  0  0  0  0  0  0  0  0  0
  119.2773  104.2747  104.4528 H   0  0  0  0  0  0  0  0  0  0  0  0
  121.1788  103.5088  105.8874 H   0  0  0  0  0  0  0  0  0  0  0  0
  120.0632  103.0313  107.1511 H   0  0  0  0  0  0  0  0  0  0  0  0
  122.1816  103.6144  107.9714 H   0  0  0  0  0  0  0  0  0  0  0  0
  121.2144  104.3617  109.7651 H   0  0  0  0  0  0  0  0  0  0  0  0
  122.3444  103.9227  110.8498 H   0  0  0  0  0  0  0  0  0  0  0  0
  123.4038  105.8720  109.3287 H   0  0  0  0  0  0  0  0  0  0  0  0
  1  2  1  0  0  0  0
  1  4  2  0  0  0  0
  2  5  2  0  0  0  0
  3  6  2  0  0  0  0
  3  8  1  0  0  0  0
  4 17  1  0  0  0  0
  5  7  1  0  0  0  0
  5 10  1  0  0  0  0
  6  9  1  0  0  0  0
  6 16  1  0  0  0  0
  7 12  1  0  0  0  0
  7 17  2  0  0  0  0
  8 13  1  0  0  0  0
  8 18  2  0  0  0  0
  9 15  1  0  0  0  0
  9 19  2  0  0  0  0
 10 11  1  0  0  0  0
 11 12  1  0  0  0  0
 12 16  1  0  0  0  0
 14 15  1  0  0  0  0
 16 21  1  0  0  0  0
 18 19  1  0  0  0  0
 20 21  1  0  0  0  0
  1 22  1  0  0  0  0
  2 23  1  0  0  0  0
  3 24  1  0  0  0  0
  4 25  1  0  0  0  0
 10 26  1  0  0  0  0
 10 27  1  0  0  0  0
 11 28  1  0  0  0  0
 11 29  1  0  0  0  0
 12 30  1  0  0  0  0
 13 31  1  0  0  0  0
 13 32  1  0  0  0  0
 13 33  1  0  0  0  0
 14 34  1  0  0  0  0
 14 35  1  0  0  0  0
 14 36  1  0  0  0  0
 15 37  1  0  0  0  0
 15 38  1  0  0  0  0
 16 39  1  0  0  0  0
 20 40  1  0  0  0  0
 20 41  1  0  0  0  0
 21 42  1  0  0  0  0
M  END
> <FRED Chemgauss4 score>
-9.258368

$$$$
C88421206	P138299941
  -OEChem-05122015313D

 34 34  0     1  0  0  0  0  0999 V2000
  121.8202  105.2259  107.5684 C   0  0  0  0  0  0  0  0  0  0  0  0
  122.8776  106.1279  107.5277 C   0  0  0  0  0  0  0  0  0  0  0  0
  120.9912  105.0845  106.4611 C   0  0  0  0  0  0  0  0  0  0  0  0
  123.0619  106.8590  106.3652 C   0  0  0  0  0  0  0  0  0  0  0  0
  121.2599  105.8625  105.3465 C   0  0  0  0  0  0  0  0  0  0  0  0
  119.8874  104.1360  106.5134 C   0  0  0  0  0  0  0  0  0  0  0  0
  124.1868  107.8364  106.2863 C   0  0  0  0  0  0  0  0  0  0  0  0
  120.3102  104.4281  103.5574 C   0  0  0  0  0  0  0  0  0  0  0  0
  118.3651  107.0105  104.4950 C   0  0  0  0  0  0  0  0  0  0  0  0
  119.6644  106.8378  103.7146 C   0  0  0  0  0  0  0  0  0  0  0  0
  117.4939  108.1353  103.9719 C   0  0  0  0  0  0  0  0  0  0  0  0
  122.2775  106.7491  105.2697 N   0  0  0  0  0  0  0  0  0  0  0  0
  118.6765  104.6355  106.3480 N   0  0  0  0  0  0  0  0  0  0  0  0
  120.0808  102.7688  106.7275 N   0  0  0  0  0  0  0  0  0  0  0  0
  120.4279  105.7255  104.2260 N   0  0  3  0  0  0  0  0  0  0  0  0
  117.6900  103.6464  106.4152 O   0  0  0  0  0  0  0  0  0  0  0  0
  116.3639  108.2604  104.6998 F   0  0  0  0  0  0  0  0  0  0  0  0
  118.1556  109.3124  104.0396 F   0  0  0  0  0  0  0  0  0  0  0  0
  117.1423  107.9411  102.6840 F   0  0  0  0  0  0  0  0  0  0  0  0
  121.6523  104.6392  108.4678 H   0  0  0  0  0  0  0  0  0  0  0  0
  123.5320  106.2467  108.3844 H   0  0  0  0  0  0  0  0  0  0  0  0
  125.0894  107.3482  105.8997 H   0  0  0  0  0  0  0  0  0  0  0  0
  123.9366  108.6781  105.6281 H   0  0  0  0  0  0  0  0  0  0  0  0
  124.4149  108.2604  107.2726 H   0  0  0  0  0  0  0  0  0  0  0  0
  119.6247  104.5034  102.7092 H   0  0  0  0  0  0  0  0  0  0  0  0
  119.9272  103.6774  104.2539 H   0  0  0  0  0  0  0  0  0  0  0  0
  121.2875  104.1011  103.1921 H   0  0  0  0  0  0  0  0  0  0  0  0
  117.7947  106.0762  104.4360 H   0  0  0  0  0  0  0  0  0  0  0  0
  118.5832  107.1869  105.5549 H   0  0  0  0  0  0  0  0  0  0  0  0
  120.2685  107.7500  103.7571 H   0  0  0  0  0  0  0  0  0  0  0  0
  119.4329  106.6471  102.6614 H   0  0  0  0  0  0  0  0  0  0  0  0
  121.0051  102.3674  106.8363 H   0  0  0  0  0  0  0  0  0  0  0  0
  119.2996  102.1216  106.7398 H   0  0  0  0  0  0  0  0  0  0  0  0
  116.8815  104.1682  106.2775 H   0  0  0  0  0  0  0  0  0  0  0  0
  1  2  2  0  0  0  0
  1  3  1  0  0  0  0
  2  4  1  0  0  0  0
  3  5  2  0  0  0  0
  3  6  1  0  0  0  0
  4  7  1  0  0  0  0
  4 12  2  0  0  0  0
  5 12  1  0  0  0  0
  5 15  1  0  0  0  0
  6 13  2  0  0  0  0
  6 14  1  0  0  0  0
  8 15  1  0  0  0  0
  9 10  1  0  0  0  0
  9 11  1  0  0  0  0
 10 15  1  0  0  0  0
 11 17  1  0  0  0  0
 11 18  1  0  0  0  0
 11 19  1  0  0  0  0
 13 16  1  0  0  0  0
  1 20  1  0  0  0  0
  2 21  1  0  0  0  0
  7 22  1  0  0  0  0
  7 23  1  0  0  0  0
  7 24  1  0  0  0  0
  8 25  1  0  0  0  0
  8 26  1  0  0  0  0
  8 27  1  0  0  0  0
  9 28  1  0  0  0  0
  9 29  1  0  0  0  0
 10 30  1  0  0  0  0
 10 31  1  0  0  0  0
 14 32  1  0  0  0  0
 14 33  1  0  0  0  0
 16 34  1  0  0  0  0
M  END
> <FRED Chemgauss4 score>
-9.258365

$$$$
C04081558	P57373222
  -OEChem-05122015313D

 56 59  0     1  0  0  0  0  0999 V2000
  114.2614  106.2892  104.4176 C   0  0  0  0  0  0  0  0  0  0  0  0
  123.3277  107.5676  107.8940 C   0  0  0  0  0  0  0  0  0  0  0  0
  114.1112  106.1055  105.9059 C   0  0  0  0  0  0  0  0  0  0  0  0
  115.5147  105.6842  106.3259 C   0  0  0  0  0  0  0  0  0  0  0  0
  119.4885  103.5834  106.4549 C   0  0  0  0  0  0  0  0  0  0  0  0
  117.9946  103.8900  106.4088 C   0  0  0  0  0  0  0  0  0  0  0  0
  117.9891  106.5782  103.5693 C   0  0  0  0  0  0  0  0  0  0  0  0
  122.3267  106.6641  105.0827 C   0  0  0  0  0  0  0  0  0  0  0  0
  116.5125  106.9584  103.6245 C   0  0  0  0  0  0  0  0  0  0  0  0
  120.8259  106.8754  104.8441 C   0  0  0  0  0  0  0  0  0  0  0  0
  121.8058  104.6123  106.4833 C   0  0  0  0  0  0  0  0  0  0  0  0
  116.0600  104.9166  105.1125 C   0  0  2  0  0  0  0  0  0  0  0  0
  120.3045  104.8656  106.2623 C   0  0  1  0  0  0  0  0  0  0  0  0
  117.5780  104.6234  105.1236 C   0  0  1  0  0  0  0  0  0  0  0  0
  118.4501  105.8834  104.8652 C   0  0  1  0  0  0  0  0  0  0  0  0
  122.6178  105.9032  106.3743 C   0  0  2  0  0  0  0  0  0  0  0  0
  115.5939  105.7597  103.9018 C   0  0  1  0  0  0  0  0  0  0  0  0
  119.9947  105.5609  104.8990 C   0  0  1  0  0  0  0  0  0  0  0  0
  123.1925  107.8298  109.3634 C   0  0  0  0  0  0  0  0  0  0  0  0
  115.3877  104.8947  102.6580 C   0  0  0  0  0  0  0  0  0  0  0  0
  120.4006  104.6771  103.6908 C   0  0  0  0  0  0  0  0  0  0  0  0
  113.4030  106.8078  103.7139 O   0  0  0  0  0  0  0  0  0  0  0  0
  124.2231  108.0240  107.1961 O   0  0  0  0  0  0  0  0  0  0  0  0
  122.3118  106.7570  107.4766 O   0  0  0  0  0  0  0  0  0  0  0  0
  113.8047  107.0347  106.3909 H   0  0  0  0  0  0  0  0  0  0  0  0
  113.3839  105.3104  106.0931 H   0  0  0  0  0  0  0  0  0  0  0  0
  116.1212  106.5688  106.5495 H   0  0  0  0  0  0  0  0  0  0  0  0
  115.4790  105.0675  107.2293 H   0  0  0  0  0  0  0  0  0  0  0  0
  119.7242  103.1335  107.4272 H   0  0  0  0  0  0  0  0  0  0  0  0
  119.7450  102.8347  105.6971 H   0  0  0  0  0  0  0  0  0  0  0  0
  117.4319  102.9533  106.5017 H   0  0  0  0  0  0  0  0  0  0  0  0
  117.7447  104.4968  107.2874 H   0  0  0  0  0  0  0  0  0  0  0  0
  118.1583  105.9311  102.7019 H   0  0  0  0  0  0  0  0  0  0  0  0
  118.5646  107.4937  103.3991 H   0  0  0  0  0  0  0  0  0  0  0  0
  122.7650  106.1275  104.2339 H   0  0  0  0  0  0  0  0  0  0  0  0
  122.8096  107.6483  105.1188 H   0  0  0  0  0  0  0  0  0  0  0  0
  116.3800  107.7302  104.3946 H   0  0  0  0  0  0  0  0  0  0  0  0
  116.2274  107.4401  102.6802 H   0  0  0  0  0  0  0  0  0  0  0  0
  120.4461  107.5795  105.5961 H   0  0  0  0  0  0  0  0  0  0  0  0
  120.7068  107.3684  103.8724 H   0  0  0  0  0  0  0  0  0  0  0  0
  121.9471  104.1817  107.4828 H   0  0  0  0  0  0  0  0  0  0  0  0
  122.1817  103.8734  105.7672 H   0  0  0  0  0  0  0  0  0  0  0  0
  115.5390  103.9467  105.0937 H   0  0  0  0  0  0  0  0  0  0  0  0
  119.9882  105.5554  107.0603 H   0  0  0  0  0  0  0  0  0  0  0  0
  117.7497  103.9268  104.2924 H   0  0  0  0  0  0  0  0  0  0  0  0
  118.2609  106.5877  105.6884 H   0  0  0  0  0  0  0  0  0  0  0  0
  123.6882  105.6764  106.4302 H   0  0  0  0  0  0  0  0  0  0  0  0
  122.5815  108.7211  109.5264 H   0  0  0  0  0  0  0  0  0  0  0  0
  124.1820  107.9536  109.8107 H   0  0  0  0  0  0  0  0  0  0  0  0
  122.6998  106.9774  109.8400 H   0  0  0  0  0  0  0  0  0  0  0  0
  116.3481  104.5256  102.3038 H   0  0  0  0  0  0  0  0  0  0  0  0
  114.9197  105.4855  101.8731 H   0  0  0  0  0  0  0  0  0  0  0  0
  114.7466  104.0494  102.9006 H   0  0  0  0  0  0  0  0  0  0  0  0
  119.8261  103.7620  103.7238 H   0  0  0  0  0  0  0  0  0  0  0  0
  121.4570  104.4593  103.7617 H   0  0  0  0  0  0  0  0  0  0  0  0
  120.1898  105.2196  102.7798 H   0  0  0  0  0  0  0  0  0  0  0  0
  1  3  1  0  0  0  0
  1 17  1  0  0  0  0
  1 22  2  0  0  0  0
  2 19  1  0  0  0  0
  2 23  2  0  0  0  0
  2 24  1  0  0  0  0
  3  4  1  0  0  0  0
  4 12  1  0  0  0  0
  5  6  1  0  0  0  0
  5 13  1  0  0  0  0
  6 14  1  0  0  0  0
  7  9  1  0  0  0  0
  7 15  1  0  0  0  0
  8 10  1  0  0  0  0
  8 16  1  0  0  0  0
  9 17  1  0  0  0  0
 10 18  1  0  0  0  0
 11 13  1  0  0  0  0
 11 16  1  0  0  0  0
 12 14  1  0  0  0  0
 12 17  1  0  0  0  0
 13 18  1  0  0  0  0
 14 15  1  0  0  0  0
 15 18  1  0  0  0  0
 16 24  1  0  0  0  0
 17 20  1  0  0  0  0
 18 21  1  0  0  0  0
  3 25  1  0  0  0  0
  3 26  1  0  0  0  0
  4 27  1  0  0  0  0
  4 28  1  0  0  0  0
  5 29  1  0  0  0  0
  5 30  1  0  0  0  0
  6 31  1  0  0  0  0
  6 32  1  0  0  0  0
  7 33  1  0  0  0  0
  7 34  1  0  0  0  0
  8 35  1  0  0  0  0
  8 36  1  0  0  0  0
  9 37  1  0  0  0  0
  9 38  1  0  0  0  0
 10 39  1  0  0  0  0
 10 40  1  0  0  0  0
 11 41  1  0  0  0  0
 11 42  1  0  0  0  0
 12 43  1  0  0  0  0
 13 44  1  0  0  0  0
 14 45  1  0  0  0  0
 15 46  1  0  0  0  0
 16 47  1  0  0  0  0
 19 48  1  0  0  0  0
 19 49  1  0  0  0  0
 19 50  1  0  0  0  0
 20 51  1  0  0  0  0
 20 52  1  0  0  0  0
 20 53  1  0  0  0  0
 21 54  1  0  0  0  0
 21 55  1  0  0  0  0
 21 56  1  0  0  0  0
M  END
> <FRED Chemgauss4 score>
-9.258015

$$$$
C39094985	P59234642
  -OEChem-05122015313D

 19 19  0     1  0  0  0  0  0999 V2000
  125.1135  107.9272  106.3123 C   0  0  0  0  0  0  0  0  0  0  0  0
  125.7605  106.5654  108.1842 C   0  0  0  0  0  0  0  0  0  0  0  0
  125.7419  108.0137  107.6864 C   0  0  1  0  0  0  0  0  0  0  0  0
  124.5381  105.9426  107.5016 C   0  0  2  0  0  0  0  0  0  0  0  0
  124.6684  104.4316  107.3645 C   0  0  0  0  0  0  0  0  0  0  0  0
  124.5196  106.6698  106.2598 N   0  0  0  0  0  0  0  0  0  0  0  0
  127.1117  108.5634  107.6351 N   0  3  0  0  0  0  0  0  0  0  0  0
  123.5102  106.4432  105.3583 O   0  5  0  0  0  0  0  0  0  0  0  0
  125.1218  108.8171  105.4753 O   0  0  0  0  0  0  0  0  0  0  0  0
  126.6808  106.0568  107.8674 H   0  0  0  0  0  0  0  0  0  0  0  0
  125.7017  106.5000  109.2755 H   0  0  0  0  0  0  0  0  0  0  0  0
  125.1379  108.6629  108.3284 H   0  0  0  0  0  0  0  0  0  0  0  0
  123.6347  106.1993  108.0717 H   0  0  0  0  0  0  0  0  0  0  0  0
  125.5665  104.1840  106.7981 H   0  0  0  0  0  0  0  0  0  0  0  0
  123.8000  104.0275  106.8438 H   0  0  0  0  0  0  0  0  0  0  0  0
  124.7348  103.9714  108.3508 H   0  0  0  0  0  0  0  0  0  0  0  0
  127.2003  109.2780  106.9014 H   0  0  0  0  0  0  0  0  0  0  0  0
  127.8018  107.8276  107.4367 H   0  0  0  0  0  0  0  0  0  0  0  0
  127.3723  109.0011  108.5281 H   0  0  0  0  0  0  0  0  0  0  0  0
  1  3  1  0  0  0  0
  1  6  1  0  0  0  0
  1  9  2  0  0  0  0
  2  3  1  0  0  0  0
  2  4  1  0  0  0  0
  3  7  1  0  0  0  0
  4  5  1  0  0  0  0
  4  6  1  0  0  0  0
  6  8  1  0  0  0  0
  2 10  1  0  0  0  0
  2 11  1  0  0  0  0
  3 12  1  0  0  0  0
  4 13  1  0  0  0  0
  5 14  1  0  0  0  0
  5 15  1  0  0  0  0
  5 16  1  0  0  0  0
  7 17  1  0  0  0  0
  7 18  1  0  0  0  0
  7 19  1  0  0  0  0
M  CHG  2   7   1   8  -1
M  END
> <FRED Chemgauss4 score>
-9.255796

$$$$
C41066225	P62330552
  -OEChem-05122015313D

 29 29  0     0  0  0  0  0  0999 V2000
  124.1116  107.6057  109.6232 C   0  0  0  0  0  0  0  0  0  0  0  0
  124.7681  109.6677  108.6364 C   0  0  0  0  0  0  0  0  0  0  0  0
  124.3811  106.9758  108.4132 C   0  0  0  0  0  0  0  0  0  0  0  0
  124.3062  108.9770  109.7452 C   0  0  0  0  0  0  0  0  0  0  0  0
  124.8394  107.7561  107.3640 C   0  0  0  0  0  0  0  0  0  0  0  0
  119.1826  103.6499  106.5856 C   0  0  0  0  0  0  0  0  0  0  0  0
  118.6452  102.3245  107.0133 C   0  0  0  0  0  0  0  0  0  0  0  0
  121.2899  104.8994  106.1610 C   0  0  0  0  0  0  0  0  0  0  0  0
  121.5947  105.7984  107.3474 C   0  0  0  0  0  0  0  0  0  0  0  0
  125.0407  109.0906  107.4447 N   0  0  0  0  0  0  0  0  0  0  0  0
  120.5661  103.7180  106.5471 N   0  0  0  0  0  0  0  0  0  0  0  0
  122.4096  105.1361  108.3297 N   0  0  0  0  0  0  0  0  0  0  0  0
  118.4055  104.5552  106.3059 O   0  0  0  0  0  0  0  0  0  0  0  0
  124.5707  104.8205  106.9543 O   0  0  0  0  0  0  0  0  0  0  0  0
  124.6997  104.6243  109.4581 O   0  0  0  0  0  0  0  0  0  0  0  0
  124.1269  105.2322  108.2724 S   0  0  0  0  0  0  0  0  0  0  0  0
  125.2116  107.1044  105.8156 Cl  0  0  0  0  0  0  0  0  0  0  0  0
  123.9552  109.8678  111.3670 Br  0  0  0  0  0  0  0  0  0  0  0  0
  123.7501  107.0252  110.4689 H   0  0  0  0  0  0  0  0  0  0  0  0
  124.9417  110.7390  108.6660 H   0  0  0  0  0  0  0  0  0  0  0  0
  118.5057  102.2595  108.1044 H   0  0  0  0  0  0  0  0  0  0  0  0
  117.6545  102.1128  106.5800 H   0  0  0  0  0  0  0  0  0  0  0  0
  119.2687  101.4555  106.7486 H   0  0  0  0  0  0  0  0  0  0  0  0
  122.2075  104.5722  105.6617 H   0  0  0  0  0  0  0  0  0  0  0  0
  120.6693  105.4332  105.4345 H   0  0  0  0  0  0  0  0  0  0  0  0
  122.1448  106.6856  107.0190 H   0  0  0  0  0  0  0  0  0  0  0  0
  120.6768  106.1243  107.8470 H   0  0  0  0  0  0  0  0  0  0  0  0
  121.0980  102.8884  106.8055 H   0  0  0  0  0  0  0  0  0  0  0  0
  121.9858  104.9514  109.2632 H   0  0  0  0  0  0  0  0  0  0  0  0
  1  3  1  0  0  0  0
  1  4  2  0  0  0  0
  2  4  1  0  0  0  0
  2 10  2  0  0  0  0
  3  5  2  0  0  0  0
  3 16  1  0  0  0  0
  4 18  1  0  0  0  0
  5 10  1  0  0  0  0
  5 17  1  0  0  0  0
  6  7  1  0  0  0  0
  6 11  1  0  0  0  0
  6 13  2  0  0  0  0
  8  9  1  0  0  0  0
  8 11  1  0  0  0  0
  9 12  1  0  0  0  0
 12 16  1  0  0  0  0
 14 16  2  0  0  0  0
 15 16  2  0  0  0  0
  1 19  1  0  0  0  0
  2 20  1  0  0  0  0
  7 21  1  0  0  0  0
  7 22  1  0  0  0  0
  7 23  1  0  0  0  0
  8 24  1  0  0  0  0
  8 25  1  0  0  0  0
  9 26  1  0  0  0  0
  9 27  1  0  0  0  0
 11 28  1  0  0  0  0
 12 29  1  0  0  0  0
M  END
> <FRED Chemgauss4 score>
-9.250933

$$$$
C83523757	P130642951
  -OEChem-05122015313D

 30 30  0     1  0  0  0  0  0999 V2000
  120.5855  104.8617  107.1505 C   0  0  0  0  0  0  0  0  0  0  0  0
  124.9089  106.5868  106.7087 C   0  0  0  0  0  0  0  0  0  0  0  0
  117.7525  105.5490  104.2681 C   0  0  0  0  0  0  0  0  0  0  0  0
  118.9272  104.6813  104.6444 C   0  0  0  0  0  0  0  0  0  0  0  0
  117.3493  106.1279  105.6077 C   0  0  0  0  0  0  0  0  0  0  0  0
  118.4733  104.1207  105.9811 C   0  0  1  0  0  0  0  0  0  0  0  0
  119.6192  103.7202  106.8899 C   0  0  0  0  0  0  0  0  0  0  0  0
  123.7267  105.6859  106.4116 C   0  0  0  0  0  0  0  0  0  0  0  0
  122.9846  105.2719  107.6794 C   0  0  0  0  0  0  0  0  0  0  0  0
  125.8281  106.0747  107.5855 N   0  0  0  0  0  0  0  0  0  0  0  0
  121.8682  104.3971  107.4023 N   0  0  0  0  0  0  0  0  0  0  0  0
  120.2493  106.0426  107.1324 O   0  0  0  0  0  0  0  0  0  0  0  0
  117.6936  105.1548  106.6052 O   0  0  0  0  0  0  0  0  0  0  0  0
  125.0814  108.1015  106.0240 S   0  0  0  0  0  0  0  0  0  0  0  0
  117.9905  106.3153  103.5259 H   0  0  0  0  0  0  0  0  0  0  0  0
  116.9424  104.9264  103.8702 H   0  0  0  0  0  0  0  0  0  0  0  0
  119.1456  103.9025  103.9086 H   0  0  0  0  0  0  0  0  0  0  0  0
  119.8220  105.3048  104.7617 H   0  0  0  0  0  0  0  0  0  0  0  0
  117.9095  107.0427  105.8285 H   0  0  0  0  0  0  0  0  0  0  0  0
  116.2802  106.3512  105.6639 H   0  0  0  0  0  0  0  0  0  0  0  0
  117.8077  103.2630  105.8261 H   0  0  0  0  0  0  0  0  0  0  0  0
  120.1767  102.8917  106.4371 H   0  0  0  0  0  0  0  0  0  0  0  0
  119.2231  103.3749  107.8522 H   0  0  0  0  0  0  0  0  0  0  0  0
  123.0402  106.1663  105.7044 H   0  0  0  0  0  0  0  0  0  0  0  0
  124.1140  104.7806  105.9269 H   0  0  0  0  0  0  0  0  0  0  0  0
  122.5932  106.1357  108.2253 H   0  0  0  0  0  0  0  0  0  0  0  0
  123.6608  104.7234  108.3429 H   0  0  0  0  0  0  0  0  0  0  0  0
  125.7239  105.1564  108.0050 H   0  0  0  0  0  0  0  0  0  0  0  0
  126.6542  106.6031  107.8458 H   0  0  0  0  0  0  0  0  0  0  0  0
  122.0304  103.3944  107.3914 H   0  0  0  0  0  0  0  0  0  0  0  0
  1  7  1  0  0  0  0
  1 11  1  0  0  0  0
  1 12  2  0  0  0  0
  2  8  1  0  0  0  0
  2 10  1  0  0  0  0
  2 14  2  0  0  0  0
  3  4  1  0  0  0  0
  3  5  1  0  0  0  0
  4  6  1  0  0  0  0
  5 13  1  0  0  0  0
  6  7  1  0  0  0  0
  6 13  1  0  0  0  0
  8  9  1  0  0  0  0
  9 11  1  0  0  0  0
  3 15  1  0  0  0  0
  3 16  1  0  0  0  0
  4 17  1  0  0  0  0
  4 18  1  0  0  0  0
  5 19  1  0  0  0  0
  5 20  1  0  0  0  0
  6 21  1  0  0  0  0
  7 22  1  0  0  0  0
  7 23  1  0  0  0  0
  8 24  1  0  0  0  0
  8 25  1  0  0  0  0
  9 26  1  0  0  0  0
  9 27  1  0  0  0  0
 10 28  1  0  0  0  0
 10 29  1  0  0  0  0
 11 30  1  0  0  0  0
M  END
> <FRED Chemgauss4 score>
-9.238536

$$$$
C36746501	P54604745
  -OEChem-05122015313D

 22 22  0     0  0  0  0  0  0999 V2000
  124.3899  109.0116  108.9010 C   0  0  0  0  0  0  0  0  0  0  0  0
  125.1300  108.0649  107.1066 C   0  0  0  0  0  0  0  0  0  0  0  0
  121.4784  107.6530  107.7586 C   0  0  0  0  0  0  0  0  0  0  0  0
  120.2618  108.4003  108.1944 C   0  0  0  0  0  0  0  0  0  0  0  0
  124.3453  106.5114  108.9728 C   0  0  0  0  0  0  0  0  0  0  0  0
  123.0718  105.8720  108.4454 C   0  0  0  0  0  0  0  0  0  0  0  0
  124.7038  110.0252  108.1597 N   0  0  0  0  0  0  0  0  0  0  0  0
  125.1774  109.4572  107.0122 N   0  0  0  0  0  0  0  0  0  0  0  0
  124.6111  107.7966  108.3514 N   0  0  0  0  0  0  0  0  0  0  0  0
  121.9199  106.7037  108.6667 N   0  0  0  0  0  0  0  0  0  0  0  0
  121.9893  107.9100  106.6749 O   0  0  0  0  0  0  0  0  0  0  0  0
  125.6197  107.0186  105.9143 S   0  0  0  0  0  0  0  0  0  0  0  0
  123.9694  109.0614  109.9135 H   0  0  0  0  0  0  0  0  0  0  0  0
  120.5089  109.3113  108.7627 H   0  0  0  0  0  0  0  0  0  0  0  0
  119.6524  108.7444  107.3433 H   0  0  0  0  0  0  0  0  0  0  0  0
  119.5678  107.8365  108.8382 H   0  0  0  0  0  0  0  0  0  0  0  0
  125.2167  105.8741  108.7918 H   0  0  0  0  0  0  0  0  0  0  0  0
  124.2596  106.6870  110.0497 H   0  0  0  0  0  0  0  0  0  0  0  0
  123.1483  105.7099  107.3658 H   0  0  0  0  0  0  0  0  0  0  0  0
  122.8797  104.9085  108.9284 H   0  0  0  0  0  0  0  0  0  0  0  0
  125.5001  110.0315  106.2440 H   0  0  0  0  0  0  0  0  0  0  0  0
  121.4013  106.5892  109.5364 H   0  0  0  0  0  0  0  0  0  0  0  0
  1  7  2  0  0  0  0
  1  9  1  0  0  0  0
  2  8  1  0  0  0  0
  2  9  1  0  0  0  0
  2 12  2  0  0  0  0
  3  4  1  0  0  0  0
  3 10  1  0  0  0  0
  3 11  2  0  0  0  0
  5  6  1  0  0  0  0
  5  9  1  0  0  0  0
  6 10  1  0  0  0  0
  7  8  1  0  0  0  0
  1 13  1  0  0  0  0
  4 14  1  0  0  0  0
  4 15  1  0  0  0  0
  4 16  1  0  0  0  0
  5 17  1  0  0  0  0
  5 18  1  0  0  0  0
  6 19  1  0  0  0  0
  6 20  1  0  0  0  0
  8 21  1  0  0  0  0
 10 22  1  0  0  0  0
M  END
> <FRED Chemgauss4 score>
-9.235077

$$$$
C91671604	P143506818
  -OEChem-05122015313D

 39 40  0     1  0  0  0  0  0999 V2000
  124.5338  108.7273  109.3010 C   0  0  0  0  0  0  0  0  0  0  0  0
  123.4207  109.3125  109.8942 C   0  0  0  0  0  0  0  0  0  0  0  0
  124.3725  107.9112  108.1869 C   0  0  0  0  0  0  0  0  0  0  0  0
  122.1781  109.0522  109.3394 C   0  0  0  0  0  0  0  0  0  0  0  0
  123.0872  107.7135  107.7086 C   0  0  0  0  0  0  0  0  0  0  0  0
  125.5449  107.3042  107.5721 C   0  0  0  0  0  0  0  0  0  0  0  0
  119.2844  104.2089  105.6646 C   0  0  0  0  0  0  0  0  0  0  0  0
  120.4531  105.5329  104.0390 C   0  0  0  0  0  0  0  0  0  0  0  0
  120.4946  104.3010  106.5881 C   0  0  0  0  0  0  0  0  0  0  0  0
  121.6722  105.6032  104.9673 C   0  0  1  0  0  0  0  0  0  0  0  0
  120.9615  109.6636  109.9501 C   0  0  0  0  0  0  0  0  0  0  0  0
  118.0512  105.3378  103.9273 C   0  0  0  0  0  0  0  0  0  0  0  0
  121.7675  106.9132  105.7481 C   0  0  0  0  0  0  0  0  0  0  0  0
  121.9819  108.2650  108.2580 N   0  0  0  0  0  0  0  0  0  0  0  0
  119.2113  105.4039  104.8140 N   0  0  1  0  0  0  0  0  0  0  0  0
  125.9297  106.0683  108.0377 N   0  0  0  0  0  0  0  0  0  0  0  0
  122.9176  106.8952  106.5906 N   0  0  0  0  0  0  0  0  0  0  0  0
  121.6999  104.4687  105.8419 O   0  0  0  0  0  0  0  0  0  0  0  0
  126.3742  108.0643  106.3323 S   0  0  0  0  0  0  0  0  0  0  0  0
  125.5209  108.9143  109.7157 H   0  0  0  0  0  0  0  0  0  0  0  0
  123.5333  109.9519  110.7631 H   0  0  0  0  0  0  0  0  0  0  0  0
  119.3766  103.3075  105.0467 H   0  0  0  0  0  0  0  0  0  0  0  0
  118.3712  104.1141  106.2678 H   0  0  0  0  0  0  0  0  0  0  0  0
  120.4109  106.4374  103.4089 H   0  0  0  0  0  0  0  0  0  0  0  0
  120.5640  104.6697  103.3641 H   0  0  0  0  0  0  0  0  0  0  0  0
  120.3916  105.1694  107.2515 H   0  0  0  0  0  0  0  0  0  0  0  0
  120.5828  103.4118  107.2300 H   0  0  0  0  0  0  0  0  0  0  0  0
  122.6102  105.5365  104.3223 H   0  0  0  0  0  0  0  0  0  0  0  0
  120.7537  110.6379  109.4920 H   0  0  0  0  0  0  0  0  0  0  0  0
  120.0827  109.0203  109.8151 H   0  0  0  0  0  0  0  0  0  0  0  0
  121.0883  109.8064  111.0309 H   0  0  0  0  0  0  0  0  0  0  0  0
  118.0067  106.2315  103.2994 H   0  0  0  0  0  0  0  0  0  0  0  0
  117.1305  105.2734  104.5135 H   0  0  0  0  0  0  0  0  0  0  0  0
  118.1181  104.4575  103.2823 H   0  0  0  0  0  0  0  0  0  0  0  0
  120.8801  107.0235  106.3599 H   0  0  0  0  0  0  0  0  0  0  0  0
  121.8505  107.7382  105.0512 H   0  0  0  0  0  0  0  0  0  0  0  0
  125.4361  105.5845  108.7811 H   0  0  0  0  0  0  0  0  0  0  0  0
  126.7416  105.5968  107.6528 H   0  0  0  0  0  0  0  0  0  0  0  0
  123.6778  106.2454  106.3774 H   0  0  0  0  0  0  0  0  0  0  0  0
  1  2  2  0  0  0  0
  1  3  1  0  0  0  0
  2  4  1  0  0  0  0
  3  5  2  0  0  0  0
  3  6  1  0  0  0  0
  4 11  1  0  0  0  0
  4 14  2  0  0  0  0
  5 14  1  0  0  0  0
  5 17  1  0  0  0  0
  6 16  1  0  0  0  0
  6 19  2  0  0  0  0
  7  9  1  0  0  0  0
  7 15  1  0  0  0  0
  8 10  1  0  0  0  0
  8 15  1  0  0  0  0
  9 18  1  0  0  0  0
 10 13  1  0  0  0  0
 10 18  1  0  0  0  0
 12 15  1  0  0  0  0
 13 17  1  0  0  0  0
  1 20  1  0  0  0  0
  2 21  1  0  0  0  0
  7 22  1  0  0  0  0
  7 23  1  0  0  0  0
  8 24  1  0  0  0  0
  8 25  1  0  0  0  0
  9 26  1  0  0  0  0
  9 27  1  0  0  0  0
 10 28  1  0  0  0  0
 11 29  1  0  0  0  0
 11 30  1  0  0  0  0
 11 31  1  0  0  0  0
 12 32  1  0  0  0  0
 12 33  1  0  0  0  0
 12 34  1  0  0  0  0
 13 35  1  0  0  0  0
 13 36  1  0  0  0  0
 16 37  1  0  0  0  0
 16 38  1  0  0  0  0
 17 39  1  0  0  0  0
M  END
> <FRED Chemgauss4 score>
-9.231271

$$$$
C40377149	P61293722
  -OEChem-05122015313D

 31 31  0     0  0  0  0  0  0999 V2000
  119.8413  104.7200  106.5782 C   0  0  0  0  0  0  0  0  0  0  0  0
  120.8515  105.0524  104.4211 C   0  0  0  0  0  0  0  0  0  0  0  0
  118.6587  105.1994  106.0384 C   0  0  0  0  0  0  0  0  0  0  0  0
  119.6237  105.5167  103.9777 C   0  0  0  0  0  0  0  0  0  0  0  0
  120.9540  104.6483  105.7475 C   0  0  0  0  0  0  0  0  0  0  0  0
  125.6340  108.4890  107.4775 C   0  0  0  0  0  0  0  0  0  0  0  0
  122.2683  104.1344  106.2838 C   0  0  0  0  0  0  0  0  0  0  0  0
  125.1340  107.2478  108.1897 C   0  0  0  0  0  0  0  0  0  0  0  0
  123.1460  105.2362  106.8650 C   0  0  0  0  0  0  0  0  0  0  0  0
  118.5207  105.6010  104.7549 N   0  0  0  0  0  0  0  0  0  0  0  0
  124.8741  108.9623  106.5344 N   0  0  0  0  0  0  0  0  0  0  0  0
  126.8366  108.9942  107.9145 N   0  0  0  0  0  0  0  0  0  0  0  0
  125.6162  106.1124  107.4580 N   0  0  0  0  0  0  0  0  0  0  0  0
  124.5445  104.1763  108.8070 O   0  0  0  0  0  0  0  0  0  0  0  0
  125.2468  103.7542  106.4227 O   0  0  0  0  0  0  0  0  0  0  0  0
  123.7272  108.1743  106.4005 O   0  0  0  0  0  0  0  0  0  0  0  0
  124.7174  104.6379  107.4436 S   0  0  0  0  0  0  0  0  0  0  0  0
  119.8887  104.4134  107.6177 H   0  0  0  0  0  0  0  0  0  0  0  0
  121.7013  105.0081  103.7486 H   0  0  0  0  0  0  0  0  0  0  0  0
  117.7623  105.2762  106.6451 H   0  0  0  0  0  0  0  0  0  0  0  0
  119.4917  105.8439  102.9517 H   0  0  0  0  0  0  0  0  0  0  0  0
  122.8116  103.6452  105.4646 H   0  0  0  0  0  0  0  0  0  0  0  0
  122.0930  103.3576  107.0389 H   0  0  0  0  0  0  0  0  0  0  0  0
  124.0418  107.2145  108.2081 H   0  0  0  0  0  0  0  0  0  0  0  0
  125.5259  107.1988  109.2092 H   0  0  0  0  0  0  0  0  0  0  0  0
  123.3738  105.9771  106.0919 H   0  0  0  0  0  0  0  0  0  0  0  0
  122.6687  105.7505  107.7048 H   0  0  0  0  0  0  0  0  0  0  0  0
  127.3565  108.5625  108.6712 H   0  0  0  0  0  0  0  0  0  0  0  0
  127.2381  109.8241  107.4914 H   0  0  0  0  0  0  0  0  0  0  0  0
  126.1115  106.3228  106.5622 H   0  0  0  0  0  0  0  0  0  0  0  0
  123.2606  108.6300  105.6796 H   0  0  0  0  0  0  0  0  0  0  0  0
  1  3  1  0  0  0  0
  1  5  2  0  0  0  0
  2  4  2  0  0  0  0
  2  5  1  0  0  0  0
  3 10  2  0  0  0  0
  4 10  1  0  0  0  0
  5  7  1  0  0  0  0
  6  8  1  0  0  0  0
  6 11  2  0  0  0  0
  6 12  1  0  0  0  0
  7  9  1  0  0  0  0
  8 13  1  0  0  0  0
  9 17  1  0  0  0  0
 11 16  1  0  0  0  0
 13 17  1  0  0  0  0
 14 17  2  0  0  0  0
 15 17  2  0  0  0  0
  1 18  1  0  0  0  0
  2 19  1  0  0  0  0
  3 20  1  0  0  0  0
  4 21  1  0  0  0  0
  7 22  1  0  0  0  0
  7 23  1  0  0  0  0
  8 24  1  0  0  0  0
  8 25  1  0  0  0  0
  9 26  1  0  0  0  0
  9 27  1  0  0  0  0
 12 28  1  0  0  0  0
 12 29  1  0  0  0  0
 13 30  1  0  0  0  0
 16 31  1  0  0  0  0
M  END
> <FRED Chemgauss4 score>
-9.230662

$$$$
C94112850	P147484958
  -OEChem-05122015313D

 40 42  0     1  0  0  0  0  0999 V2000
  123.2305  112.8307  113.3629 C   0  0  0  0  0  0  0  0  0  0  0  0
  122.8065  111.5777  113.7985 C   0  0  0  0  0  0  0  0  0  0  0  0
  125.1664  107.3435  109.0998 C   0  0  0  0  0  0  0  0  0  0  0  0
  122.9028  107.4135  108.2580 C   0  0  0  0  0  0  0  0  0  0  0  0
  125.3364  106.0785  108.5374 C   0  0  0  0  0  0  0  0  0  0  0  0
  123.0729  106.1484  107.6956 C   0  0  0  0  0  0  0  0  0  0  0  0
  123.8959  112.9235  112.1407 C   0  0  0  0  0  0  0  0  0  0  0  0
  123.0575  110.4906  112.9859 C   0  0  0  0  0  0  0  0  0  0  0  0
  123.9495  108.0110  108.9601 C   0  0  0  0  0  0  0  0  0  0  0  0
  124.2897  105.4809  107.8353 C   0  0  0  0  0  0  0  0  0  0  0  0
  123.7269  110.6844  111.7811 C   0  0  0  0  0  0  0  0  0  0  0  0
  122.7562  109.0483  113.2193 C   0  0  0  0  0  0  0  0  0  0  0  0
  122.9072  108.4847  111.7969 C   0  0  0  0  0  0  0  0  0  0  0  0
  123.9580  109.3647  111.0870 C   0  0  1  0  0  0  0  0  0  0  0  0
  124.7691  110.3954  108.9443 C   0  0  0  0  0  0  0  0  0  0  0  0
  125.7263  103.6221  107.4654 C   0  0  0  0  0  0  0  0  0  0  0  0
  123.7616  109.4096  109.5811 C   0  0  1  0  0  0  0  0  0  0  0  0
  124.1670  111.8719  111.3309 N   0  0  0  0  0  0  0  0  0  0  0  0
  122.4233  109.9371  109.3086 N   0  0  0  0  0  0  0  0  0  0  0  0
  124.4563  104.2470  107.2855 O   0  0  0  0  0  0  0  0  0  0  0  0
  123.0536  113.7156  113.9647 H   0  0  0  0  0  0  0  0  0  0  0  0
  122.2971  111.4651  114.7491 H   0  0  0  0  0  0  0  0  0  0  0  0
  125.9872  107.8015  109.6451 H   0  0  0  0  0  0  0  0  0  0  0  0
  121.9511  107.9262  108.1443 H   0  0  0  0  0  0  0  0  0  0  0  0
  126.2869  105.5636  108.6494 H   0  0  0  0  0  0  0  0  0  0  0  0
  122.2540  105.6885  107.1497 H   0  0  0  0  0  0  0  0  0  0  0  0
  124.2434  113.8848  111.7754 H   0  0  0  0  0  0  0  0  0  0  0  0
  123.4950  108.6116  113.8990 H   0  0  0  0  0  0  0  0  0  0  0  0
  121.7466  108.8863  113.6071 H   0  0  0  0  0  0  0  0  0  0  0  0
  123.1884  107.4264  111.8027 H   0  0  0  0  0  0  0  0  0  0  0  0
  121.9392  108.5575  111.2807 H   0  0  0  0  0  0  0  0  0  0  0  0
  124.9681  109.0132  111.3303 H   0  0  0  0  0  0  0  0  0  0  0  0
  124.6526  111.3984  109.3724 H   0  0  0  0  0  0  0  0  0  0  0  0
  124.6220  110.4863  107.8611 H   0  0  0  0  0  0  0  0  0  0  0  0
  125.8066  110.0865  109.1123 H   0  0  0  0  0  0  0  0  0  0  0  0
  125.7243  102.6441  106.9778 H   0  0  0  0  0  0  0  0  0  0  0  0
  125.9294  103.5083  108.5332 H   0  0  0  0  0  0  0  0  0  0  0  0
  126.4984  104.2499  107.0145 H   0  0  0  0  0  0  0  0  0  0  0  0
  121.6804  109.6527  109.9064 H   0  0  0  0  0  0  0  0  0  0  0  0
  122.2694  110.3858  108.4336 H   0  0  0  0  0  0  0  0  0  0  0  0
  1  2  1  0  0  0  0
  1  7  2  0  0  0  0
  2  8  2  0  0  0  0
  3  5  2  0  0  0  0
  3  9  1  0  0  0  0
  4  6  1  0  0  0  0
  4  9  2  0  0  0  0
  5 10  1  0  0  0  0
  6 10  2  0  0  0  0
  7 18  1  0  0  0  0
  8 11  1  0  0  0  0
  8 12  1  0  0  0  0
  9 17  1  0  0  0  0
 10 20  1  0  0  0  0
 11 14  1  0  0  0  0
 11 18  2  0  0  0  0
 12 13  1  0  0  0  0
 13 14  1  0  0  0  0
 14 17  1  0  0  0  0
 15 17  1  0  0  0  0
 16 20  1  0  0  0  0
 17 19  1  0  0  0  0
  1 21  1  0  0  0  0
  2 22  1  0  0  0  0
  3 23  1  0  0  0  0
  4 24  1  0  0  0  0
  5 25  1  0  0  0  0
  6 26  1  0  0  0  0
  7 27  1  0  0  0  0
 12 28  1  0  0  0  0
 12 29  1  0  0  0  0
 13 30  1  0  0  0  0
 13 31  1  0  0  0  0
 14 32  1  0  0  0  0
 15 33  1  0  0  0  0
 15 34  1  0  0  0  0
 15 35  1  0  0  0  0
 16 36  1  0  0  0  0
 16 37  1  0  0  0  0
 16 38  1  0  0  0  0
 19 39  1  0  0  0  0
 19 40  1  0  0  0  0
M  END
> <FRED Chemgauss4 score>
-9.228013

$$$$
C94238561	P147683886
  -OEChem-05122015313D

 30 30  0     1  0  0  0  0  0999 V2000
  123.8343  106.1954  106.7872 C   0  0  0  0  0  0  0  0  0  0  0  0
  123.8234  105.1657  107.6983 C   0  0  0  0  0  0  0  0  0  0  0  0
  122.3903  104.8098  106.0624 C   0  0  0  0  0  0  0  0  0  0  0  0
  119.6104  105.6787  104.5308 C   0  0  0  0  0  0  0  0  0  0  0  0
  117.8921  107.0059  103.1888 C   0  0  0  0  0  0  0  0  0  0  0  0
  119.2634  104.1602  106.5709 C   0  0  0  0  0  0  0  0  0  0  0  0
  121.3373  104.0889  105.2714 C   0  0  0  0  0  0  0  0  0  0  0  0
  118.1101  105.8770  104.2044 C   0  0  1  0  0  0  0  0  0  0  0  0
  117.5190  104.5852  103.6098 C   0  0  0  0  0  0  0  0  0  0  0  0
  122.9398  105.9680  105.7715 N   0  0  0  0  0  0  0  0  0  0  0  0
  122.8933  104.2859  107.2208 N   0  0  0  0  0  0  0  0  0  0  0  0
  117.4015  106.1266  105.4614 N   0  0  0  0  0  0  0  0  0  0  0  0
  120.0179  104.6939  105.4387 N   0  0  0  0  0  0  0  0  0  0  0  0
  120.4356  106.4297  103.9906 O   0  0  0  0  0  0  0  0  0  0  0  0
  117.6279  103.5488  104.4739 F   0  0  0  0  0  0  0  0  0  0  0  0
  116.2045  104.7284  103.3239 F   0  0  0  0  0  0  0  0  0  0  0  0
  118.1472  104.2214  102.4684 F   0  0  0  0  0  0  0  0  0  0  0  0
  124.4396  107.0896  106.8118 H   0  0  0  0  0  0  0  0  0  0  0  0
  124.3727  104.9835  108.6104 H   0  0  0  0  0  0  0  0  0  0  0  0
  116.8427  107.1719  102.9364 H   0  0  0  0  0  0  0  0  0  0  0  0
  118.2730  107.9560  103.5818 H   0  0  0  0  0  0  0  0  0  0  0  0
  118.4147  106.8018  102.2467 H   0  0  0  0  0  0  0  0  0  0  0  0
  118.6708  103.2979  106.2545 H   0  0  0  0  0  0  0  0  0  0  0  0
  118.5894  104.9233  106.9694 H   0  0  0  0  0  0  0  0  0  0  0  0
  119.9457  103.8459  107.3653 H   0  0  0  0  0  0  0  0  0  0  0  0
  121.5808  104.1008  104.2034 H   0  0  0  0  0  0  0  0  0  0  0  0
  121.2656  103.0398  105.5770 H   0  0  0  0  0  0  0  0  0  0  0  0
  122.6287  103.4070  107.6459 H   0  0  0  0  0  0  0  0  0  0  0  0
  117.3991  107.0558  105.8172 H   0  0  0  0  0  0  0  0  0  0  0  0
  117.1310  105.3395  106.0068 H   0  0  0  0  0  0  0  0  0  0  0  0
  1  2  2  0  0  0  0
  1 10  1  0  0  0  0
  2 11  1  0  0  0  0
  3  7  1  0  0  0  0
  3 10  2  0  0  0  0
  3 11  1  0  0  0  0
  4  8  1  0  0  0  0
  4 13  1  0  0  0  0
  4 14  2  0  0  0  0
  5  8  1  0  0  0  0
  6 13  1  0  0  0  0
  7 13  1  0  0  0  0
  8  9  1  0  0  0  0
  8 12  1  0  0  0  0
  9 15  1  0  0  0  0
  9 16  1  0  0  0  0
  9 17  1  0  0  0  0
  1 18  1  0  0  0  0
  2 19  1  0  0  0  0
  5 20  1  0  0  0  0
  5 21  1  0  0  0  0
  5 22  1  0  0  0  0
  6 23  1  0  0  0  0
  6 24  1  0  0  0  0
  6 25  1  0  0  0  0
  7 26  1  0  0  0  0
  7 27  1  0  0  0  0
 11 28  1  0  0  0  0
 12 29  1  0  0  0  0
 12 30  1  0  0  0  0
M  END
> <FRED Chemgauss4 score>
-9.224758

$$$$
C22012448	P32767994
  -OEChem-05122015313D

 33 34  0     1  0  0  0  0  0999 V2000
  123.3783  105.6167  107.7293 C   0  0  0  0  0  0  0  0  0  0  0  0
  123.7611  104.4013  107.1620 C   0  0  0  0  0  0  0  0  0  0  0  0
  126.0184  104.7433  107.9525 C   0  0  0  0  0  0  0  0  0  0  0  0
  123.5187  110.7696  112.0787 C   0  0  0  0  0  0  0  0  0  0  0  0
  123.5133  108.7083  112.4077 C   0  0  0  0  0  0  0  0  0  0  0  0
  124.3155  106.3954  108.4081 C   0  0  0  0  0  0  0  0  0  0  0  0
  125.0811  103.9646  107.2736 C   0  0  0  0  0  0  0  0  0  0  0  0
  125.6356  105.9587  108.5197 C   0  0  0  0  0  0  0  0  0  0  0  0
  125.3973  109.0757  107.4063 C   0  0  0  0  0  0  0  0  0  0  0  0
  124.7516  108.0511  110.2912 C   0  0  0  0  0  0  0  0  0  0  0  0
  123.9890  108.8926  107.9829 C   0  0  2  0  0  0  0  0  0  0  0  0
  123.8908  107.7320  109.0308 C   0  0  1  0  0  0  0  0  0  0  0  0
  123.1027  109.8217  112.9692 N   0  0  0  0  0  0  0  0  0  0  0  0
  124.1608  110.3128  111.0014 N   0  0  0  0  0  0  0  0  0  0  0  0
  124.1438  108.9919  111.2365 N   0  0  0  0  0  0  0  0  0  0  0  0
  123.0650  108.6897  106.8842 N   0  0  0  0  0  0  0  0  0  0  0  0
  122.5173  107.6641  109.4431 O   0  0  0  0  0  0  0  0  0  0  0  0
  125.4485  102.7971  106.7294 F   0  0  0  0  0  0  0  0  0  0  0  0
  126.5433  106.7003  109.1699 F   0  0  0  0  0  0  0  0  0  0  0  0
  122.3475  105.9485  107.6377 H   0  0  0  0  0  0  0  0  0  0  0  0
  123.0316  103.7944  106.6339 H   0  0  0  0  0  0  0  0  0  0  0  0
  127.0460  104.4035  108.0393 H   0  0  0  0  0  0  0  0  0  0  0  0
  123.3503  111.8267  112.2197 H   0  0  0  0  0  0  0  0  0  0  0  0
  123.3875  107.7064  112.7931 H   0  0  0  0  0  0  0  0  0  0  0  0
  125.7619  108.1578  106.9325 H   0  0  0  0  0  0  0  0  0  0  0  0
  125.4320  109.8815  106.6672 H   0  0  0  0  0  0  0  0  0  0  0  0
  126.1061  109.3304  108.2028 H   0  0  0  0  0  0  0  0  0  0  0  0
  125.7278  108.4625  110.0052 H   0  0  0  0  0  0  0  0  0  0  0  0
  124.9474  107.1418  110.8740 H   0  0  0  0  0  0  0  0  0  0  0  0
  123.6832  109.8407  108.4402 H   0  0  0  0  0  0  0  0  0  0  0  0
  123.2522  109.1425  106.0103 H   0  0  0  0  0  0  0  0  0  0  0  0
  122.1720  108.2789  107.0785 H   0  0  0  0  0  0  0  0  0  0  0  0
  122.3112  108.5285  109.8240 H   0  0  0  0  0  0  0  0  0  0  0  0
  1  2  2  0  0  0  0
  1  6  1  0  0  0  0
  2  7  1  0  0  0  0
  3  7  2  0  0  0  0
  3  8  1  0  0  0  0
  4 13  1  0  0  0  0
  4 14  2  0  0  0  0
  5 13  2  0  0  0  0
  5 15  1  0  0  0  0
  6  8  2  0  0  0  0
  6 12  1  0  0  0  0
  7 18  1  0  0  0  0
  8 19  1  0  0  0  0
  9 11  1  0  0  0  0
 10 12  1  0  0  0  0
 10 15  1  0  0  0  0
 11 12  1  0  0  0  0
 11 16  1  0  0  0  0
 12 17  1  0  0  0  0
 14 15  1  0  0  0  0
  1 20  1  0  0  0  0
  2 21  1  0  0  0  0
  3 22  1  0  0  0  0
  4 23  1  0  0  0  0
  5 24  1  0  0  0  0
  9 25  1  0  0  0  0
  9 26  1  0  0  0  0
  9 27  1  0  0  0  0
 10 28  1  0  0  0  0
 10 29  1  0  0  0  0
 11 30  1  0  0  0  0
 16 31  1  0  0  0  0
 16 32  1  0  0  0  0
 17 33  1  0  0  0  0
M  END
> <FRED Chemgauss4 score>
-9.221376

$$$$
C90805554	P142050179
  -OEChem-05122015313D

 29 29  0     1  0  0  0  0  0999 V2000
  124.6519  107.2703  109.3304 C   0  0  0  0  0  0  0  0  0  0  0  0
  124.3466  108.5711  109.4130 C   0  0  0  0  0  0  0  0  0  0  0  0
  124.9486  109.5022  108.4220 C   0  0  0  0  0  0  0  0  0  0  0  0
  126.1072  107.5434  107.4043 C   0  0  0  0  0  0  0  0  0  0  0  0
  124.2298  109.8466  111.5261 C   0  0  0  0  0  0  0  0  0  0  0  0
  123.4326  109.1424  110.4490 C   0  0  0  0  0  0  0  0  0  0  0  0
  127.2278  105.0388  108.6616 C   0  0  0  0  0  0  0  0  0  0  0  0
  125.7377  105.3021  108.4069 C   0  0  2  0  0  0  0  0  0  0  0  0
  125.2185  104.6741  107.1218 C   0  0  0  0  0  0  0  0  0  0  0  0
  125.7859  108.9024  107.4936 N   0  0  0  0  0  0  0  0  0  0  0  0
  125.4958  106.7401  108.3762 N   0  0  0  0  0  0  0  0  0  0  0  0
  127.7012  105.6589  109.8935 N   0  0  0  0  0  0  0  0  0  0  0  0
  124.7092  110.7066  108.4424 O   0  0  0  0  0  0  0  0  0  0  0  0
  126.8685  107.1251  106.5297 O   0  0  0  0  0  0  0  0  0  0  0  0
  123.9147  104.9784  106.9287 F   0  0  0  0  0  0  0  0  0  0  0  0
  125.8942  105.1219  106.0414 F   0  0  0  0  0  0  0  0  0  0  0  0
  125.3270  103.3282  107.1471 F   0  0  0  0  0  0  0  0  0  0  0  0
  124.2341  106.5568  110.0342 H   0  0  0  0  0  0  0  0  0  0  0  0
  124.9138  109.1452  112.0135 H   0  0  0  0  0  0  0  0  0  0  0  0
  123.5697  110.2711  112.2901 H   0  0  0  0  0  0  0  0  0  0  0  0
  124.8214  110.6670  111.1064 H   0  0  0  0  0  0  0  0  0  0  0  0
  122.7470  109.8375  109.9577 H   0  0  0  0  0  0  0  0  0  0  0  0
  122.8505  108.3215  110.8757 H   0  0  0  0  0  0  0  0  0  0  0  0
  127.4026  103.9586  108.7325 H   0  0  0  0  0  0  0  0  0  0  0  0
  127.8276  105.3996  107.8175 H   0  0  0  0  0  0  0  0  0  0  0  0
  125.1504  104.9178  109.2493 H   0  0  0  0  0  0  0  0  0  0  0  0
  126.2124  109.5143  106.8034 H   0  0  0  0  0  0  0  0  0  0  0  0
  128.6732  105.8717  109.9706 H   0  0  0  0  0  0  0  0  0  0  0  0
  127.0916  105.6625  110.6837 H   0  0  0  0  0  0  0  0  0  0  0  0
  1  2  2  0  0  0  0
  1 11  1  0  0  0  0
  2  3  1  0  0  0  0
  2  6  1  0  0  0  0
  3 10  1  0  0  0  0
  3 13  2  0  0  0  0
  4 10  1  0  0  0  0
  4 11  1  0  0  0  0
  4 14  2  0  0  0  0
  5  6  1  0  0  0  0
  7  8  1  0  0  0  0
  7 12  1  0  0  0  0
  8  9  1  0  0  0  0
  8 11  1  0  0  0  0
  9 15  1  0  0  0  0
  9 16  1  0  0  0  0
  9 17  1  0  0  0  0
  1 18  1  0  0  0  0
  5 19  1  0  0  0  0
  5 20  1  0  0  0  0
  5 21  1  0  0  0  0
  6 22  1  0  0  0  0
  6 23  1  0  0  0  0
  7 24  1  0  0  0  0
  7 25  1  0  0  0  0
  8 26  1  0  0  0  0
 10 27  1  0  0  0  0
 12 28  1  0  0  0  0
 12 29  1  0  0  0  0
M  END
> <FRED Chemgauss4 score>
-9.218449

$$$$
C94794084	P148574506
  -OEChem-05122015313D

 36 37  0     1  0  0  0  0  0999 V2000
  123.7704  105.1318  107.3351 C   0  0  0  0  0  0  0  0  0  0  0  0
  124.9151  105.2944  107.6610 C   0  0  0  0  0  0  0  0  0  0  0  0
  121.9721  103.9836  106.0622 C   0  0  0  0  0  0  0  0  0  0  0  0
  120.5605  104.0355  105.8759 C   0  0  0  0  0  0  0  0  0  0  0  0
  122.4124  104.9404  106.9501 C   0  0  0  0  0  0  0  0  0  0  0  0
  119.9755  105.0299  106.6288 C   0  0  0  0  0  0  0  0  0  0  0  0
  118.1554  105.6790  104.2333 C   0  0  0  0  0  0  0  0  0  0  0  0
  117.2394  105.0376  103.2163 C   0  0  0  0  0  0  0  0  0  0  0  0
  116.7627  104.1672  105.3998 C   0  0  0  0  0  0  0  0  0  0  0  0
  116.0976  104.4624  104.0607 C   0  0  1  0  0  0  0  0  0  0  0  0
  115.4186  106.7461  104.8173 C   0  0  0  0  0  0  0  0  0  0  0  0
  126.3092  105.4925  108.0549 C   0  0  0  0  0  0  0  0  0  0  0  0
  118.5246  105.4068  106.7136 C   0  0  0  0  0  0  0  0  0  0  0  0
  114.9522  105.4653  104.2090 C   0  0  0  0  0  0  0  0  0  0  0  0
  117.8239  105.1448  105.4752 N   0  0  0  0  0  0  0  0  0  0  0  0
  126.4182  105.7329  109.4665 N   0  0  0  0  0  0  0  0  0  0  0  0
  119.0398  106.4785  103.9651 O   0  0  0  0  0  0  0  0  0  0  0  0
  121.1264  105.8957  107.5551 S   0  0  0  0  0  0  0  0  0  0  0  0
  122.6232  103.2753  105.5644 H   0  0  0  0  0  0  0  0  0  0  0  0
  120.0059  103.3747  105.2217 H   0  0  0  0  0  0  0  0  0  0  0  0
  116.9003  105.7714  102.4804 H   0  0  0  0  0  0  0  0  0  0  0  0
  117.7956  104.2394  102.7134 H   0  0  0  0  0  0  0  0  0  0  0  0
  116.0851  104.2685  106.2528 H   0  0  0  0  0  0  0  0  0  0  0  0
  117.2215  103.1726  105.4094 H   0  0  0  0  0  0  0  0  0  0  0  0
  115.6940  103.5484  103.6112 H   0  0  0  0  0  0  0  0  0  0  0  0
  115.8501  106.5466  105.8052 H   0  0  0  0  0  0  0  0  0  0  0  0
  114.5852  107.4449  104.9457 H   0  0  0  0  0  0  0  0  0  0  0  0
  116.1903  107.2153  104.1979 H   0  0  0  0  0  0  0  0  0  0  0  0
  126.7420  106.3546  107.5390 H   0  0  0  0  0  0  0  0  0  0  0  0
  126.9147  104.6115  107.8238 H   0  0  0  0  0  0  0  0  0  0  0  0
  118.0252  104.8434  107.5094 H   0  0  0  0  0  0  0  0  0  0  0  0
  118.4079  106.4706  106.9457 H   0  0  0  0  0  0  0  0  0  0  0  0
  114.5215  105.6603  103.2242 H   0  0  0  0  0  0  0  0  0  0  0  0
  114.1723  105.0234  104.8333 H   0  0  0  0  0  0  0  0  0  0  0  0
  125.7185  106.2950  109.9267 H   0  0  0  0  0  0  0  0  0  0  0  0
  127.2830  105.5166  109.9383 H   0  0  0  0  0  0  0  0  0  0  0  0
  1  2  3  0  0  0  0
  1  5  1  0  0  0  0
  2 12  1  0  0  0  0
  3  4  1  0  0  0  0
  3  5  2  0  0  0  0
  4  6  2  0  0  0  0
  5 18  1  0  0  0  0
  6 13  1  0  0  0  0
  6 18  1  0  0  0  0
  7  8  1  0  0  0  0
  7 15  1  0  0  0  0
  7 17  2  0  0  0  0
  8 10  1  0  0  0  0
  9 10  1  0  0  0  0
  9 15  1  0  0  0  0
 10 14  1  0  0  0  0
 11 14  1  0  0  0  0
 12 16  1  0  0  0  0
 13 15  1  0  0  0  0
  3 19  1  0  0  0  0
  4 20  1  0  0  0  0
  8 21  1  0  0  0  0
  8 22  1  0  0  0  0
  9 23  1  0  0  0  0
  9 24  1  0  0  0  0
 10 25  1  0  0  0  0
 11 26  1  0  0  0  0
 11 27  1  0  0  0  0
 11 28  1  0  0  0  0
 12 29  1  0  0  0  0
 12 30  1  0  0  0  0
 13 31  1  0  0  0  0
 13 32  1  0  0  0  0
 14 33  1  0  0  0  0
 14 34  1  0  0  0  0
 16 35  1  0  0  0  0
 16 36  1  0  0  0  0
M  END
> <FRED Chemgauss4 score>
-9.214592

$$$$
C03455687	P09296976
  -OEChem-05122015313D

 41 44  0     1  0  0  0  0  0999 V2000
  120.0135  109.3481  108.9180 C   0  0  0  0  0  0  0  0  0  0  0  0
  121.8853  107.6239  108.1027 C   0  0  0  0  0  0  0  0  0  0  0  0
  123.0576  106.8209  107.8998 C   0  0  0  0  0  0  0  0  0  0  0  0
  124.0510  107.1269  108.8121 C   0  0  0  0  0  0  0  0  0  0  0  0
  120.6495  107.6945  107.4488 C   0  0  0  0  0  0  0  0  0  0  0  0
  122.0586  108.4939  109.1729 C   0  0  0  0  0  0  0  0  0  0  0  0
  123.2568  105.7851  106.8327 C   0  0  0  0  0  0  0  0  0  0  0  0
  125.3880  106.4581  108.8881 C   0  0  0  0  0  0  0  0  0  0  0  0
  124.4560  104.8732  107.1341 C   0  0  0  0  0  0  0  0  0  0  0  0
  125.6775  105.6798  107.5958 C   0  0  0  0  0  0  0  0  0  0  0  0
  120.8214  106.1167  104.0665 C   0  0  0  0  0  0  0  0  0  0  0  0
  119.6073  105.1971  104.1272 C   0  0  0  0  0  0  0  0  0  0  0  0
  120.6688  107.3135  105.0026 C   0  0  0  0  0  0  0  0  0  0  0  0
  119.1984  105.9598  106.4978 C   0  0  0  0  0  0  0  0  0  0  0  0
  119.3538  104.7461  105.5697 C   0  0  1  0  0  0  0  0  0  0  0  0
  118.1216  103.8467  105.6443 C   0  0  0  0  0  0  0  0  0  0  0  0
  119.7068  108.5667  107.8647 N   0  0  0  0  0  0  0  0  0  0  0  0
  121.1540  109.3820  109.6290 N   0  0  0  0  0  0  0  0  0  0  0  0
  120.3500  106.8645  106.3618 N   0  0  0  0  0  0  0  0  0  0  0  0
  117.9327  103.4289  106.9052 F   0  0  0  0  0  0  0  0  0  0  0  0
  117.0342  104.5222  105.2428 F   0  0  0  0  0  0  0  0  0  0  0  0
  118.2852  102.7763  104.8520 F   0  0  0  0  0  0  0  0  0  0  0  0
  123.5895  108.3451  109.9053 S   0  0  0  0  0  0  0  0  0  0  0  0
  119.2392  110.0386  109.2336 H   0  0  0  0  0  0  0  0  0  0  0  0
  122.3468  105.1768  106.7604 H   0  0  0  0  0  0  0  0  0  0  0  0
  123.4203  106.2579  105.8585 H   0  0  0  0  0  0  0  0  0  0  0  0
  126.1602  107.2245  109.0298 H   0  0  0  0  0  0  0  0  0  0  0  0
  125.4394  105.7743  109.7432 H   0  0  0  0  0  0  0  0  0  0  0  0
  124.1762  104.1437  107.9023 H   0  0  0  0  0  0  0  0  0  0  0  0
  124.7218  104.3050  106.2335 H   0  0  0  0  0  0  0  0  0  0  0  0
  125.9840  106.3791  106.8099 H   0  0  0  0  0  0  0  0  0  0  0  0
  126.5185  104.9938  107.7605 H   0  0  0  0  0  0  0  0  0  0  0  0
  121.7181  105.5488  104.3452 H   0  0  0  0  0  0  0  0  0  0  0  0
  120.9710  106.4681  103.0395 H   0  0  0  0  0  0  0  0  0  0  0  0
  118.7281  105.7227  103.7337 H   0  0  0  0  0  0  0  0  0  0  0  0
  119.7764  104.3262  103.4832 H   0  0  0  0  0  0  0  0  0  0  0  0
  121.6055  107.8893  104.9957 H   0  0  0  0  0  0  0  0  0  0  0  0
  119.8742  107.9787  104.6335 H   0  0  0  0  0  0  0  0  0  0  0  0
  118.2716  106.5059  106.2645 H   0  0  0  0  0  0  0  0  0  0  0  0
  119.1144  105.6080  107.5368 H   0  0  0  0  0  0  0  0  0  0  0  0
  120.2217  104.1621  105.9042 H   0  0  0  0  0  0  0  0  0  0  0  0
  1 17  1  0  0  0  0
  1 18  2  0  0  0  0
  2  3  1  0  0  0  0
  2  5  1  0  0  0  0
  2  6  2  0  0  0  0
  3  4  2  0  0  0  0
  3  7  1  0  0  0  0
  4  8  1  0  0  0  0
  4 23  1  0  0  0  0
  5 17  2  0  0  0  0
  5 19  1  0  0  0  0
  6 18  1  0  0  0  0
  6 23  1  0  0  0  0
  7  9  1  0  0  0  0
  8 10  1  0  0  0  0
  9 10  1  0  0  0  0
 11 12  1  0  0  0  0
 11 13  1  0  0  0  0
 12 15  1  0  0  0  0
 13 19  1  0  0  0  0
 14 15  1  0  0  0  0
 14 19  1  0  0  0  0
 15 16  1  0  0  0  0
 16 20  1  0  0  0  0
 16 21  1  0  0  0  0
 16 22  1  0  0  0  0
  1 24  1  0  0  0  0
  7 25  1  0  0  0  0
  7 26  1  0  0  0  0
  8 27  1  0  0  0  0
  8 28  1  0  0  0  0
  9 29  1  0  0  0  0
  9 30  1  0  0  0  0
 10 31  1  0  0  0  0
 10 32  1  0  0  0  0
 11 33  1  0  0  0  0
 11 34  1  0  0  0  0
 12 35  1  0  0  0  0
 12 36  1  0  0  0  0
 13 37  1  0  0  0  0
 13 38  1  0  0  0  0
 14 39  1  0  0  0  0
 14 40  1  0  0  0  0
 15 41  1  0  0  0  0
M  END
> <FRED Chemgauss4 score>
-9.212571

$$$$
C87759253	P137266296
  -OEChem-05122015313D

 31 32  0     1  0  0  0  0  0999 V2000
  125.8625  105.4678  107.9946 C   0  0  0  0  0  0  0  0  0  0  0  0
  125.4699  106.7701  108.3039 C   0  0  0  0  0  0  0  0  0  0  0  0
  123.6675  105.0212  107.0892 C   0  0  0  0  0  0  0  0  0  0  0  0
  123.2749  106.3234  107.3985 C   0  0  0  0  0  0  0  0  0  0  0  0
  124.9613  104.5934  107.3872 C   0  0  0  0  0  0  0  0  0  0  0  0
  124.1761  107.1979  108.0059 C   0  0  0  0  0  0  0  0  0  0  0  0
  120.3203  106.1857  104.5511 C   0  0  0  0  0  0  0  0  0  0  0  0
  118.9486  103.7517  105.3992 C   0  0  0  0  0  0  0  0  0  0  0  0
  118.6938  105.0416  106.1652 C   0  0  0  0  0  0  0  0  0  0  0  0
  119.0953  104.0793  103.9257 C   0  0  0  0  0  0  0  0  0  0  0  0
  119.8477  106.0276  105.9903 C   0  0  1  0  0  0  0  0  0  0  0  0
  121.8740  106.7449  107.0608 C   0  0  0  0  0  0  0  0  0  0  0  0
  120.0272  105.1623  103.6757 N   0  0  0  0  0  0  0  0  0  0  0  0
  121.0215  105.6062  106.7560 N   0  0  0  0  0  0  0  0  0  0  0  0
  121.0026  107.1569  104.2152 O   0  0  0  0  0  0  0  0  0  0  0  0
  125.4458  102.9864  107.0070 Cl  0  0  0  0  0  0  0  0  0  0  0  0
  123.7260  108.8162  108.4026 Cl  0  0  0  0  0  0  0  0  0  0  0  0
  126.8738  105.1486  108.2323 H   0  0  0  0  0  0  0  0  0  0  0  0
  126.1842  107.4391  108.7771 H   0  0  0  0  0  0  0  0  0  0  0  0
  122.9625  104.3414  106.6153 H   0  0  0  0  0  0  0  0  0  0  0  0
  119.8548  103.2602  105.7673 H   0  0  0  0  0  0  0  0  0  0  0  0
  118.1137  103.0579  105.5513 H   0  0  0  0  0  0  0  0  0  0  0  0
  117.7507  105.4974  105.8160 H   0  0  0  0  0  0  0  0  0  0  0  0
  118.5412  104.8045  107.2343 H   0  0  0  0  0  0  0  0  0  0  0  0
  119.4700  103.2095  103.3761 H   0  0  0  0  0  0  0  0  0  0  0  0
  118.1314  104.3608  103.4916 H   0  0  0  0  0  0  0  0  0  0  0  0
  119.5471  107.0195  106.3274 H   0  0  0  0  0  0  0  0  0  0  0  0
  121.4226  107.2899  107.8970 H   0  0  0  0  0  0  0  0  0  0  0  0
  121.8630  107.4130  106.1933 H   0  0  0  0  0  0  0  0  0  0  0  0
  120.5039  105.1665  102.7795 H   0  0  0  0  0  0  0  0  0  0  0  0
  120.7117  105.1728  107.6234 H   0  0  0  0  0  0  0  0  0  0  0  0
  1  2  1  0  0  0  0
  1  5  2  0  0  0  0
  2  6  2  0  0  0  0
  3  4  2  0  0  0  0
  3  5  1  0  0  0  0
  4  6  1  0  0  0  0
  4 12  1  0  0  0  0
  5 16  1  0  0  0  0
  6 17  1  0  0  0  0
  7 11  1  0  0  0  0
  7 13  1  0  0  0  0
  7 15  2  0  0  0  0
  8  9  1  0  0  0  0
  8 10  1  0  0  0  0
  9 11  1  0  0  0  0
 10 13  1  0  0  0  0
 11 14  1  0  0  0  0
 12 14  1  0  0  0  0
  1 18  1  0  0  0  0
  2 19  1  0  0  0  0
  3 20  1  0  0  0  0
  8 21  1  0  0  0  0
  8 22  1  0  0  0  0
  9 23  1  0  0  0  0
  9 24  1  0  0  0  0
 10 25  1  0  0  0  0
 10 26  1  0  0  0  0
 11 27  1  0  0  0  0
 12 28  1  0  0  0  0
 12 29  1  0  0  0  0
 13 30  1  0  0  0  0
 14 31  1  0  0  0  0
M  END
> <FRED Chemgauss4 score>
-9.204303

$$$$
C71148292	P109848264
  -OEChem-05122015313D

 48 49  0     1  0  0  0  0  0999 V2000
  125.6964  107.8529  107.7014 C   0  0  0  0  0  0  0  0  0  0  0  0
  118.0915  103.7155  105.6824 C   0  0  0  0  0  0  0  0  0  0  0  0
  117.2083  104.8678  106.1543 C   0  0  0  0  0  0  0  0  0  0  0  0
  119.5011  103.8151  106.2576 C   0  0  0  0  0  0  0  0  0  0  0  0
  119.2555  106.3263  106.4204 C   0  0  0  0  0  0  0  0  0  0  0  0
  121.3755  105.5925  107.9746 C   0  0  0  0  0  0  0  0  0  0  0  0
  122.2900  106.2588  105.8449 C   0  0  0  0  0  0  0  0  0  0  0  0
  122.7690  105.6943  108.6044 C   0  0  0  0  0  0  0  0  0  0  0  0
  123.6830  106.3617  106.4755 C   0  0  0  0  0  0  0  0  0  0  0  0
  117.8386  106.2306  105.8380 C   0  0  2  0  0  0  0  0  0  0  0  0
  120.1406  105.1700  105.9468 C   0  0  1  0  0  0  0  0  0  0  0  0
  116.9613  107.3652  106.3639 C   0  0  0  0  0  0  0  0  0  0  0  0
  125.6132  105.4215  108.3835 C   0  0  0  0  0  0  0  0  0  0  0  0
  124.7089  107.0997  109.9937 C   0  0  0  0  0  0  0  0  0  0  0  0
  124.9165  106.7866  108.5035 C   0  0  0  0  0  0  0  0  0  0  0  0
  121.4700  105.2639  106.5469 N   0  0  0  0  0  0  0  0  0  0  0  0
  123.5875  106.6907  107.9030 N   0  0  0  0  0  0  0  0  0  0  0  0
  126.8237  107.4046  107.0541 N   0  0  0  0  0  0  0  0  0  0  0  0
  125.2777  109.4739  107.5924 S   0  0  0  0  0  0  0  0  0  0  0  0
  117.6399  102.7614  105.9772 H   0  0  0  0  0  0  0  0  0  0  0  0
  118.1423  103.7190  104.5867 H   0  0  0  0  0  0  0  0  0  0  0  0
  116.2259  104.7898  105.6736 H   0  0  0  0  0  0  0  0  0  0  0  0
  117.0413  104.7753  107.2349 H   0  0  0  0  0  0  0  0  0  0  0  0
  119.4538  103.6585  107.3436 H   0  0  0  0  0  0  0  0  0  0  0  0
  120.1159  103.0042  105.8477 H   0  0  0  0  0  0  0  0  0  0  0  0
  119.7072  107.2833  106.1284 H   0  0  0  0  0  0  0  0  0  0  0  0
  119.1989  106.3281  107.5178 H   0  0  0  0  0  0  0  0  0  0  0  0
  120.7818  104.8401  108.5116 H   0  0  0  0  0  0  0  0  0  0  0  0
  120.8690  106.5573  108.1002 H   0  0  0  0  0  0  0  0  0  0  0  0
  121.8106  107.2437  105.9057 H   0  0  0  0  0  0  0  0  0  0  0  0
  122.3846  106.0077  104.7793 H   0  0  0  0  0  0  0  0  0  0  0  0
  122.6751  105.9440  109.6700 H   0  0  0  0  0  0  0  0  0  0  0  0
  123.2484  104.7099  108.5412 H   0  0  0  0  0  0  0  0  0  0  0  0
  124.1896  105.3968  106.3508 H   0  0  0  0  0  0  0  0  0  0  0  0
  124.2770  107.1139  105.9385 H   0  0  0  0  0  0  0  0  0  0  0  0
  117.9057  106.3357  104.7472 H   0  0  0  0  0  0  0  0  0  0  0  0
  120.2557  105.2534  104.8519 H   0  0  0  0  0  0  0  0  0  0  0  0
  116.8729  107.2915  107.4464 H   0  0  0  0  0  0  0  0  0  0  0  0
  115.9695  107.3007  105.9196 H   0  0  0  0  0  0  0  0  0  0  0  0
  117.4062  108.3249  106.1065 H   0  0  0  0  0  0  0  0  0  0  0  0
  125.0776  104.6470  108.9452 H   0  0  0  0  0  0  0  0  0  0  0  0
  126.6353  105.4738  108.7766 H   0  0  0  0  0  0  0  0  0  0  0  0
  125.6856  105.0768  107.3459 H   0  0  0  0  0  0  0  0  0  0  0  0
  124.1506  106.3078  110.5071 H   0  0  0  0  0  0  0  0  0  0  0  0
  124.1609  108.0391  110.1316 H   0  0  0  0  0  0  0  0  0  0  0  0
  125.6680  107.2079  110.5154 H   0  0  0  0  0  0  0  0  0  0  0  0
  127.1076  106.4326  107.1188 H   0  0  0  0  0  0  0  0  0  0  0  0
  127.4193  108.0119  106.5018 H   0  0  0  0  0  0  0  0  0  0  0  0
  1 15  1  0  0  0  0
  1 18  1  0  0  0  0
  1 19  2  0  0  0  0
  2  3  1  0  0  0  0
  2  4  1  0  0  0  0
  3 10  1  0  0  0  0
  4 11  1  0  0  0  0
  5 10  1  0  0  0  0
  5 11  1  0  0  0  0
  6  8  1  0  0  0  0
  6 16  1  0  0  0  0
  7  9  1  0  0  0  0
  7 16  1  0  0  0  0
  8 17  1  0  0  0  0
  9 17  1  0  0  0  0
 10 12  1  0  0  0  0
 11 16  1  0  0  0  0
 13 15  1  0  0  0  0
 14 15  1  0  0  0  0
 15 17  1  0  0  0  0
  2 20  1  0  0  0  0
  2 21  1  0  0  0  0
  3 22  1  0  0  0  0
  3 23  1  0  0  0  0
  4 24  1  0  0  0  0
  4 25  1  0  0  0  0
  5 26  1  0  0  0  0
  5 27  1  0  0  0  0
  6 28  1  0  0  0  0
  6 29  1  0  0  0  0
  7 30  1  0  0  0  0
  7 31  1  0  0  0  0
  8 32  1  0  0  0  0
  8 33  1  0  0  0  0
  9 34  1  0  0  0  0
  9 35  1  0  0  0  0
 10 36  1  0  0  0  0
 11 37  1  0  0  0  0
 12 38  1  0  0  0  0
 12 39  1  0  0  0  0
 12 40  1  0  0  0  0
 13 41  1  0  0  0  0
 13 42  1  0  0  0  0
 13 43  1  0  0  0  0
 14 44  1  0  0  0  0
 14 45  1  0  0  0  0
 14 46  1  0  0  0  0
 18 47  1  0  0  0  0
 18 48  1  0  0  0  0
M  END
> <FRED Chemgauss4 score>
-9.203557

$$$$
C87697014	P137174208
  -OEChem-05122015313D

 29 29  0     0  0  0  0  0  0999 V2000
  122.3681  106.4254  105.6060 C   0  0  0  0  0  0  0  0  0  0  0  0
  120.6322  105.0574  104.7800 C   0  0  0  0  0  0  0  0  0  0  0  0
  123.4462  107.0323  106.3066 C   0  0  0  0  0  0  0  0  0  0  0  0
  126.3811  106.3743  107.7044 C   0  0  0  0  0  0  0  0  0  0  0  0
  116.4227  104.8181  102.7335 C   0  0  0  0  0  0  0  0  0  0  0  0
  125.0566  106.8510  108.2545 C   0  0  0  0  0  0  0  0  0  0  0  0
  117.4458  104.7931  103.8602 C   0  0  0  0  0  0  0  0  0  0  0  0
  118.7425  104.0980  103.4630 C   0  0  0  0  0  0  0  0  0  0  0  0
  121.7895  106.9560  104.5498 N   0  0  0  0  0  0  0  0  0  0  0  0
  120.7706  106.1541  104.0659 N   0  0  0  0  0  0  0  0  0  0  0  0
  127.4504  106.8307  108.4448 N   0  0  0  0  0  0  0  0  0  0  0  0
  119.6948  104.0604  104.5382 N   0  0  0  0  0  0  0  0  0  0  0  0
  123.9789  106.3552  107.4288 N   0  0  0  0  0  0  0  0  0  0  0  0
  123.9137  108.1519  105.9644 O   0  0  0  0  0  0  0  0  0  0  0  0
  126.4921  105.6278  106.7357 O   0  0  0  0  0  0  0  0  0  0  0  0
  121.7248  104.9122  106.0940 S   0  0  0  0  0  0  0  0  0  0  0  0
  116.8195  105.3369  101.8550 H   0  0  0  0  0  0  0  0  0  0  0  0
  116.1655  103.7965  102.4356 H   0  0  0  0  0  0  0  0  0  0  0  0
  115.5005  105.3195  103.0429 H   0  0  0  0  0  0  0  0  0  0  0  0
  125.0056  107.9432  108.2581 H   0  0  0  0  0  0  0  0  0  0  0  0
  124.9231  106.4676  109.2697 H   0  0  0  0  0  0  0  0  0  0  0  0
  117.0101  104.2667  104.7173 H   0  0  0  0  0  0  0  0  0  0  0  0
  117.6527  105.8208  104.1817 H   0  0  0  0  0  0  0  0  0  0  0  0
  118.5395  103.0606  103.1791 H   0  0  0  0  0  0  0  0  0  0  0  0
  119.2168  104.5975  102.6124 H   0  0  0  0  0  0  0  0  0  0  0  0
  127.3076  107.4178  109.2598 H   0  0  0  0  0  0  0  0  0  0  0  0
  128.4111  106.6013  108.2109 H   0  0  0  0  0  0  0  0  0  0  0  0
  119.6868  103.2589  105.1646 H   0  0  0  0  0  0  0  0  0  0  0  0
  123.5391  105.4870  107.7162 H   0  0  0  0  0  0  0  0  0  0  0  0
  1  3  1  0  0  0  0
  1  9  2  0  0  0  0
  1 16  1  0  0  0  0
  2 10  2  0  0  0  0
  2 12  1  0  0  0  0
  2 16  1  0  0  0  0
  3 13  1  0  0  0  0
  3 14  2  0  0  0  0
  4  6  1  0  0  0  0
  4 11  1  0  0  0  0
  4 15  2  0  0  0  0
  5  7  1  0  0  0  0
  6 13  1  0  0  0  0
  7  8  1  0  0  0  0
  8 12  1  0  0  0  0
  9 10  1  0  0  0  0
  5 17  1  0  0  0  0
  5 18  1  0  0  0  0
  5 19  1  0  0  0  0
  6 20  1  0  0  0  0
  6 21  1  0  0  0  0
  7 22  1  0  0  0  0
  7 23  1  0  0  0  0
  8 24  1  0  0  0  0
  8 25  1  0  0  0  0
 11 26  1  0  0  0  0
 11 27  1  0  0  0  0
 12 28  1  0  0  0  0
 13 29  1  0  0  0  0
M  END
> <FRED Chemgauss4 score>
-9.203345

$$$$
C97588393	P154677190
  -OEChem-05122015313D

 47 49  0     1  0  0  0  0  0999 V2000
  122.7474  106.5349  105.8424 C   0  0  0  0  0  0  0  0  0  0  0  0
  122.9246  104.3818  106.2519 C   0  0  0  0  0  0  0  0  0  0  0  0
  122.0900  105.3025  105.6668 C   0  0  0  0  0  0  0  0  0  0  0  0
  117.4021  103.0463  105.0256 C   0  0  0  0  0  0  0  0  0  0  0  0
  116.7985  103.6781  106.2795 C   0  0  0  0  0  0  0  0  0  0  0  0
  117.5916  108.8761  104.6452 C   0  0  0  0  0  0  0  0  0  0  0  0
  117.0052  108.2437  103.3866 C   0  0  0  0  0  0  0  0  0  0  0  0
  117.9694  104.1981  104.2004 C   0  0  0  0  0  0  0  0  0  0  0  0
  117.0303  105.1813  106.1516 C   0  0  0  0  0  0  0  0  0  0  0  0
  118.0087  107.7045  105.5217 C   0  0  0  0  0  0  0  0  0  0  0  0
  117.1213  106.7422  103.6045 C   0  0  0  0  0  0  0  0  0  0  0  0
  118.2311  105.3226  105.2090 C   0  0  0  0  0  0  0  0  0  0  0  0
  125.1341  104.5551  107.4210 C   0  0  0  0  0  0  0  0  0  0  0  0
  120.7643  105.0476  104.9905 C   0  0  0  0  0  0  0  0  0  0  0  0
  119.5594  105.1254  105.9477 C   0  0  2  0  0  0  0  0  0  0  0  0
  123.9098  106.4118  106.4885 N   0  0  0  0  0  0  0  0  0  0  0  0
  123.9894  105.0911  106.7242 N   0  0  0  0  0  0  0  0  0  0  0  0
  118.2336  106.6336  104.5497 N   0  0  0  0  0  0  0  0  0  0  0  0
  120.4896  103.9308  107.7295 N   0  0  0  0  0  0  0  0  0  0  0  0
  119.4767  103.8866  106.7289 N   0  0  0  0  0  0  0  0  0  0  0  0
  122.4294  107.5189  105.5281 H   0  0  0  0  0  0  0  0  0  0  0  0
  122.8526  103.3091  106.3706 H   0  0  0  0  0  0  0  0  0  0  0  0
  118.1800  102.3162  105.2738 H   0  0  0  0  0  0  0  0  0  0  0  0
  116.6246  102.5157  104.4631 H   0  0  0  0  0  0  0  0  0  0  0  0
  115.7258  103.4569  106.3302 H   0  0  0  0  0  0  0  0  0  0  0  0
  117.2555  103.2831  107.1931 H   0  0  0  0  0  0  0  0  0  0  0  0
  118.4413  109.5267  104.4141 H   0  0  0  0  0  0  0  0  0  0  0  0
  116.8285  109.4847  105.1447 H   0  0  0  0  0  0  0  0  0  0  0  0
  115.9559  108.5414  103.2765 H   0  0  0  0  0  0  0  0  0  0  0  0
  117.5408  108.5609  102.4859 H   0  0  0  0  0  0  0  0  0  0  0  0
  118.9114  103.8775  103.7323 H   0  0  0  0  0  0  0  0  0  0  0  0
  117.2920  104.4917  103.3881 H   0  0  0  0  0  0  0  0  0  0  0  0
  116.1336  105.7046  105.7951 H   0  0  0  0  0  0  0  0  0  0  0  0
  117.2699  105.5951  107.1418 H   0  0  0  0  0  0  0  0  0  0  0  0
  118.9261  107.9591  106.0700 H   0  0  0  0  0  0  0  0  0  0  0  0
  117.2307  107.4454  106.2482 H   0  0  0  0  0  0  0  0  0  0  0  0
  116.1944  106.3190  104.0078 H   0  0  0  0  0  0  0  0  0  0  0  0
  117.3440  106.2442  102.6505 H   0  0  0  0  0  0  0  0  0  0  0  0
  125.8920  104.2977  106.6765 H   0  0  0  0  0  0  0  0  0  0  0  0
  125.5208  105.3049  108.1168 H   0  0  0  0  0  0  0  0  0  0  0  0
  124.8317  103.6671  107.9831 H   0  0  0  0  0  0  0  0  0  0  0  0
  120.6305  105.7519  104.1584 H   0  0  0  0  0  0  0  0  0  0  0  0
  120.8155  104.0522  104.5278 H   0  0  0  0  0  0  0  0  0  0  0  0
  119.6943  105.9549  106.6531 H   0  0  0  0  0  0  0  0  0  0  0  0
  120.9544  104.8381  107.7064 H   0  0  0  0  0  0  0  0  0  0  0  0
  120.0418  103.8706  108.6431 H   0  0  0  0  0  0  0  0  0  0  0  0
  119.6402  103.0959  106.1124 H   0  0  0  0  0  0  0  0  0  0  0  0
  1  3  1  0  0  0  0
  1 16  2  0  0  0  0
  2  3  2  0  0  0  0
  2 17  1  0  0  0  0
  3 14  1  0  0  0  0
  4  5  1  0  0  0  0
  4  8  1  0  0  0  0
  5  9  1  0  0  0  0
  6  7  1  0  0  0  0
  6 10  1  0  0  0  0
  7 11  1  0  0  0  0
  8 12  1  0  0  0  0
  9 12  1  0  0  0  0
 10 18  1  0  0  0  0
 11 18  1  0  0  0  0
 12 15  1  0  0  0  0
 12 18  1  0  0  0  0
 13 17  1  0  0  0  0
 14 15  1  0  0  0  0
 15 20  1  0  0  0  0
 16 17  1  0  0  0  0
 19 20  1  0  0  0  0
  1 21  1  0  0  0  0
  2 22  1  0  0  0  0
  4 23  1  0  0  0  0
  4 24  1  0  0  0  0
  5 25  1  0  0  0  0
  5 26  1  0  0  0  0
  6 27  1  0  0  0  0
  6 28  1  0  0  0  0
  7 29  1  0  0  0  0
  7 30  1  0  0  0  0
  8 31  1  0  0  0  0
  8 32  1  0  0  0  0
  9 33  1  0  0  0  0
  9 34  1  0  0  0  0
 10 35  1  0  0  0  0
 10 36  1  0  0  0  0
 11 37  1  0  0  0  0
 11 38  1  0  0  0  0
 13 39  1  0  0  0  0
 13 40  1  0  0  0  0
 13 41  1  0  0  0  0
 14 42  1  0  0  0  0
 14 43  1  0  0  0  0
 15 44  1  0  0  0  0
 19 45  1  0  0  0  0
 19 46  1  0  0  0  0
 20 47  1  0  0  0  0
M  END
> <FRED Chemgauss4 score>
-9.201756

$$$$
C97734229	P155054892
  -OEChem-05122015313D

 43 44  0     1  0  0  0  0  0999 V2000
  118.4455  106.8563  106.2767 C   0  0  0  0  0  0  0  0  0  0  0  0
  117.9214  107.8005  105.4009 C   0  0  0  0  0  0  0  0  0  0  0  0
  120.2609  106.5447  104.7720 C   0  0  0  0  0  0  0  0  0  0  0  0
  119.6372  106.2119  105.9637 C   0  0  0  0  0  0  0  0  0  0  0  0
  124.1859  105.1618  107.0024 C   0  0  0  0  0  0  0  0  0  0  0  0
  118.6220  108.0623  104.2345 C   0  0  0  0  0  0  0  0  0  0  0  0
  125.1455  104.1540  107.2154 C   0  0  0  0  0  0  0  0  0  0  0  0
  124.8097  106.3193  107.3995 C   0  0  0  0  0  0  0  0  0  0  0  0
  118.0888  109.0702  103.2718 C   0  0  0  0  0  0  0  0  0  0  0  0
  125.0107  102.7092  106.9593 C   0  0  0  0  0  0  0  0  0  0  0  0
  124.3418  107.7180  107.4263 C   0  0  0  0  0  0  0  0  0  0  0  0
  127.0950  106.8134  108.3206 C   0  0  0  0  0  0  0  0  0  0  0  0
  122.7872  105.0088  106.4612 C   0  0  0  0  0  0  0  0  0  0  0  0
  121.6620  105.4927  107.3910 C   0  0  0  0  0  0  0  0  0  0  0  0
  120.2338  105.1791  106.8956 C   0  0  2  0  0  0  0  0  0  0  0  0
  119.7823  107.4566  103.8962 N   0  0  0  0  0  0  0  0  0  0  0  0
  126.2917  104.6296  107.7093 N   0  0  0  0  0  0  0  0  0  0  0  0
  126.0565  105.9489  107.8099 N   0  0  0  0  0  0  0  0  0  0  0  0
  120.3104  102.8720  107.2665 N   0  0  0  0  0  0  0  0  0  0  0  0
  120.2220  103.8794  106.2553 N   0  0  0  0  0  0  0  0  0  0  0  0
  117.9196  106.6291  107.1999 H   0  0  0  0  0  0  0  0  0  0  0  0
  116.9926  108.3103  105.6332 H   0  0  0  0  0  0  0  0  0  0  0  0
  121.1932  106.0748  104.4745 H   0  0  0  0  0  0  0  0  0  0  0  0
  118.4795  110.0671  103.5084 H   0  0  0  0  0  0  0  0  0  0  0  0
  118.3690  108.8217  102.2402 H   0  0  0  0  0  0  0  0  0  0  0  0
  116.9924  109.1088  103.3032 H   0  0  0  0  0  0  0  0  0  0  0  0
  125.3292  102.4534  105.9345 H   0  0  0  0  0  0  0  0  0  0  0  0
  125.6164  102.1044  107.6570 H   0  0  0  0  0  0  0  0  0  0  0  0
  123.9700  102.3601  107.0814 H   0  0  0  0  0  0  0  0  0  0  0  0
  123.8612  107.9587  108.3891 H   0  0  0  0  0  0  0  0  0  0  0  0
  125.1678  108.4346  107.2766 H   0  0  0  0  0  0  0  0  0  0  0  0
  123.6103  107.9260  106.6262 H   0  0  0  0  0  0  0  0  0  0  0  0
  126.9783  106.8761  109.4057 H   0  0  0  0  0  0  0  0  0  0  0  0
  128.0735  106.3975  108.0648 H   0  0  0  0  0  0  0  0  0  0  0  0
  126.9969  107.8034  107.8665 H   0  0  0  0  0  0  0  0  0  0  0  0
  122.6339  103.9417  106.2525 H   0  0  0  0  0  0  0  0  0  0  0  0
  122.6967  105.5147  105.4916 H   0  0  0  0  0  0  0  0  0  0  0  0
  121.7746  106.5594  107.6187 H   0  0  0  0  0  0  0  0  0  0  0  0
  121.8031  104.9736  108.3499 H   0  0  0  0  0  0  0  0  0  0  0  0
  119.5874  105.0656  107.7751 H   0  0  0  0  0  0  0  0  0  0  0  0
  121.1678  102.3358  107.1358 H   0  0  0  0  0  0  0  0  0  0  0  0
  120.3992  103.3212  108.1771 H   0  0  0  0  0  0  0  0  0  0  0  0
  119.3490  103.7533  105.7394 H   0  0  0  0  0  0  0  0  0  0  0  0
  1  2  2  0  0  0  0
  1  4  1  0  0  0  0
  2  6  1  0  0  0  0
  3  4  2  0  0  0  0
  3 16  1  0  0  0  0
  4 15  1  0  0  0  0
  5  7  1  0  0  0  0
  5  8  2  0  0  0  0
  5 13  1  0  0  0  0
  6  9  1  0  0  0  0
  6 16  2  0  0  0  0
  7 10  1  0  0  0  0
  7 17  2  0  0  0  0
  8 11  1  0  0  0  0
  8 18  1  0  0  0  0
 12 18  1  0  0  0  0
 13 14  1  0  0  0  0
 14 15  1  0  0  0  0
 15 20  1  0  0  0  0
 17 18  1  0  0  0  0
 19 20  1  0  0  0  0
  1 21  1  0  0  0  0
  2 22  1  0  0  0  0
  3 23  1  0  0  0  0
  9 24  1  0  0  0  0
  9 25  1  0  0  0  0
  9 26  1  0  0  0  0
 10 27  1  0  0  0  0
 10 28  1  0  0  0  0
 10 29  1  0  0  0  0
 11 30  1  0  0  0  0
 11 31  1  0  0  0  0
 11 32  1  0  0  0  0
 12 33  1  0  0  0  0
 12 34  1  0  0  0  0
 12 35  1  0  0  0  0
 13 36  1  0  0  0  0
 13 37  1  0  0  0  0
 14 38  1  0  0  0  0
 14 39  1  0  0  0  0
 15 40  1  0  0  0  0
 19 41  1  0  0  0  0
 19 42  1  0  0  0  0
 20 43  1  0  0  0  0
M  END
> <FRED Chemgauss4 score>
-9.198855

$$$$
C49185038	P73462564
  -OEChem-05122015313D

 33 35  0     1  0  0  0  0  0999 V2000
  124.9055  104.3789  107.5304 C   0  0  0  0  0  0  0  0  0  0  0  0
  123.6604  104.6846  106.9710 C   0  0  0  0  0  0  0  0  0  0  0  0
  125.5851  105.2984  108.3327 C   0  0  0  0  0  0  0  0  0  0  0  0
  118.6479  104.2611  104.7220 C   0  0  0  0  0  0  0  0  0  0  0  0
  117.3155  103.9900  104.5015 C   0  0  0  0  0  0  0  0  0  0  0  0
  117.8205  104.2556  106.8941 C   0  0  0  0  0  0  0  0  0  0  0  0
  118.9407  104.4148  106.1080 C   0  0  0  0  0  0  0  0  0  0  0  0
  123.7907  106.8840  108.0500 C   0  0  0  0  0  0  0  0  0  0  0  0
  123.1376  105.9467  107.2546 C   0  0  0  0  0  0  0  0  0  0  0  0
  125.0407  106.5600  108.6040 C   0  0  0  0  0  0  0  0  0  0  0  0
  121.9641  107.8122  107.4488 C   0  0  0  0  0  0  0  0  0  0  0  0
  121.4645  105.7290  104.6257 C   0  0  0  0  0  0  0  0  0  0  0  0
  120.3179  104.7178  106.6495 C   0  0  0  0  0  0  0  0  0  0  0  0
  120.9447  105.9924  106.0433 C   0  0  1  0  0  0  0  0  0  0  0  0
  123.0466  108.0363  108.1594 N   0  0  0  0  0  0  0  0  0  0  0  0
  121.9721  106.5672  106.8840 N   0  0  0  0  0  0  0  0  0  0  0  0
  120.9100  108.6352  107.2358 N   0  0  0  0  0  0  0  0  0  0  0  0
  125.7040  107.4305  109.3753 F   0  0  0  0  0  0  0  0  0  0  0  0
  116.4235  103.9220  105.9617 S   0  0  0  0  0  0  0  0  0  0  0  0
  125.3526  103.4068  107.3365 H   0  0  0  0  0  0  0  0  0  0  0  0
  123.1333  103.9699  106.3494 H   0  0  0  0  0  0  0  0  0  0  0  0
  126.5510  105.0322  108.7540 H   0  0  0  0  0  0  0  0  0  0  0  0
  119.3747  104.3447  103.9239 H   0  0  0  0  0  0  0  0  0  0  0  0
  116.8229  103.8294  103.5530 H   0  0  0  0  0  0  0  0  0  0  0  0
  117.7512  104.3196  107.9711 H   0  0  0  0  0  0  0  0  0  0  0  0
  122.2581  104.9737  104.6338 H   0  0  0  0  0  0  0  0  0  0  0  0
  120.6716  105.3740  103.9591 H   0  0  0  0  0  0  0  0  0  0  0  0
  121.8775  106.6460  104.1921 H   0  0  0  0  0  0  0  0  0  0  0  0
  120.2776  104.7870  107.7440 H   0  0  0  0  0  0  0  0  0  0  0  0
  120.9623  103.8545  106.4359 H   0  0  0  0  0  0  0  0  0  0  0  0
  120.1587  106.7540  105.9506 H   0  0  0  0  0  0  0  0  0  0  0  0
  120.8425  109.5595  107.6818 H   0  0  0  0  0  0  0  0  0  0  0  0
  120.0872  108.3364  106.6955 H   0  0  0  0  0  0  0  0  0  0  0  0
  1  2  2  0  0  0  0
  1  3  1  0  0  0  0
  2  9  1  0  0  0  0
  3 10  2  0  0  0  0
  4  5  2  0  0  0  0
  4  7  1  0  0  0  0
  5 19  1  0  0  0  0
  6  7  2  0  0  0  0
  6 19  1  0  0  0  0
  7 13  1  0  0  0  0
  8  9  2  0  0  0  0
  8 10  1  0  0  0  0
  8 15  1  0  0  0  0
  9 16  1  0  0  0  0
 10 18  1  0  0  0  0
 11 15  2  0  0  0  0
 11 16  1  0  0  0  0
 11 17  1  0  0  0  0
 12 14  1  0  0  0  0
 13 14  1  0  0  0  0
 14 16  1  0  0  0  0
  1 20  1  0  0  0  0
  2 21  1  0  0  0  0
  3 22  1  0  0  0  0
  4 23  1  0  0  0  0
  5 24  1  0  0  0  0
  6 25  1  0  0  0  0
 12 26  1  0  0  0  0
 12 27  1  0  0  0  0
 12 28  1  0  0  0  0
 13 29  1  0  0  0  0
 13 30  1  0  0  0  0
 14 31  1  0  0  0  0
 17 32  1  0  0  0  0
 17 33  1  0  0  0  0
M  END
> <FRED Chemgauss4 score>
-9.190351

$$$$
C42440727	P64190320
  -OEChem-05122015313D

 32 32  0     0  0  0  0  0  0999 V2000
  121.3825  106.8902  106.8621 C   0  0  0  0  0  0  0  0  0  0  0  0
  121.0122  106.4807  105.4926 C   0  0  0  0  0  0  0  0  0  0  0  0
  126.9221  107.9648  107.0869 C   0  0  0  0  0  0  0  0  0  0  0  0
  124.8088  105.8991  106.5027 C   0  0  0  0  0  0  0  0  0  0  0  0
  124.5351  107.0855  108.7010 C   0  0  0  0  0  0  0  0  0  0  0  0
  123.3572  105.4398  106.5997 C   0  0  0  0  0  0  0  0  0  0  0  0
  123.0792  106.6206  108.7525 C   0  0  0  0  0  0  0  0  0  0  0  0
  125.4113  106.1154  107.8974 C   0  0  0  0  0  0  0  0  0  0  0  0
  126.8443  106.6323  107.7967 C   0  0  0  0  0  0  0  0  0  0  0  0
  122.5550  106.3668  107.4023 N   0  0  0  0  0  0  0  0  0  0  0  0
  126.7877  109.0234  107.9594 N   0  0  0  0  0  0  0  0  0  0  0  0
  119.7967  104.8549  104.2694 N   0  0  0  0  0  0  0  0  0  0  0  0
  120.2215  105.3554  105.4841 N   0  0  0  0  0  0  0  0  0  0  0  0
  120.6318  107.6755  107.4436 O   0  0  0  0  0  0  0  0  0  0  0  0
  121.4051  107.1229  104.5284 O   0  0  0  0  0  0  0  0  0  0  0  0
  127.0849  108.0943  105.8771 O   0  0  0  0  0  0  0  0  0  0  0  0
  125.3925  105.1536  105.9505 H   0  0  0  0  0  0  0  0  0  0  0  0
  124.8546  106.8347  105.9303 H   0  0  0  0  0  0  0  0  0  0  0  0
  124.5750  108.0825  108.2429 H   0  0  0  0  0  0  0  0  0  0  0  0
  124.9215  107.1854  109.7220 H   0  0  0  0  0  0  0  0  0  0  0  0
  122.9316  105.3409  105.5956 H   0  0  0  0  0  0  0  0  0  0  0  0
  123.2968  104.4557  107.0795 H   0  0  0  0  0  0  0  0  0  0  0  0
  122.9992  105.6802  109.3107 H   0  0  0  0  0  0  0  0  0  0  0  0
  122.4776  107.3647  109.2803 H   0  0  0  0  0  0  0  0  0  0  0  0
  125.4342  105.1504  108.4212 H   0  0  0  0  0  0  0  0  0  0  0  0
  127.4510  105.9048  107.2516 H   0  0  0  0  0  0  0  0  0  0  0  0
  127.2577  106.7427  108.8024 H   0  0  0  0  0  0  0  0  0  0  0  0
  126.6551  108.8421  108.9493 H   0  0  0  0  0  0  0  0  0  0  0  0
  126.8194  109.9813  107.6264 H   0  0  0  0  0  0  0  0  0  0  0  0
  119.7496  103.8415  104.3674 H   0  0  0  0  0  0  0  0  0  0  0  0
  120.5410  105.0386  103.5976 H   0  0  0  0  0  0  0  0  0  0  0  0
  119.9319  104.8687  106.3270 H   0  0  0  0  0  0  0  0  0  0  0  0
  1  2  1  0  0  0  0
  1 10  1  0  0  0  0
  1 14  2  0  0  0  0
  2 13  1  0  0  0  0
  2 15  2  0  0  0  0
  3  9  1  0  0  0  0
  3 11  1  0  0  0  0
  3 16  2  0  0  0  0
  4  6  1  0  0  0  0
  4  8  1  0  0  0  0
  5  7  1  0  0  0  0
  5  8  1  0  0  0  0
  6 10  1  0  0  0  0
  7 10  1  0  0  0  0
  8  9  1  0  0  0  0
 12 13  1  0  0  0  0
  4 17  1  0  0  0  0
  4 18  1  0  0  0  0
  5 19  1  0  0  0  0
  5 20  1  0  0  0  0
  6 21  1  0  0  0  0
  6 22  1  0  0  0  0
  7 23  1  0  0  0  0
  7 24  1  0  0  0  0
  8 25  1  0  0  0  0
  9 26  1  0  0  0  0
  9 27  1  0  0  0  0
 11 28  1  0  0  0  0
 11 29  1  0  0  0  0
 12 30  1  0  0  0  0
 12 31  1  0  0  0  0
 13 32  1  0  0  0  0
M  END
> <FRED Chemgauss4 score>
-9.186438

$$$$
C48841183	P72986091
  -OEChem-05122015313D

 43 43  0     0  0  0  0  0  0999 V2000
  125.8698  108.3225  107.5587 C   0  0  0  0  0  0  0  0  0  0  0  0
  121.1208  104.1141  106.5728 C   0  0  0  0  0  0  0  0  0  0  0  0
  122.3350  106.3676  106.5306 C   0  0  0  0  0  0  0  0  0  0  0  0
  122.7110  104.7475  108.3573 C   0  0  0  0  0  0  0  0  0  0  0  0
  123.8280  106.7036  106.5760 C   0  0  0  0  0  0  0  0  0  0  0  0
  124.1957  105.1011  108.3334 C   0  0  0  0  0  0  0  0  0  0  0  0
  115.7125  107.4168  104.1349 C   0  0  0  0  0  0  0  0  0  0  0  0
  125.8012  106.8557  107.9494 C   0  0  0  0  0  0  0  0  0  0  0  0
  118.0265  103.9606  105.4405 C   0  0  0  0  0  0  0  0  0  0  0  0
  119.4021  103.7140  104.8266 C   0  0  0  0  0  0  0  0  0  0  0  0
  117.0861  107.1440  103.5621 C   0  0  0  0  0  0  0  0  0  0  0  0
  117.5776  105.4087  105.2901 C   0  0  0  0  0  0  0  0  0  0  0  0
  122.0572  105.0335  107.0791 N   0  0  0  0  0  0  0  0  0  0  0  0
  124.3836  106.4976  107.9194 N   0  0  0  0  0  0  0  0  0  0  0  0
  120.4063  104.5401  105.4587 N   0  0  0  0  0  0  0  0  0  0  0  0
  117.4644  105.7330  103.8469 N   0  3  0  0  0  0  0  0  0  0  0  0
  125.2366  109.1104  108.3168 O   0  5  0  0  0  0  0  0  0  0  0  0
  126.5613  108.5731  106.5313 O   0  0  0  0  0  0  0  0  0  0  0  0
  120.9317  103.0033  107.0795 O   0  0  0  0  0  0  0  0  0  0  0  0
  121.7586  107.0855  107.1262 H   0  0  0  0  0  0  0  0  0  0  0  0
  122.0046  106.4504  105.4933 H   0  0  0  0  0  0  0  0  0  0  0  0
  122.5886  103.6940  108.6291 H   0  0  0  0  0  0  0  0  0  0  0  0
  122.1894  105.3388  109.1204 H   0  0  0  0  0  0  0  0  0  0  0  0
  124.3607  106.0842  105.8416 H   0  0  0  0  0  0  0  0  0  0  0  0
  123.9542  107.7501  106.2733 H   0  0  0  0  0  0  0  0  0  0  0  0
  124.6034  104.9495  109.3400 H   0  0  0  0  0  0  0  0  0  0  0  0
  124.7270  104.4197  107.6556 H   0  0  0  0  0  0  0  0  0  0  0  0
  114.9695  106.7685  103.6604 H   0  0  0  0  0  0  0  0  0  0  0  0
  115.6883  107.2268  105.2130 H   0  0  0  0  0  0  0  0  0  0  0  0
  115.4122  108.4562  103.9655 H   0  0  0  0  0  0  0  0  0  0  0  0
  126.2128  106.6976  108.9510 H   0  0  0  0  0  0  0  0  0  0  0  0
  126.3657  106.2375  107.2444 H   0  0  0  0  0  0  0  0  0  0  0  0
  118.0365  103.6819  106.5019 H   0  0  0  0  0  0  0  0  0  0  0  0
  117.3015  103.3025  104.9453 H   0  0  0  0  0  0  0  0  0  0  0  0
  119.6792  102.6631  104.9596 H   0  0  0  0  0  0  0  0  0  0  0  0
  119.3841  103.9165  103.7505 H   0  0  0  0  0  0  0  0  0  0  0  0
  117.8488  107.7798  104.0199 H   0  0  0  0  0  0  0  0  0  0  0  0
  117.1032  107.2682  102.4758 H   0  0  0  0  0  0  0  0  0  0  0  0
  116.5920  105.5868  105.7296 H   0  0  0  0  0  0  0  0  0  0  0  0
  118.3030  106.1083  105.7158 H   0  0  0  0  0  0  0  0  0  0  0  0
  120.5952  105.4583  105.0780 H   0  0  0  0  0  0  0  0  0  0  0  0
  116.7726  105.1064  103.4105 H   0  0  0  0  0  0  0  0  0  0  0  0
  118.3594  105.5259  103.3801 H   0  0  0  0  0  0  0  0  0  0  0  0
  1  8  1  0  0  0  0
  1 17  1  0  0  0  0
  1 18  2  0  0  0  0
  2 13  1  0  0  0  0
  2 15  1  0  0  0  0
  2 19  2  0  0  0  0
  3  5  1  0  0  0  0
  3 13  1  0  0  0  0
  4  6  1  0  0  0  0
  4 13  1  0  0  0  0
  5 14  1  0  0  0  0
  6 14  1  0  0  0  0
  7 11  1  0  0  0  0
  8 14  1  0  0  0  0
  9 10  1  0  0  0  0
  9 12  1  0  0  0  0
 10 15  1  0  0  0  0
 11 16  1  0  0  0  0
 12 16  1  0  0  0  0
  3 20  1  0  0  0  0
  3 21  1  0  0  0  0
  4 22  1  0  0  0  0
  4 23  1  0  0  0  0
  5 24  1  0  0  0  0
  5 25  1  0  0  0  0
  6 26  1  0  0  0  0
  6 27  1  0  0  0  0
  7 28  1  0  0  0  0
  7 29  1  0  0  0  0
  7 30  1  0  0  0  0
  8 31  1  0  0  0  0
  8 32  1  0  0  0  0
  9 33  1  0  0  0  0
  9 34  1  0  0  0  0
 10 35  1  0  0  0  0
 10 36  1  0  0  0  0
 11 37  1  0  0  0  0
 11 38  1  0  0  0  0
 12 39  1  0  0  0  0
 12 40  1  0  0  0  0
 15 41  1  0  0  0  0
 16 42  1  0  0  0  0
 16 43  1  0  0  0  0
M  CHG  2  16   1  17  -1
M  END
> <FRED Chemgauss4 score>
-9.186071

$$$$
C41058784	P62326215
  -OEChem-05122015313D

 26 27  0     1  0  0  0  0  0999 V2000
  125.2975  105.3895  108.3870 C   0  0  0  0  0  0  0  0  0  0  0  0
  124.9317  107.4358  108.5762 C   0  0  0  0  0  0  0  0  0  0  0  0
  126.2843  103.2311  107.2780 C   0  0  0  0  0  0  0  0  0  0  0  0
  125.0781  103.6100  106.4771 C   0  0  0  0  0  0  0  0  0  0  0  0
  125.1384  103.9533  107.9471 C   0  0  0  0  0  0  0  0  0  0  0  0
  122.9229  108.5481  110.5535 C   0  0  0  0  0  0  0  0  0  0  0  0
  124.0214  109.3821  109.9055 C   0  0  0  0  0  0  0  0  0  0  0  0
  124.4156  108.8592  108.5136 C   0  0  1  0  0  0  0  0  0  0  0  0
  124.4431  106.3735  107.9794 N   0  0  0  0  0  0  0  0  0  0  0  0
  126.2841  105.7761  109.1985 N   0  0  0  0  0  0  0  0  0  0  0  0
  126.0272  107.0888  109.3036 N   0  0  0  0  0  0  0  0  0  0  0  0
  125.3835  109.7224  107.8743 N   0  0  0  0  0  0  0  0  0  0  0  0
  126.4262  102.1821  107.5102 H   0  0  0  0  0  0  0  0  0  0  0  0
  127.2036  103.7740  107.0925 H   0  0  0  0  0  0  0  0  0  0  0  0
  125.1857  104.4087  105.7526 H   0  0  0  0  0  0  0  0  0  0  0  0
  124.4062  102.8174  106.1692 H   0  0  0  0  0  0  0  0  0  0  0  0
  124.5050  103.3357  108.6075 H   0  0  0  0  0  0  0  0  0  0  0  0
  123.2220  107.4979  110.6311 H   0  0  0  0  0  0  0  0  0  0  0  0
  122.7172  108.9167  111.5635 H   0  0  0  0  0  0  0  0  0  0  0  0
  121.9915  108.6005  109.9813 H   0  0  0  0  0  0  0  0  0  0  0  0
  123.6818  110.4238  109.8474 H   0  0  0  0  0  0  0  0  0  0  0  0
  124.8978  109.3707  110.5661 H   0  0  0  0  0  0  0  0  0  0  0  0
  123.5293  108.8897  107.8677 H   0  0  0  0  0  0  0  0  0  0  0  0
  126.6301  107.6671  109.8769 H   0  0  0  0  0  0  0  0  0  0  0  0
  125.3326  110.7113  108.0391 H   0  0  0  0  0  0  0  0  0  0  0  0
  125.9471  109.3502  107.1317 H   0  0  0  0  0  0  0  0  0  0  0  0
  1  5  1  0  0  0  0
  1  9  1  0  0  0  0
  1 10  2  0  0  0  0
  2  8  1  0  0  0  0
  2  9  2  0  0  0  0
  2 11  1  0  0  0  0
  3  4  1  0  0  0  0
  3  5  1  0  0  0  0
  4  5  1  0  0  0  0
  6  7  1  0  0  0  0
  7  8  1  0  0  0  0
  8 12  1  0  0  0  0
 10 11  1  0  0  0  0
  3 13  1  0  0  0  0
  3 14  1  0  0  0  0
  4 15  1  0  0  0  0
  4 16  1  0  0  0  0
  5 17  1  0  0  0  0
  6 18  1  0  0  0  0
  6 19  1  0  0  0  0
  6 20  1  0  0  0  0
  7 21  1  0  0  0  0
  7 22  1  0  0  0  0
  8 23  1  0  0  0  0
 11 24  1  0  0  0  0
 12 25  1  0  0  0  0
 12 26  1  0  0  0  0
M  END
> <FRED Chemgauss4 score>
-9.184276

$$$$
C89754839	P140318181
  -OEChem-05122015313D

 39 40  0     1  0  0  0  0  0999 V2000
  118.3388  104.0415  104.1744 C   0  0  0  0  0  0  0  0  0  0  0  0
  120.6293  104.9710  104.6038 C   0  0  0  0  0  0  0  0  0  0  0  0
  124.0829  108.7709  109.2586 C   0  0  0  0  0  0  0  0  0  0  0  0
  122.4018  105.8353  107.1520 C   0  0  0  0  0  0  0  0  0  0  0  0
  118.0904  103.9797  105.6627 C   0  0  0  0  0  0  0  0  0  0  0  0
  119.3838  103.7935  106.4347 C   0  0  0  0  0  0  0  0  0  0  0  0
  123.2182  108.9890  111.6665 C   0  0  0  0  0  0  0  0  0  0  0  0
  120.3424  104.9227  106.0942 C   0  0  1  0  0  0  0  0  0  0  0  0
  123.2293  109.4825  110.2552 C   0  0  1  0  0  0  0  0  0  0  0  0
  123.9055  110.2806  111.3251 C   0  0  1  0  0  0  0  0  0  0  0  0
  123.3160  111.5792  111.7556 C   0  0  0  0  0  0  0  0  0  0  0  0
  123.6564  105.3745  107.8721 C   0  0  0  0  0  0  0  0  0  0  0  0
  124.5545  106.5348  108.2789 C   0  0  0  0  0  0  0  0  0  0  0  0
  119.5799  104.5416  103.7922 N   0  0  0  0  0  0  0  0  0  0  0  0
  123.8432  107.4109  109.1774 N   0  0  0  0  0  0  0  0  0  0  0  0
  121.5932  104.7645  106.7877 N   0  0  0  0  0  0  0  0  0  0  0  0
  117.4708  103.7159  103.3649 O   0  0  0  0  0  0  0  0  0  0  0  0
  121.6758  105.4247  104.1411 O   0  0  0  0  0  0  0  0  0  0  0  0
  124.9029  109.4040  108.6039 O   0  0  0  0  0  0  0  0  0  0  0  0
  122.1497  107.0164  106.9300 O   0  0  0  0  0  0  0  0  0  0  0  0
  117.5865  104.9055  105.9624 H   0  0  0  0  0  0  0  0  0  0  0  0
  117.4160  103.1413  105.8678 H   0  0  0  0  0  0  0  0  0  0  0  0
  119.1782  103.7776  107.5114 H   0  0  0  0  0  0  0  0  0  0  0  0
  119.8310  102.8231  106.1801 H   0  0  0  0  0  0  0  0  0  0  0  0
  122.2717  109.0284  112.1924 H   0  0  0  0  0  0  0  0  0  0  0  0
  123.8415  108.1461  111.9405 H   0  0  0  0  0  0  0  0  0  0  0  0
  119.9231  105.8902  106.3932 H   0  0  0  0  0  0  0  0  0  0  0  0
  122.3068  109.8440  109.8386 H   0  0  0  0  0  0  0  0  0  0  0  0
  124.9883  110.2967  111.3688 H   0  0  0  0  0  0  0  0  0  0  0  0
  122.2150  111.5608  111.7106 H   0  0  0  0  0  0  0  0  0  0  0  0
  123.6544  112.4111  111.1170 H   0  0  0  0  0  0  0  0  0  0  0  0
  123.5956  111.8290  112.7920 H   0  0  0  0  0  0  0  0  0  0  0  0
  123.3554  104.8033  108.7591 H   0  0  0  0  0  0  0  0  0  0  0  0
  124.2027  104.6902  107.2110 H   0  0  0  0  0  0  0  0  0  0  0  0
  124.8735  107.1017  107.3976 H   0  0  0  0  0  0  0  0  0  0  0  0
  125.4593  106.1659  108.7738 H   0  0  0  0  0  0  0  0  0  0  0  0
  119.7452  104.5964  102.7908 H   0  0  0  0  0  0  0  0  0  0  0  0
  123.1303  107.0089  109.7810 H   0  0  0  0  0  0  0  0  0  0  0  0
  121.9011  103.8225  107.0231 H   0  0  0  0  0  0  0  0  0  0  0  0
  1  5  1  0  0  0  0
  1 14  1  0  0  0  0
  1 17  2  0  0  0  0
  2  8  1  0  0  0  0
  2 14  1  0  0  0  0
  2 18  2  0  0  0  0
  3  9  1  0  0  0  0
  3 15  1  0  0  0  0
  3 19  2  0  0  0  0
  4 12  1  0  0  0  0
  4 16  1  0  0  0  0
  4 20  2  0  0  0  0
  5  6  1  0  0  0  0
  6  8  1  0  0  0  0
  7  9  1  0  0  0  0
  7 10  1  0  0  0  0
  8 16  1  0  0  0  0
  9 10  1  0  0  0  0
 10 11  1  0  0  0  0
 12 13  1  0  0  0  0
 13 15  1  0  0  0  0
  5 21  1  0  0  0  0
  5 22  1  0  0  0  0
  6 23  1  0  0  0  0
  6 24  1  0  0  0  0
  7 25  1  0  0  0  0
  7 26  1  0  0  0  0
  8 27  1  0  0  0  0
  9 28  1  0  0  0  0
 10 29  1  0  0  0  0
 11 30  1  0  0  0  0
 11 31  1  0  0  0  0
 11 32  1  0  0  0  0
 12 33  1  0  0  0  0
 12 34  1  0  0  0  0
 13 35  1  0  0  0  0
 13 36  1  0  0  0  0
 14 37  1  0  0  0  0
 15 38  1  0  0  0  0
 16 39  1  0  0  0  0
M  END
> <FRED Chemgauss4 score>
-9.167645

$$$$
C62789402	P96350782
  -OEChem-05122015313D

 40 41  0     0  0  0  0  0  0999 V2000
  125.4502  106.1719  109.0459 C   0  0  0  0  0  0  0  0  0  0  0  0
  125.9277  105.0119  108.4361 C   0  0  0  0  0  0  0  0  0  0  0  0
  123.8356  104.7732  107.2516 C   0  0  0  0  0  0  0  0  0  0  0  0
  124.1653  106.6326  108.7585 C   0  0  0  0  0  0  0  0  0  0  0  0
  123.3580  105.9333  107.8613 C   0  0  0  0  0  0  0  0  0  0  0  0
  125.1205  104.3125  107.5390 C   0  0  0  0  0  0  0  0  0  0  0  0
  123.6958  107.8470  109.4136 C   0  0  0  0  0  0  0  0  0  0  0  0
  119.7774  105.8561  106.8584 C   0  0  0  0  0  0  0  0  0  0  0  0
  120.4845  108.2484  107.3586 C   0  0  0  0  0  0  0  0  0  0  0  0
  120.9054  105.5292  107.8328 C   0  0  0  0  0  0  0  0  0  0  0  0
  121.8525  107.6943  106.9545 C   0  0  0  0  0  0  0  0  0  0  0  0
  119.3410  107.3180  106.9535 C   0  0  0  0  0  0  0  0  0  0  0  0
  117.0080  107.7645  104.1427 C   0  0  0  0  0  0  0  0  0  0  0  0
  117.4922  107.2955  105.4982 C   0  0  0  0  0  0  0  0  0  0  0  0
  124.3976  108.9420  109.1890 N   0  0  0  0  0  0  0  0  0  0  0  0
  122.0719  106.3765  107.5613 N   0  0  0  0  0  0  0  0  0  0  0  0
  122.5684  107.8673  110.2378 N   0  0  0  0  0  0  0  0  0  0  0  0
  123.8668  110.0480  109.8606 O   0  0  0  0  0  0  0  0  0  0  0  0
  118.8306  107.7327  105.6882 O   0  0  0  0  0  0  0  0  0  0  0  0
  125.7103  102.8810  106.7874 Cl  0  0  0  0  0  0  0  0  0  0  0  0
  126.0885  106.7074  109.7444 H   0  0  0  0  0  0  0  0  0  0  0  0
  126.9309  104.6645  108.6690 H   0  0  0  0  0  0  0  0  0  0  0  0
  123.2045  104.2284  106.5526 H   0  0  0  0  0  0  0  0  0  0  0  0
  120.0993  105.6378  105.8285 H   0  0  0  0  0  0  0  0  0  0  0  0
  118.9168  105.1973  107.0413 H   0  0  0  0  0  0  0  0  0  0  0  0
  120.4572  108.4250  108.4422 H   0  0  0  0  0  0  0  0  0  0  0  0
  120.3324  109.2349  106.8964 H   0  0  0  0  0  0  0  0  0  0  0  0
  120.5635  105.6832  108.8634 H   0  0  0  0  0  0  0  0  0  0  0  0
  121.1693  104.4709  107.7228 H   0  0  0  0  0  0  0  0  0  0  0  0
  121.8925  107.6225  105.8611 H   0  0  0  0  0  0  0  0  0  0  0  0
  122.6411  108.3876  107.2721 H   0  0  0  0  0  0  0  0  0  0  0  0
  118.5081  107.4099  107.6798 H   0  0  0  0  0  0  0  0  0  0  0  0
  117.0313  108.8558  104.0762 H   0  0  0  0  0  0  0  0  0  0  0  0
  117.6316  107.3482  103.3448 H   0  0  0  0  0  0  0  0  0  0  0  0
  115.9845  107.4212  103.9586 H   0  0  0  0  0  0  0  0  0  0  0  0
  117.4663  106.2033  105.5581 H   0  0  0  0  0  0  0  0  0  0  0  0
  116.8686  107.7129  106.2943 H   0  0  0  0  0  0  0  0  0  0  0  0
  122.0083  107.0389  110.4035 H   0  0  0  0  0  0  0  0  0  0  0  0
  122.2462  108.7277  110.6680 H   0  0  0  0  0  0  0  0  0  0  0  0
  124.4837  110.7510  109.5958 H   0  0  0  0  0  0  0  0  0  0  0  0
  1  2  2  0  0  0  0
  1  4  1  0  0  0  0
  2  6  1  0  0  0  0
  3  5  1  0  0  0  0
  3  6  2  0  0  0  0
  4  5  2  0  0  0  0
  4  7  1  0  0  0  0
  5 16  1  0  0  0  0
  6 20  1  0  0  0  0
  7 15  2  0  0  0  0
  7 17  1  0  0  0  0
  8 10  1  0  0  0  0
  8 12  1  0  0  0  0
  9 11  1  0  0  0  0
  9 12  1  0  0  0  0
 10 16  1  0  0  0  0
 11 16  1  0  0  0  0
 12 19  1  0  0  0  0
 13 14  1  0  0  0  0
 14 19  1  0  0  0  0
 15 18  1  0  0  0  0
  1 21  1  0  0  0  0
  2 22  1  0  0  0  0
  3 23  1  0  0  0  0
  8 24  1  0  0  0  0
  8 25  1  0  0  0  0
  9 26  1  0  0  0  0
  9 27  1  0  0  0  0
 10 28  1  0  0  0  0
 10 29  1  0  0  0  0
 11 30  1  0  0  0  0
 11 31  1  0  0  0  0
 12 32  1  0  0  0  0
 13 33  1  0  0  0  0
 13 34  1  0  0  0  0
 13 35  1  0  0  0  0
 14 36  1  0  0  0  0
 14 37  1  0  0  0  0
 17 38  1  0  0  0  0
 17 39  1  0  0  0  0
 18 40  1  0  0  0  0
M  END
> <FRED Chemgauss4 score>
-9.164774

$$$$
C87600448	P137027764
  -OEChem-05122015313D

 29 30  0     1  0  0  0  0  0999 V2000
  118.4358  106.1872  106.4947 C   0  0  0  0  0  0  0  0  0  0  0  0
  120.5433  105.1962  103.9705 C   0  0  0  0  0  0  0  0  0  0  0  0
  117.1549  106.7698  106.5348 C   0  0  0  0  0  0  0  0  0  0  0  0
  121.0132  105.0720  105.2513 C   0  0  0  0  0  0  0  0  0  0  0  0
  118.1966  104.8394  106.3811 C   0  0  0  0  0  0  0  0  0  0  0  0
  116.8228  108.1995  106.6540 C   0  0  0  0  0  0  0  0  0  0  0  0
  116.0936  103.4700  106.2524 C   0  0  0  0  0  0  0  0  0  0  0  0
  119.1456  103.6671  106.2902 C   0  0  0  0  0  0  0  0  0  0  0  0
  120.6267  104.0875  106.3352 C   0  0  2  0  0  0  0  0  0  0  0  0
  122.0308  106.6975  104.3027 N   0  5  0  0  0  0  0  0  0  0  0  0
  121.1730  106.2141  103.3587 N   0  0  0  0  0  0  0  0  0  0  0  0
  121.9502  106.0091  105.4778 N   0  0  0  0  0  0  0  0  0  0  0  0
  116.1747  105.8662  106.4530 N   0  0  0  0  0  0  0  0  0  0  0  0
  116.8398  104.7022  106.3605 N   0  0  0  0  0  0  0  0  0  0  0  0
  120.8862  104.6231  107.7115 N   0  3  0  0  0  0  0  0  0  0  0  0
  119.3986  106.6754  106.5424 H   0  0  0  0  0  0  0  0  0  0  0  0
  119.7879  104.5973  103.4799 H   0  0  0  0  0  0  0  0  0  0  0  0
  116.7401  108.6758  105.6619 H   0  0  0  0  0  0  0  0  0  0  0  0
  115.8663  108.3631  107.1818 H   0  0  0  0  0  0  0  0  0  0  0  0
  117.5836  108.7580  107.2283 H   0  0  0  0  0  0  0  0  0  0  0  0
  115.9123  103.0958  107.2634 H   0  0  0  0  0  0  0  0  0  0  0  0
  115.1466  103.6616  105.7402 H   0  0  0  0  0  0  0  0  0  0  0  0
  116.6737  102.7458  105.6737 H   0  0  0  0  0  0  0  0  0  0  0  0
  118.9309  103.0879  105.3824 H   0  0  0  0  0  0  0  0  0  0  0  0
  118.9225  102.9905  107.1266 H   0  0  0  0  0  0  0  0  0  0  0  0
  121.2645  103.1978  106.2656 H   0  0  0  0  0  0  0  0  0  0  0  0
  120.4324  105.5293  107.8268 H   0  0  0  0  0  0  0  0  0  0  0  0
  121.8891  104.7361  107.8602 H   0  0  0  0  0  0  0  0  0  0  0  0
  120.5198  103.9798  108.4133 H   0  0  0  0  0  0  0  0  0  0  0  0
  1  3  1  0  0  0  0
  1  5  2  0  0  0  0
  2  4  1  0  0  0  0
  2 11  2  0  0  0  0
  3  6  1  0  0  0  0
  3 13  2  0  0  0  0
  4  9  1  0  0  0  0
  4 12  2  0  0  0  0
  5  8  1  0  0  0  0
  5 14  1  0  0  0  0
  7 14  1  0  0  0  0
  8  9  1  0  0  0  0
  9 15  1  0  0  0  0
 10 11  1  0  0  0  0
 10 12  1  0  0  0  0
 13 14  1  0  0  0  0
  1 16  1  0  0  0  0
  2 17  1  0  0  0  0
  6 18  1  0  0  0  0
  6 19  1  0  0  0  0
  6 20  1  0  0  0  0
  7 21  1  0  0  0  0
  7 22  1  0  0  0  0
  7 23  1  0  0  0  0
  8 24  1  0  0  0  0
  8 25  1  0  0  0  0
  9 26  1  0  0  0  0
 15 27  1  0  0  0  0
 15 28  1  0  0  0  0
 15 29  1  0  0  0  0
M  CHG  2  10  -1  15   1
M  END
> <FRED Chemgauss4 score>
-9.162041

$$$$
C97617862	P154764065
  -OEChem-05122015313D

 46 47  0     1  0  0  0  0  0999 V2000
  119.2893  103.9422  105.9097 C   0  0  0  0  0  0  0  0  0  0  0  0
  120.7527  103.8152  105.4905 C   0  0  0  0  0  0  0  0  0  0  0  0
  125.4760  105.4344  107.4055 C   0  0  0  0  0  0  0  0  0  0  0  0
  118.5112  104.8352  104.9503 C   0  0  0  0  0  0  0  0  0  0  0  0
  120.5776  106.0568  104.3420 C   0  0  0  0  0  0  0  0  0  0  0  0
  126.6239  106.2605  106.8360 C   0  0  0  0  0  0  0  0  0  0  0  0
  124.2457  107.4684  106.8446 C   0  0  0  0  0  0  0  0  0  0  0  0
  121.4201  105.1821  105.2792 C   0  0  1  0  0  0  0  0  0  0  0  0
  124.2041  105.9433  106.7143 C   0  0  2  0  0  0  0  0  0  0  0  0
  117.4550  108.0409  105.6040 C   0  0  0  0  0  0  0  0  0  0  0  0
  121.6951  105.8918  106.6084 C   0  0  0  0  0  0  0  0  0  0  0  0
  122.9409  105.3499  107.3181 C   0  0  2  0  0  0  0  0  0  0  0  0
  119.1778  106.1658  104.8523 N   0  0  1  0  0  0  0  0  0  0  0  0
  121.9862  104.7181  109.3566 N   0  0  0  0  0  0  0  0  0  0  0  0
  122.9026  105.6256  108.7353 N   0  0  0  0  0  0  0  0  0  0  0  0
  126.1858  108.3433  105.2840 O   0  0  0  0  0  0  0  0  0  0  0  0
  126.3725  108.7068  107.7880 O   0  0  0  0  0  0  0  0  0  0  0  0
  117.2142  106.8000  103.3172 O   0  0  0  0  0  0  0  0  0  0  0  0
  119.1219  108.4275  103.6292 O   0  0  0  0  0  0  0  0  0  0  0  0
  125.9667  107.9107  106.6485 S   0  0  0  0  0  0  0  0  0  0  0  0
  118.2345  107.4078  104.1417 S   0  0  0  0  0  0  0  0  0  0  0  0
  118.8332  102.9443  105.9346 H   0  0  0  0  0  0  0  0  0  0  0  0
  119.2299  104.3492  106.9255 H   0  0  0  0  0  0  0  0  0  0  0  0
  121.3018  103.2440  106.2593 H   0  0  0  0  0  0  0  0  0  0  0  0
  120.8155  103.2192  104.5647 H   0  0  0  0  0  0  0  0  0  0  0  0
  125.6357  104.3651  107.2342 H   0  0  0  0  0  0  0  0  0  0  0  0
  125.4074  105.5929  108.4891 H   0  0  0  0  0  0  0  0  0  0  0  0
  118.4912  104.3631  103.9616 H   0  0  0  0  0  0  0  0  0  0  0  0
  117.4774  104.9641  105.2925 H   0  0  0  0  0  0  0  0  0  0  0  0
  121.0106  107.0630  104.2451 H   0  0  0  0  0  0  0  0  0  0  0  0
  120.5590  105.6010  103.3422 H   0  0  0  0  0  0  0  0  0  0  0  0
  127.4941  106.2805  107.4952 H   0  0  0  0  0  0  0  0  0  0  0  0
  126.9123  105.8990  105.8447 H   0  0  0  0  0  0  0  0  0  0  0  0
  123.6502  107.9686  106.0774 H   0  0  0  0  0  0  0  0  0  0  0  0
  123.9294  107.8016  107.8380 H   0  0  0  0  0  0  0  0  0  0  0  0
  122.3991  105.0037  104.7866 H   0  0  0  0  0  0  0  0  0  0  0  0
  124.2521  105.6754  105.6500 H   0  0  0  0  0  0  0  0  0  0  0  0
  116.7997  108.8644  105.3158 H   0  0  0  0  0  0  0  0  0  0  0  0
  116.8788  107.2362  106.0630 H   0  0  0  0  0  0  0  0  0  0  0  0
  118.2326  108.3911  106.2845 H   0  0  0  0  0  0  0  0  0  0  0  0
  121.8234  106.9606  106.4042 H   0  0  0  0  0  0  0  0  0  0  0  0
  120.8137  105.7879  107.2513 H   0  0  0  0  0  0  0  0  0  0  0  0
  122.9785  104.2593  107.2135 H   0  0  0  0  0  0  0  0  0  0  0  0
  121.6187  104.0766  108.6543 H   0  0  0  0  0  0  0  0  0  0  0  0
  122.4898  104.1384  110.0267 H   0  0  0  0  0  0  0  0  0  0  0  0
  122.5778  106.5821  108.8999 H   0  0  0  0  0  0  0  0  0  0  0  0
  1  2  1  0  0  0  0
  1  4  1  0  0  0  0
  2  8  1  0  0  0  0
  3  6  1  0  0  0  0
  3  9  1  0  0  0  0
  4 13  1  0  0  0  0
  5  8  1  0  0  0  0
  5 13  1  0  0  0  0
  6 20  1  0  0  0  0
  7  9  1  0  0  0  0
  7 20  1  0  0  0  0
  8 11  1  0  0  0  0
  9 12  1  0  0  0  0
 10 21  1  0  0  0  0
 11 12  1  0  0  0  0
 12 15  1  0  0  0  0
 13 21  1  0  0  0  0
 14 15  1  0  0  0  0
 16 20  2  0  0  0  0
 17 20  2  0  0  0  0
 18 21  2  0  0  0  0
 19 21  2  0  0  0  0
  1 22  1  0  0  0  0
  1 23  1  0  0  0  0
  2 24  1  0  0  0  0
  2 25  1  0  0  0  0
  3 26  1  0  0  0  0
  3 27  1  0  0  0  0
  4 28  1  0  0  0  0
  4 29  1  0  0  0  0
  5 30  1  0  0  0  0
  5 31  1  0  0  0  0
  6 32  1  0  0  0  0
  6 33  1  0  0  0  0
  7 34  1  0  0  0  0
  7 35  1  0  0  0  0
  8 36  1  0  0  0  0
  9 37  1  0  0  0  0
 10 38  1  0  0  0  0
 10 39  1  0  0  0  0
 10 40  1  0  0  0  0
 11 41  1  0  0  0  0
 11 42  1  0  0  0  0
 12 43  1  0  0  0  0
 14 44  1  0  0  0  0
 14 45  1  0  0  0  0
 15 46  1  0  0  0  0
M  END
> <FRED Chemgauss4 score>
-9.159777

$$$$
C63063083	P96833322
  -OEChem-05122015313D

 40 41  0     1  0  0  0  0  0999 V2000
  123.0171  106.2957  106.4795 C   0  0  0  0  0  0  0  0  0  0  0  0
  124.0950  106.8258  106.4618 C   0  0  0  0  0  0  0  0  0  0  0  0
  121.6350  104.2840  106.3302 C   0  0  0  0  0  0  0  0  0  0  0  0
  120.3837  103.6681  106.3484 C   0  0  0  0  0  0  0  0  0  0  0  0
  120.5836  106.4303  106.6844 C   0  0  0  0  0  0  0  0  0  0  0  0
  121.7350  105.6652  106.4983 C   0  0  0  0  0  0  0  0  0  0  0  0
  119.3323  105.8143  106.7025 C   0  0  0  0  0  0  0  0  0  0  0  0
  119.2323  104.4331  106.5345 C   0  0  0  0  0  0  0  0  0  0  0  0
  117.1093  105.9646  102.8376 C   0  0  0  0  0  0  0  0  0  0  0  0
  116.0883  106.7100  103.6898 C   0  0  0  0  0  0  0  0  0  0  0  0
  117.8666  104.9426  103.6801 C   0  0  0  0  0  0  0  0  0  0  0  0
  115.2148  105.7313  104.4632 C   0  0  0  0  0  0  0  0  0  0  0  0
  116.8914  104.0495  104.4506 C   0  0  1  0  0  0  0  0  0  0  0  0
  118.1103  106.6485  106.9035 C   0  0  0  0  0  0  0  0  0  0  0  0
  125.4078  107.4692  106.4424 C   0  0  0  0  0  0  0  0  0  0  0  0
  117.6353  103.1012  105.3807 C   0  0  0  0  0  0  0  0  0  0  0  0
  125.5412  108.3370  105.3060 N   0  0  0  0  0  0  0  0  0  0  0  0
  116.0155  104.8505  105.2511 O   0  0  0  0  0  0  0  0  0  0  0  0
  118.0089  103.8112  106.5486 O   0  0  0  0  0  0  0  0  0  0  0  0
  122.5236  103.6749  106.1837 H   0  0  0  0  0  0  0  0  0  0  0  0
  120.3128  102.5916  106.2171 H   0  0  0  0  0  0  0  0  0  0  0  0
  120.6550  107.5083  106.8155 H   0  0  0  0  0  0  0  0  0  0  0  0
  116.5939  105.4505  102.0171 H   0  0  0  0  0  0  0  0  0  0  0  0
  117.8108  106.6733  102.3839 H   0  0  0  0  0  0  0  0  0  0  0  0
  116.6265  107.3492  104.4006 H   0  0  0  0  0  0  0  0  0  0  0  0
  115.4698  107.3598  103.0621 H   0  0  0  0  0  0  0  0  0  0  0  0
  118.5199  104.3392  103.0402 H   0  0  0  0  0  0  0  0  0  0  0  0
  118.5072  105.4852  104.3871 H   0  0  0  0  0  0  0  0  0  0  0  0
  114.5543  106.2790  105.1427 H   0  0  0  0  0  0  0  0  0  0  0  0
  114.5813  105.1432  103.7888 H   0  0  0  0  0  0  0  0  0  0  0  0
  116.2872  103.4554  103.7533 H   0  0  0  0  0  0  0  0  0  0  0  0
  117.7206  106.9908  105.9377 H   0  0  0  0  0  0  0  0  0  0  0  0
  117.3234  106.0822  107.4169 H   0  0  0  0  0  0  0  0  0  0  0  0
  118.3275  107.5271  107.5238 H   0  0  0  0  0  0  0  0  0  0  0  0
  126.2069  106.7243  106.3844 H   0  0  0  0  0  0  0  0  0  0  0  0
  125.5647  108.0754  107.3392 H   0  0  0  0  0  0  0  0  0  0  0  0
  118.5327  102.7215  104.8899 H   0  0  0  0  0  0  0  0  0  0  0  0
  116.9905  102.2664  105.6597 H   0  0  0  0  0  0  0  0  0  0  0  0
  125.1457  108.0563  104.4217 H   0  0  0  0  0  0  0  0  0  0  0  0
  126.1920  109.1066  105.3469 H   0  0  0  0  0  0  0  0  0  0  0  0
  1  2  3  0  0  0  0
  1  6  1  0  0  0  0
  2 15  1  0  0  0  0
  3  4  2  0  0  0  0
  3  6  1  0  0  0  0
  4  8  1  0  0  0  0
  5  6  2  0  0  0  0
  5  7  1  0  0  0  0
  7  8  2  0  0  0  0
  7 14  1  0  0  0  0
  8 19  1  0  0  0  0
  9 10  1  0  0  0  0
  9 11  1  0  0  0  0
 10 12  1  0  0  0  0
 11 13  1  0  0  0  0
 12 18  1  0  0  0  0
 13 16  1  0  0  0  0
 13 18  1  0  0  0  0
 15 17  1  0  0  0  0
 16 19  1  0  0  0  0
  3 20  1  0  0  0  0
  4 21  1  0  0  0  0
  5 22  1  0  0  0  0
  9 23  1  0  0  0  0
  9 24  1  0  0  0  0
 10 25  1  0  0  0  0
 10 26  1  0  0  0  0
 11 27  1  0  0  0  0
 11 28  1  0  0  0  0
 12 29  1  0  0  0  0
 12 30  1  0  0  0  0
 13 31  1  0  0  0  0
 14 32  1  0  0  0  0
 14 33  1  0  0  0  0
 14 34  1  0  0  0  0
 15 35  1  0  0  0  0
 15 36  1  0  0  0  0
 16 37  1  0  0  0  0
 16 38  1  0  0  0  0
 17 39  1  0  0  0  0
 17 40  1  0  0  0  0
M  END
> <FRED Chemgauss4 score>
-9.159642

$$$$
C39343967	P155915743
  -OEChem-05122015313D

 31 32  0     1  0  0  0  0  0999 V2000
  124.0026  107.9851  110.3144 C   0  0  0  0  0  0  0  0  0  0  0  0
  124.4927  107.2541  109.3151 C   0  0  0  0  0  0  0  0  0  0  0  0
  123.9905  109.4572  110.1108 C   0  0  0  0  0  0  0  0  0  0  0  0
  124.9431  109.2227  107.9819 C   0  0  0  0  0  0  0  0  0  0  0  0
  124.4107  106.3848  106.1786 C   0  0  2  0  0  0  0  0  0  0  0  0
  123.9922  105.1036  106.8857 C   0  0  1  0  0  0  0  0  0  0  0  0
  125.3399  104.6202  107.4147 C   0  0  2  0  0  0  0  0  0  0  0  0
  125.4806  106.9426  107.1185 C   0  0  1  0  0  0  0  0  0  0  0  0
  125.2781  103.6900  108.6122 C   0  0  0  0  0  0  0  0  0  0  0  0
  124.4374  110.0011  109.0092 N   0  0  0  0  0  0  0  0  0  0  0  0
  124.9696  107.8158  108.1424 N   0  0  0  0  0  0  0  0  0  0  0  0
  123.4920  110.2487  111.1194 N   0  0  0  0  0  0  0  0  0  0  0  0
  123.3157  107.2877  105.8725 N   0  0  0  0  0  0  0  0  0  0  0  0
  125.3606  109.7526  106.9507 O   0  0  0  0  0  0  0  0  0  0  0  0
  126.0789  105.8074  107.7690 O   0  0  0  0  0  0  0  0  0  0  0  0
  123.0824  105.3636  107.9495 O   0  0  0  0  0  0  0  0  0  0  0  0
  126.5989  103.3226  108.9763 O   0  0  0  0  0  0  0  0  0  0  0  0
  123.6282  107.5547  111.2334 H   0  0  0  0  0  0  0  0  0  0  0  0
  124.5388  106.1727  109.3807 H   0  0  0  0  0  0  0  0  0  0  0  0
  124.9030  106.1007  105.2395 H   0  0  0  0  0  0  0  0  0  0  0  0
  123.5233  104.3747  106.2038 H   0  0  0  0  0  0  0  0  0  0  0  0
  125.8972  104.1349  106.6054 H   0  0  0  0  0  0  0  0  0  0  0  0
  126.2528  107.4975  106.5767 H   0  0  0  0  0  0  0  0  0  0  0  0
  124.7143  102.7875  108.3637 H   0  0  0  0  0  0  0  0  0  0  0  0
  124.8028  104.1913  109.4590 H   0  0  0  0  0  0  0  0  0  0  0  0
  123.1613  109.8031  111.9409 H   0  0  0  0  0  0  0  0  0  0  0  0
  123.4850  111.2304  110.9812 H   0  0  0  0  0  0  0  0  0  0  0  0
  122.4376  106.8961  105.5947 H   0  0  0  0  0  0  0  0  0  0  0  0
  123.5192  108.2599  105.7490 H   0  0  0  0  0  0  0  0  0  0  0  0
  122.8658  104.5049  108.3460 H   0  0  0  0  0  0  0  0  0  0  0  0
  126.5265  102.7295  109.7426 H   0  0  0  0  0  0  0  0  0  0  0  0
  1  2  2  0  0  0  0
  1  3  1  0  0  0  0
  2 11  1  0  0  0  0
  3 10  2  0  0  0  0
  3 12  1  0  0  0  0
  4 10  1  0  0  0  0
  4 11  1  0  0  0  0
  4 14  2  0  0  0  0
  5  6  1  0  0  0  0
  5  8  1  0  0  0  0
  5 13  1  0  0  0  0
  6  7  1  0  0  0  0
  6 16  1  0  0  0  0
  7  9  1  0  0  0  0
  7 15  1  0  0  0  0
  8 11  1  0  0  0  0
  8 15  1  0  0  0  0
  9 17  1  0  0  0  0
  1 18  1  0  0  0  0
  2 19  1  0  0  0  0
  5 20  1  0  0  0  0
  6 21  1  0  0  0  0
  7 22  1  0  0  0  0
  8 23  1  0  0  0  0
  9 24  1  0  0  0  0
  9 25  1  0  0  0  0
 12 26  1  0  0  0  0
 12 27  1  0  0  0  0
 13 28  1  0  0  0  0
 13 29  1  0  0  0  0
 16 30  1  0  0  0  0
 17 31  1  0  0  0  0
M  END
> <FRED Chemgauss4 score>
-9.153158

$$$$
C97941799	P155495002
  -OEChem-05122015313D

 23 22  0     1  0  0  0  0  0999 V2000
  122.7032  105.0311  106.5074 C   0  0  0  0  0  0  0  0  0  0  0  0
  124.2902  109.2624  109.0088 C   0  0  0  0  0  0  0  0  0  0  0  0
  123.6633  105.1666  107.6804 C   0  0  1  0  0  0  0  0  0  0  0  0
  124.2823  108.0259  109.8794 C   0  0  0  0  0  0  0  0  0  0  0  0
  124.7006  106.7814  109.1223 C   0  0  0  0  0  0  0  0  0  0  0  0
  125.0292  104.6291  107.3014 C   0  0  0  0  0  0  0  0  0  0  0  0
  122.0222  103.8347  106.4979 N   0  0  0  0  0  0  0  0  0  0  0  0
  123.9139  110.4068  109.6726 N   0  0  0  0  0  0  0  0  0  0  0  0
  122.5702  105.8982  105.6471 O   0  0  0  0  0  0  0  0  0  0  0  0
  124.5874  109.2254  107.8174 O   0  0  0  0  0  0  0  0  0  0  0  0
  123.8198  106.5363  108.0318 O   0  0  0  0  0  0  0  0  0  0  0  0
  123.2297  104.4713  108.7690 F   0  0  0  0  0  0  0  0  0  0  0  0
  123.0462  107.8120  110.4094 F   0  0  0  0  0  0  0  0  0  0  0  0
  125.1206  108.1871  110.9407 F   0  0  0  0  0  0  0  0  0  0  0  0
  125.9545  106.9577  108.6346 F   0  0  0  0  0  0  0  0  0  0  0  0
  124.7342  105.7094  109.9490 F   0  0  0  0  0  0  0  0  0  0  0  0
  125.5368  105.3117  106.2503 F   0  0  0  0  0  0  0  0  0  0  0  0
  125.9087  104.7430  108.3197 F   0  0  0  0  0  0  0  0  0  0  0  0
  124.9689  103.3260  106.9507 F   0  0  0  0  0  0  0  0  0  0  0  0
  122.2006  103.1628  107.2369 H   0  0  0  0  0  0  0  0  0  0  0  0
  121.3476  103.6026  105.7759 H   0  0  0  0  0  0  0  0  0  0  0  0
  123.6603  110.4030  110.6555 H   0  0  0  0  0  0  0  0  0  0  0  0
  123.8819  111.3018  109.1957 H   0  0  0  0  0  0  0  0  0  0  0  0
  1  3  1  0  0  0  0
  1  7  1  0  0  0  0
  1  9  2  0  0  0  0
  2  4  1  0  0  0  0
  2  8  1  0  0  0  0
  2 10  2  0  0  0  0
  3  6  1  0  0  0  0
  3 11  1  0  0  0  0
  3 12  1  0  0  0  0
  4  5  1  0  0  0  0
  4 13  1  0  0  0  0
  4 14  1  0  0  0  0
  5 11  1  0  0  0  0
  5 15  1  0  0  0  0
  5 16  1  0  0  0  0
  6 17  1  0  0  0  0
  6 18  1  0  0  0  0
  6 19  1  0  0  0  0
  7 20  1  0  0  0  0
  7 21  1  0  0  0  0
  8 22  1  0  0  0  0
  8 23  1  0  0  0  0
M  END
> <FRED Chemgauss4 score>
-9.149718

$$$$
C69181716	P106379143
  -OEChem-05122015313D

 36 38  0     0  0  0  0  0  0999 V2000
  123.6081  105.6913  106.5065 C   0  0  0  0  0  0  0  0  0  0  0  0
  123.4051  107.0552  106.5292 C   0  0  0  0  0  0  0  0  0  0  0  0
  121.4953  105.7200  105.9188 C   0  0  0  0  0  0  0  0  0  0  0  0
  124.9969  103.6358  107.3481 C   0  0  0  0  0  0  0  0  0  0  0  0
  125.3051  104.7688  108.2761 C   0  0  0  0  0  0  0  0  0  0  0  0
  118.2115  106.1264  104.3740 C   0  0  0  0  0  0  0  0  0  0  0  0
  119.6836  105.7342  104.2499 C   0  0  0  0  0  0  0  0  0  0  0  0
  119.8434  103.9536  106.0528 C   0  0  0  0  0  0  0  0  0  0  0  0
  117.2103  105.0290  104.0282 C   0  0  0  0  0  0  0  0  0  0  0  0
  118.3436  103.7921  106.2805 C   0  0  0  0  0  0  0  0  0  0  0  0
  124.9379  105.0571  106.8392 C   0  0  0  0  0  0  0  0  0  0  0  0
  124.3382  108.1537  106.8523 C   0  0  0  0  0  0  0  0  0  0  0  0
  122.5140  104.9240  106.1571 N   0  0  0  0  0  0  0  0  0  0  0  0
  120.2176  105.2774  105.5371 N   0  0  0  0  0  0  0  0  0  0  0  0
  124.7947  108.8668  105.6796 N   0  0  0  0  0  0  0  0  0  0  0  0
  121.7826  107.4027  106.0952 S   0  0  0  0  0  0  0  0  0  0  0  0
  117.4645  103.3798  104.7457 S   0  0  0  0  0  0  0  0  0  0  0  0
  125.8220  103.0153  107.0186 H   0  0  0  0  0  0  0  0  0  0  0  0
  124.0684  103.0982  107.4995 H   0  0  0  0  0  0  0  0  0  0  0  0
  124.5833  104.9940  109.0523 H   0  0  0  0  0  0  0  0  0  0  0  0
  126.3373  104.9131  108.5727 H   0  0  0  0  0  0  0  0  0  0  0  0
  118.0142  106.4459  105.3977 H   0  0  0  0  0  0  0  0  0  0  0  0
  118.0346  106.9950  103.7396 H   0  0  0  0  0  0  0  0  0  0  0  0
  119.7934  104.9584  103.4903 H   0  0  0  0  0  0  0  0  0  0  0  0
  120.2591  106.5911  103.8939 H   0  0  0  0  0  0  0  0  0  0  0  0
  120.3630  103.7844  107.0105 H   0  0  0  0  0  0  0  0  0  0  0  0
  120.2184  103.1607  105.3848 H   0  0  0  0  0  0  0  0  0  0  0  0
  116.1790  105.3668  104.2706 H   0  0  0  0  0  0  0  0  0  0  0  0
  117.1975  104.9097  102.9240 H   0  0  0  0  0  0  0  0  0  0  0  0
  118.1793  102.9708  106.9763 H   0  0  0  0  0  0  0  0  0  0  0  0
  117.9084  104.6903  106.7136 H   0  0  0  0  0  0  0  0  0  0  0  0
  125.7723  105.3662  106.1861 H   0  0  0  0  0  0  0  0  0  0  0  0
  123.8762  108.9014  107.5208 H   0  0  0  0  0  0  0  0  0  0  0  0
  125.2413  107.7937  107.3755 H   0  0  0  0  0  0  0  0  0  0  0  0
  125.6854  109.3281  105.7112 H   0  0  0  0  0  0  0  0  0  0  0  0
  124.1385  109.0575  104.9446 H   0  0  0  0  0  0  0  0  0  0  0  0
  1  2  2  0  0  0  0
  1 11  1  0  0  0  0
  1 13  1  0  0  0  0
  2 12  1  0  0  0  0
  2 16  1  0  0  0  0
  3 13  2  0  0  0  0
  3 14  1  0  0  0  0
  3 16  1  0  0  0  0
  4  5  1  0  0  0  0
  4 11  1  0  0  0  0
  5 11  1  0  0  0  0
  6  7  1  0  0  0  0
  6  9  1  0  0  0  0
  7 14  1  0  0  0  0
  8 10  1  0  0  0  0
  8 14  1  0  0  0  0
  9 17  1  0  0  0  0
 10 17  1  0  0  0  0
 12 15  1  0  0  0  0
  4 18  1  0  0  0  0
  4 19  1  0  0  0  0
  5 20  1  0  0  0  0
  5 21  1  0  0  0  0
  6 22  1  0  0  0  0
  6 23  1  0  0  0  0
  7 24  1  0  0  0  0
  7 25  1  0  0  0  0
  8 26  1  0  0  0  0
  8 27  1  0  0  0  0
  9 28  1  0  0  0  0
  9 29  1  0  0  0  0
 10 30  1  0  0  0  0
 10 31  1  0  0  0  0
 11 32  1  0  0  0  0
 12 33  1  0  0  0  0
 12 34  1  0  0  0  0
 15 35  1  0  0  0  0
 15 36  1  0  0  0  0
M  END
> <FRED Chemgauss4 score>
-9.146621

$$$$
C70911053	P109452755
  -OEChem-05122015313D

 29 29  0     0  0  0  0  0  0999 V2000
  125.3901  104.5759  107.0274 C   0  0  0  0  0  0  0  0  0  0  0  0
  125.5674  104.8002  108.5035 C   0  0  0  0  0  0  0  0  0  0  0  0
  125.1324  105.9284  107.6185 C   0  0  0  0  0  0  0  0  0  0  0  0
  121.6839  111.4360  111.0729 C   0  0  0  0  0  0  0  0  0  0  0  0
  124.9148  109.0212  108.4809 C   0  0  0  0  0  0  0  0  0  0  0  0
  122.9497  110.6036  111.1651 C   0  0  0  0  0  0  0  0  0  0  0  0
  124.5334  109.4199  109.8948 C   0  0  0  0  0  0  0  0  0  0  0  0
  121.9488  112.6564  110.2771 N   0  0  0  0  0  0  0  0  0  0  0  0
  126.1634  108.2384  108.5076 N   0  0  0  0  0  0  0  0  0  0  0  0
  127.7048  106.4034  107.5323 O   0  0  0  0  0  0  0  0  0  0  0  0
  126.1715  107.6907  105.9999 O   0  0  0  0  0  0  0  0  0  0  0  0
  123.3482  110.2047  109.8608 O   0  0  0  0  0  0  0  0  0  0  0  0
  126.4462  107.0797  107.2862 S   0  0  0  0  0  0  0  0  0  0  0  0
  126.2795  104.4130  106.4314 H   0  0  0  0  0  0  0  0  0  0  0  0
  124.5327  103.9956  106.7076 H   0  0  0  0  0  0  0  0  0  0  0  0
  124.8282  104.3695  109.1686 H   0  0  0  0  0  0  0  0  0  0  0  0
  126.5758  104.7876  108.8981 H   0  0  0  0  0  0  0  0  0  0  0  0
  124.1162  106.2888  107.6857 H   0  0  0  0  0  0  0  0  0  0  0  0
  120.8768  110.8784  110.5874 H   0  0  0  0  0  0  0  0  0  0  0  0
  121.3569  111.7437  112.0708 H   0  0  0  0  0  0  0  0  0  0  0  0
  124.1353  108.4080  108.0176 H   0  0  0  0  0  0  0  0  0  0  0  0
  125.0830  109.9109  107.8665 H   0  0  0  0  0  0  0  0  0  0  0  0
  122.7617  109.6993  111.7522 H   0  0  0  0  0  0  0  0  0  0  0  0
  123.7682  111.1653  111.6270 H   0  0  0  0  0  0  0  0  0  0  0  0
  125.3278  110.0269  110.3401 H   0  0  0  0  0  0  0  0  0  0  0  0
  124.3573  108.5433  110.5266 H   0  0  0  0  0  0  0  0  0  0  0  0
  121.3671  113.4365  110.4451 H   0  0  0  0  0  0  0  0  0  0  0  0
  122.5436  112.5611  109.4946 H   0  0  0  0  0  0  0  0  0  0  0  0
  126.9789  108.7652  108.8465 H   0  0  0  0  0  0  0  0  0  0  0  0
  1  2  1  0  0  0  0
  1  3  1  0  0  0  0
  2  3  1  0  0  0  0
  3 13  1  0  0  0  0
  4  6  1  0  0  0  0
  4  8  1  0  0  0  0
  5  7  1  0  0  0  0
  5  9  1  0  0  0  0
  6 12  1  0  0  0  0
  7 12  1  0  0  0  0
  9 13  1  0  0  0  0
 10 13  2  0  0  0  0
 11 13  2  0  0  0  0
  1 14  1  0  0  0  0
  1 15  1  0  0  0  0
  2 16  1  0  0  0  0
  2 17  1  0  0  0  0
  3 18  1  0  0  0  0
  4 19  1  0  0  0  0
  4 20  1  0  0  0  0
  5 21  1  0  0  0  0
  5 22  1  0  0  0  0
  6 23  1  0  0  0  0
  6 24  1  0  0  0  0
  7 25  1  0  0  0  0
  7 26  1  0  0  0  0
  8 27  1  0  0  0  0
  8 28  1  0  0  0  0
  9 29  1  0  0  0  0
M  END
> <FRED Chemgauss4 score>
-9.144858

$$$$
C78452166	P122388941
  -OEChem-05122015313D

 45 46  0     1  0  0  0  0  0999 V2000
  116.9209  108.1422  103.7324 C   0  0  0  0  0  0  0  0  0  0  0  0
  116.3181  106.9109  103.8826 C   0  0  0  0  0  0  0  0  0  0  0  0
  118.3546  106.3556  104.4775 C   0  0  0  0  0  0  0  0  0  0  0  0
  125.4926  106.6341  106.4362 C   0  0  0  0  0  0  0  0  0  0  0  0
  121.9348  105.6487  105.7412 C   0  0  0  0  0  0  0  0  0  0  0  0
  123.9082  108.5611  106.3999 C   0  0  0  0  0  0  0  0  0  0  0  0
  122.8695  107.6416  107.0002 C   0  0  0  0  0  0  0  0  0  0  0  0
  124.2958  105.6778  106.4691 C   0  0  1  0  0  0  0  0  0  0  0  0
  114.8952  106.6107  103.6276 C   0  0  0  0  0  0  0  0  0  0  0  0
  125.3261  103.6513  107.5348 C   0  0  0  0  0  0  0  0  0  0  0  0
  124.7901  105.6683  108.9305 C   0  0  0  0  0  0  0  0  0  0  0  0
  120.5909  106.3321  105.7370 C   0  0  0  0  0  0  0  0  0  0  0  0
  124.3662  104.8209  107.7343 C   0  0  0  0  0  0  0  0  0  0  0  0
  119.5481  105.5217  104.9448 C   0  0  1  0  0  0  0  0  0  0  0  0
  119.0587  104.3428  105.7934 C   0  0  0  0  0  0  0  0  0  0  0  0
  117.1387  105.8851  104.3094 N   0  0  0  0  0  0  0  0  0  0  0  0
  125.2306  107.9838  106.4948 N   0  0  0  0  0  0  0  0  0  0  0  0
  122.9850  106.3303  106.3618 N   0  0  0  0  0  0  0  0  0  0  0  0
  126.6458  106.1963  106.4161 O   0  0  0  0  0  0  0  0  0  0  0  0
  122.0510  104.5422  105.2074 O   0  0  0  0  0  0  0  0  0  0  0  0
  120.2262  104.9482  103.8165 O   0  0  0  0  0  0  0  0  0  0  0  0
  118.2279  103.5305  105.1041 F   0  0  0  0  0  0  0  0  0  0  0  0
  120.0988  103.5857  106.2146 F   0  0  0  0  0  0  0  0  0  0  0  0
  118.3988  104.7654  106.8953 F   0  0  0  0  0  0  0  0  0  0  0  0
  118.5822  108.0230  104.1413 S   0  0  0  0  0  0  0  0  0  0  0  0
  116.4824  109.0773  103.4137 H   0  0  0  0  0  0  0  0  0  0  0  0
  123.7103  108.7366  105.3370 H   0  0  0  0  0  0  0  0  0  0  0  0
  123.9242  109.5269  106.9138 H   0  0  0  0  0  0  0  0  0  0  0  0
  123.0410  107.5015  108.0740 H   0  0  0  0  0  0  0  0  0  0  0  0
  121.8766  108.0780  106.8831 H   0  0  0  0  0  0  0  0  0  0  0  0
  124.4126  105.0161  105.6018 H   0  0  0  0  0  0  0  0  0  0  0  0
  114.7359  106.3015  102.5817 H   0  0  0  0  0  0  0  0  0  0  0  0
  114.5204  105.8017  104.2774 H   0  0  0  0  0  0  0  0  0  0  0  0
  114.2475  107.4826  103.8220 H   0  0  0  0  0  0  0  0  0  0  0  0
  126.3448  104.0007  107.3336 H   0  0  0  0  0  0  0  0  0  0  0  0
  125.0099  103.0271  106.6925 H   0  0  0  0  0  0  0  0  0  0  0  0
  125.3556  103.0184  108.4280 H   0  0  0  0  0  0  0  0  0  0  0  0
  125.7879  106.0959  108.7836 H   0  0  0  0  0  0  0  0  0  0  0  0
  124.8114  105.0648  109.8442 H   0  0  0  0  0  0  0  0  0  0  0  0
  124.0886  106.4938  109.0912 H   0  0  0  0  0  0  0  0  0  0  0  0
  120.2991  106.4859  106.7775 H   0  0  0  0  0  0  0  0  0  0  0  0
  120.7538  107.3094  105.2741 H   0  0  0  0  0  0  0  0  0  0  0  0
  123.3659  104.4187  107.9314 H   0  0  0  0  0  0  0  0  0  0  0  0
  126.0170  108.6153  106.6124 H   0  0  0  0  0  0  0  0  0  0  0  0
  120.5185  105.6941  103.2752 H   0  0  0  0  0  0  0  0  0  0  0  0
  1  2  2  0  0  0  0
  1 25  1  0  0  0  0
  2  9  1  0  0  0  0
  2 16  1  0  0  0  0
  3 14  1  0  0  0  0
  3 16  2  0  0  0  0
  3 25  1  0  0  0  0
  4  8  1  0  0  0  0
  4 17  1  0  0  0  0
  4 19  2  0  0  0  0
  5 12  1  0  0  0  0
  5 18  1  0  0  0  0
  5 20  2  0  0  0  0
  6  7  1  0  0  0  0
  6 17  1  0  0  0  0
  7 18  1  0  0  0  0
  8 13  1  0  0  0  0
  8 18  1  0  0  0  0
 10 13  1  0  0  0  0
 11 13  1  0  0  0  0
 12 14  1  0  0  0  0
 14 15  1  0  0  0  0
 14 21  1  0  0  0  0
 15 22  1  0  0  0  0
 15 23  1  0  0  0  0
 15 24  1  0  0  0  0
  1 26  1  0  0  0  0
  6 27  1  0  0  0  0
  6 28  1  0  0  0  0
  7 29  1  0  0  0  0
  7 30  1  0  0  0  0
  8 31  1  0  0  0  0
  9 32  1  0  0  0  0
  9 33  1  0  0  0  0
  9 34  1  0  0  0  0
 10 35  1  0  0  0  0
 10 36  1  0  0  0  0
 10 37  1  0  0  0  0
 11 38  1  0  0  0  0
 11 39  1  0  0  0  0
 11 40  1  0  0  0  0
 12 41  1  0  0  0  0
 12 42  1  0  0  0  0
 13 43  1  0  0  0  0
 17 44  1  0  0  0  0
 21 45  1  0  0  0  0
M  END
> <FRED Chemgauss4 score>
-9.132582

$$$$
C72200439	P112158916
  -OEChem-05122015313D

 24 24  0     1  0  0  0  0  0999 V2000
  125.6264  104.4076  108.8834 C   0  0  0  0  0  0  0  0  0  0  0  0
  124.9430  106.7029  108.3869 C   0  0  0  0  0  0  0  0  0  0  0  0
  124.1121  104.8888  107.0248 C   0  0  0  0  0  0  0  0  0  0  0  0
  124.8880  105.3406  108.0922 C   0  0  0  0  0  0  0  0  0  0  0  0
  124.2220  107.6133  107.6142 C   0  0  0  0  0  0  0  0  0  0  0  0
  123.4461  107.1614  106.5468 C   0  0  0  0  0  0  0  0  0  0  0  0
  123.3911  105.7991  106.2521 C   0  0  0  0  0  0  0  0  0  0  0  0
  123.8326  109.3320  109.4102 C   0  0  0  0  0  0  0  0  0  0  0  0
  124.3205  109.0795  107.9818 C   0  0  1  0  0  0  0  0  0  0  0  0
  126.2261  103.6498  109.5260 N   0  0  0  0  0  0  0  0  0  0  0  0
  125.6710  109.5637  107.7969 N   0  0  0  0  0  0  0  0  0  0  0  0
  123.4484  110.7591  109.5612 N   0  3  0  0  0  0  0  0  0  0  0  0
  122.7771  107.9858  105.8264 O   0  5  0  0  0  0  0  0  0  0  0  0
  122.6524  105.3364  105.2306 F   0  0  0  0  0  0  0  0  0  0  0  0
  125.5473  107.0593  109.2189 H   0  0  0  0  0  0  0  0  0  0  0  0
  124.0592  103.8300  106.7827 H   0  0  0  0  0  0  0  0  0  0  0  0
  122.9448  108.7444  109.6659 H   0  0  0  0  0  0  0  0  0  0  0  0
  124.6164  109.1422  110.1508 H   0  0  0  0  0  0  0  0  0  0  0  0
  123.7033  109.6650  107.2885 H   0  0  0  0  0  0  0  0  0  0  0  0
  125.9585  110.3913  108.2861 H   0  0  0  0  0  0  0  0  0  0  0  0
  126.2180  109.1918  107.0421 H   0  0  0  0  0  0  0  0  0  0  0  0
  123.7395  111.1206  110.4749 H   0  0  0  0  0  0  0  0  0  0  0  0
  122.4327  110.8730  109.4833 H   0  0  0  0  0  0  0  0  0  0  0  0
  123.8894  111.3343  108.8366 H   0  0  0  0  0  0  0  0  0  0  0  0
  1  4  1  0  0  0  0
  1 10  3  0  0  0  0
  2  4  1  0  0  0  0
  2  5  2  0  0  0  0
  3  4  2  0  0  0  0
  3  7  1  0  0  0  0
  5  6  1  0  0  0  0
  5  9  1  0  0  0  0
  6  7  2  0  0  0  0
  6 13  1  0  0  0  0
  7 14  1  0  0  0  0
  8  9  1  0  0  0  0
  8 12  1  0  0  0  0
  9 11  1  0  0  0  0
  2 15  1  0  0  0  0
  3 16  1  0  0  0  0
  8 17  1  0  0  0  0
  8 18  1  0  0  0  0
  9 19  1  0  0  0  0
 11 20  1  0  0  0  0
 11 21  1  0  0  0  0
 12 22  1  0  0  0  0
 12 23  1  0  0  0  0
 12 24  1  0  0  0  0
M  CHG  2  12   1  13  -1
M  END
> <FRED Chemgauss4 score>
-9.132479

$$$$
C90311277	P141184880
  -OEChem-05122015313D

 41 42  0     1  0  0  0  0  0999 V2000
  120.1115  106.0441  105.6509 C   0  0  0  0  0  0  0  0  0  0  0  0
  119.7017  104.7426  106.0269 C   0  0  0  0  0  0  0  0  0  0  0  0
  118.9710  106.8126  105.6301 C   0  0  0  0  0  0  0  0  0  0  0  0
  118.3399  104.8087  106.2092 C   0  0  0  0  0  0  0  0  0  0  0  0
  121.4776  106.5320  105.3301 C   0  0  0  0  0  0  0  0  0  0  0  0
  124.2422  108.3153  107.7099 C   0  0  0  0  0  0  0  0  0  0  0  0
  123.8515  108.3950  106.2207 C   0  0  2  0  0  0  0  0  0  0  0  0
  123.7525  106.8539  106.1960 C   0  0  1  0  0  0  0  0  0  0  0  0
  124.5452  106.8087  107.5281 C   0  0  2  0  0  0  0  0  0  0  0  0
  120.5568  103.5517  106.1913 C   0  0  0  0  0  0  0  0  0  0  0  0
  118.7079  108.2268  105.3226 C   0  0  0  0  0  0  0  0  0  0  0  0
  117.3233  103.8192  106.5967 C   0  0  0  0  0  0  0  0  0  0  0  0
  124.5463  104.0383  107.2114 C   0  0  0  0  0  0  0  0  0  0  0  0
  124.7461  104.7068  108.5548 C   0  0  0  0  0  0  0  0  0  0  0  0
  125.0316  108.7935  105.4523 N   0  0  0  0  0  0  0  0  0  0  0  0
  122.4043  106.4076  106.3444 N   0  0  0  0  0  0  0  0  0  0  0  0
  121.6957  107.0217  104.2251 O   0  0  0  0  0  0  0  0  0  0  0  0
  117.8867  106.0671  105.9693 O   0  0  0  0  0  0  0  0  0  0  0  0
  124.0529  105.9390  108.5636 O   0  0  0  0  0  0  0  0  0  0  0  0
  125.1288  108.8978  108.0163 H   0  0  0  0  0  0  0  0  0  0  0  0
  123.4299  108.5528  108.4148 H   0  0  0  0  0  0  0  0  0  0  0  0
  122.9368  108.9496  106.0014 H   0  0  0  0  0  0  0  0  0  0  0  0
  124.2616  106.3504  105.3846 H   0  0  0  0  0  0  0  0  0  0  0  0
  125.6253  106.6058  107.3794 H   0  0  0  0  0  0  0  0  0  0  0  0
  120.9319  103.4706  107.2249 H   0  0  0  0  0  0  0  0  0  0  0  0
  120.0167  102.6180  105.9573 H   0  0  0  0  0  0  0  0  0  0  0  0
  121.4316  103.5735  105.5186 H   0  0  0  0  0  0  0  0  0  0  0  0
  118.4910  108.3718  104.2497 H   0  0  0  0  0  0  0  0  0  0  0  0
  117.8480  108.6261  105.8908 H   0  0  0  0  0  0  0  0  0  0  0  0
  119.5645  108.8773  105.5779 H   0  0  0  0  0  0  0  0  0  0  0  0
  117.1890  103.7877  107.6923 H   0  0  0  0  0  0  0  0  0  0  0  0
  116.3360  104.0350  106.1488 H   0  0  0  0  0  0  0  0  0  0  0  0
  117.5856  102.7973  106.2662 H   0  0  0  0  0  0  0  0  0  0  0  0
  123.4863  103.8437  107.0261 H   0  0  0  0  0  0  0  0  0  0  0  0
  124.9363  104.6681  106.4050 H   0  0  0  0  0  0  0  0  0  0  0  0
  125.0925  103.0902  107.1672 H   0  0  0  0  0  0  0  0  0  0  0  0
  125.8082  104.8987  108.7338 H   0  0  0  0  0  0  0  0  0  0  0  0
  124.3551  104.0767  109.3592 H   0  0  0  0  0  0  0  0  0  0  0  0
  125.5624  109.5763  105.7730 H   0  0  0  0  0  0  0  0  0  0  0  0
  125.1516  108.4105  104.5377 H   0  0  0  0  0  0  0  0  0  0  0  0
  122.1455  106.0531  107.2533 H   0  0  0  0  0  0  0  0  0  0  0  0
  1  2  1  0  0  0  0
  1  3  2  0  0  0  0
  1  5  1  0  0  0  0
  2  4  2  0  0  0  0
  2 10  1  0  0  0  0
  3 11  1  0  0  0  0
  3 18  1  0  0  0  0
  4 12  1  0  0  0  0
  4 18  1  0  0  0  0
  5 16  1  0  0  0  0
  5 17  2  0  0  0  0
  6  7  1  0  0  0  0
  6  9  1  0  0  0  0
  7  8  1  0  0  0  0
  7 15  1  0  0  0  0
  8  9  1  0  0  0  0
  8 16  1  0  0  0  0
  9 19  1  0  0  0  0
 13 14  1  0  0  0  0
 14 19  1  0  0  0  0
  6 20  1  0  0  0  0
  6 21  1  0  0  0  0
  7 22  1  0  0  0  0
  8 23  1  0  0  0  0
  9 24  1  0  0  0  0
 10 25  1  0  0  0  0
 10 26  1  0  0  0  0
 10 27  1  0  0  0  0
 11 28  1  0  0  0  0
 11 29  1  0  0  0  0
 11 30  1  0  0  0  0
 12 31  1  0  0  0  0
 12 32  1  0  0  0  0
 12 33  1  0  0  0  0
 13 34  1  0  0  0  0
 13 35  1  0  0  0  0
 13 36  1  0  0  0  0
 14 37  1  0  0  0  0
 14 38  1  0  0  0  0
 15 39  1  0  0  0  0
 15 40  1  0  0  0  0
 16 41  1  0  0  0  0
M  END
> <FRED Chemgauss4 score>
-9.132040

$$$$
C85654775	P134095763
  -OEChem-05122015313D

 30 31  0     0  0  0  0  0  0999 V2000
  121.7693  105.3864  104.8964 C   0  0  0  0  0  0  0  0  0  0  0  0
  121.5096  106.0756  107.1974 C   0  0  0  0  0  0  0  0  0  0  0  0
  120.5141  104.7795  104.9365 C   0  0  0  0  0  0  0  0  0  0  0  0
  120.2543  105.4687  107.2375 C   0  0  0  0  0  0  0  0  0  0  0  0
  125.3774  104.6608  108.2263 C   0  0  0  0  0  0  0  0  0  0  0  0
  122.2671  106.0344  106.0269 C   0  0  0  0  0  0  0  0  0  0  0  0
  126.0841  105.8501  108.4874 C   0  0  0  0  0  0  0  0  0  0  0  0
  119.7565  104.8207  106.1070 C   0  0  0  0  0  0  0  0  0  0  0  0
  125.5022  106.7830  107.6643 C   0  0  0  0  0  0  0  0  0  0  0  0
  125.2325  109.0977  108.5895 C   0  0  0  0  0  0  0  0  0  0  0  0
  123.6092  106.6832  105.9841 C   0  0  0  0  0  0  0  0  0  0  0  0
  125.7838  108.2176  107.4625 C   0  0  0  0  0  0  0  0  0  0  0  0
  124.4197  104.8209  107.3092 N   0  0  0  0  0  0  0  0  0  0  0  0
  124.5204  106.1217  106.9868 N   0  0  0  0  0  0  0  0  0  0  0  0
  127.1022  106.0314  109.3507 N   0  0  0  0  0  0  0  0  0  0  0  0
  118.0561  103.9977  106.1606 Br  0  0  0  0  0  0  0  0  0  0  0  0
  122.3525  105.3495  103.9801 H   0  0  0  0  0  0  0  0  0  0  0  0
  121.8897  106.5774  108.0834 H   0  0  0  0  0  0  0  0  0  0  0  0
  120.1413  104.2779  104.0470 H   0  0  0  0  0  0  0  0  0  0  0  0
  119.6766  105.5100  108.1571 H   0  0  0  0  0  0  0  0  0  0  0  0
  125.5176  103.6825  108.6642 H   0  0  0  0  0  0  0  0  0  0  0  0
  124.1546  108.9448  108.7093 H   0  0  0  0  0  0  0  0  0  0  0  0
  125.4037  110.1591  108.3844 H   0  0  0  0  0  0  0  0  0  0  0  0
  125.7143  108.8543  109.5426 H   0  0  0  0  0  0  0  0  0  0  0  0
  124.0877  106.5696  104.9982 H   0  0  0  0  0  0  0  0  0  0  0  0
  123.5455  107.7685  106.1630 H   0  0  0  0  0  0  0  0  0  0  0  0
  126.8721  108.4030  107.3762 H   0  0  0  0  0  0  0  0  0  0  0  0
  125.3632  108.5762  106.5028 H   0  0  0  0  0  0  0  0  0  0  0  0
  127.4442  105.2765  109.9661 H   0  0  0  0  0  0  0  0  0  0  0  0
  127.5310  106.9569  109.5103 H   0  0  0  0  0  0  0  0  0  0  0  0
  1  3  2  0  0  0  0
  1  6  1  0  0  0  0
  2  4  1  0  0  0  0
  2  6  2  0  0  0  0
  3  8  1  0  0  0  0
  4  8  2  0  0  0  0
  5  7  1  0  0  0  0
  5 13  2  0  0  0  0
  6 11  1  0  0  0  0
  7  9  2  0  0  0  0
  7 15  1  0  0  0  0
  8 16  1  0  0  0  0
  9 12  1  0  0  0  0
  9 14  1  0  0  0  0
 10 12  1  0  0  0  0
 11 14  1  0  0  0  0
 13 14  1  0  0  0  0
  1 17  1  0  0  0  0
  2 18  1  0  0  0  0
  3 19  1  0  0  0  0
  4 20  1  0  0  0  0
  5 21  1  0  0  0  0
 10 22  1  0  0  0  0
 10 23  1  0  0  0  0
 10 24  1  0  0  0  0
 11 25  1  0  0  0  0
 11 26  1  0  0  0  0
 12 27  1  0  0  0  0
 12 28  1  0  0  0  0
 15 29  1  0  0  0  0
 15 30  1  0  0  0  0
M  END
> <FRED Chemgauss4 score>
-9.130234

$$$$
C54791059	P82480672
  -OEChem-05122015313D

 28 29  0     0  0  0  0  0  0999 V2000
  124.1102  104.7036  106.9176 C   0  0  0  0  0  0  0  0  0  0  0  0
  122.8917  105.3509  107.1219 C   0  0  0  0  0  0  0  0  0  0  0  0
  125.3070  105.3987  107.0915 C   0  0  0  0  0  0  0  0  0  0  0  0
  123.0895  109.4269  112.1248 C   0  0  0  0  0  0  0  0  0  0  0  0
  122.9345  108.2033  111.5058 C   0  0  0  0  0  0  0  0  0  0  0  0
  124.0667  107.3885  107.6738 C   0  0  0  0  0  0  0  0  0  0  0  0
  122.8699  106.6934  107.5000 C   0  0  0  0  0  0  0  0  0  0  0  0
  125.2852  106.7412  107.4695 C   0  0  0  0  0  0  0  0  0  0  0  0
  123.5783  110.4416  111.3274 C   0  0  0  0  0  0  0  0  0  0  0  0
  123.6988  109.0455  109.5376 C   0  0  0  0  0  0  0  0  0  0  0  0
  124.0431  108.8304  108.0805 C   0  0  0  0  0  0  0  0  0  0  0  0
  123.7803  111.8006  111.9087 C   0  0  0  0  0  0  0  0  0  0  0  0
  123.2303  107.9764  110.2092 N   0  0  0  0  0  0  0  0  0  0  0  0
  123.8947  110.2855  110.0252 N   0  0  0  0  0  0  0  0  0  0  0  0
  123.7411  111.7912  113.3489 N   0  0  0  0  0  0  0  0  0  0  0  0
  121.3392  107.4552  107.7427 Cl  0  0  0  0  0  0  0  0  0  0  0  0
  126.7902  107.5621  107.6777 Cl  0  0  0  0  0  0  0  0  0  0  0  0
  124.1267  103.6586  106.6222 H   0  0  0  0  0  0  0  0  0  0  0  0
  121.9684  104.7947  106.9800 H   0  0  0  0  0  0  0  0  0  0  0  0
  126.2476  104.8788  106.9285 H   0  0  0  0  0  0  0  0  0  0  0  0
  122.8412  109.5706  113.1684 H   0  0  0  0  0  0  0  0  0  0  0  0
  122.5566  107.3451  112.0518 H   0  0  0  0  0  0  0  0  0  0  0  0
  125.0154  109.3019  107.8647 H   0  0  0  0  0  0  0  0  0  0  0  0
  123.3305  109.3906  107.4538 H   0  0  0  0  0  0  0  0  0  0  0  0
  124.7505  112.2195  111.6075 H   0  0  0  0  0  0  0  0  0  0  0  0
  123.0101  112.5042  111.5645 H   0  0  0  0  0  0  0  0  0  0  0  0
  123.4745  112.6305  113.8360 H   0  0  0  0  0  0  0  0  0  0  0  0
  124.1695  111.0272  113.8444 H   0  0  0  0  0  0  0  0  0  0  0  0
  1  2  1  0  0  0  0
  1  3  2  0  0  0  0
  2  7  2  0  0  0  0
  3  8  1  0  0  0  0
  4  5  1  0  0  0  0
  4  9  2  0  0  0  0
  5 13  2  0  0  0  0
  6  7  1  0  0  0  0
  6  8  2  0  0  0  0
  6 11  1  0  0  0  0
  7 16  1  0  0  0  0
  8 17  1  0  0  0  0
  9 12  1  0  0  0  0
  9 14  1  0  0  0  0
 10 11  1  0  0  0  0
 10 13  1  0  0  0  0
 10 14  2  0  0  0  0
 12 15  1  0  0  0  0
  1 18  1  0  0  0  0
  2 19  1  0  0  0  0
  3 20  1  0  0  0  0
  4 21  1  0  0  0  0
  5 22  1  0  0  0  0
 11 23  1  0  0  0  0
 11 24  1  0  0  0  0
 12 25  1  0  0  0  0
 12 26  1  0  0  0  0
 15 27  1  0  0  0  0
 15 28  1  0  0  0  0
M  END
> <FRED Chemgauss4 score>
-9.120646

$$$$
C93848609	P147064787
  -OEChem-05122015313D

 36 37  0     1  0  0  0  0  0999 V2000
  118.9677  105.4421  106.3927 C   0  0  0  0  0  0  0  0  0  0  0  0
  119.7579  106.2822  105.7119 C   0  0  0  0  0  0  0  0  0  0  0  0
  119.5847  104.2482  107.0173 C   0  0  0  0  0  0  0  0  0  0  0  0
  121.6402  105.0992  106.0807 C   0  0  0  0  0  0  0  0  0  0  0  0
  126.2109  108.6027  107.3591 C   0  0  0  0  0  0  0  0  0  0  0  0
  123.5505  106.3933  108.1956 C   0  0  0  0  0  0  0  0  0  0  0  0
  124.5032  107.4494  108.7538 C   0  0  0  0  0  0  0  0  0  0  0  0
  125.5118  106.2728  106.8419 C   0  0  0  0  0  0  0  0  0  0  0  0
  123.9861  106.2676  106.7420 C   0  0  1  0  0  0  0  0  0  0  0  0
  125.8114  107.2708  107.9710 C   0  0  1  0  0  0  0  0  0  0  0  0
  129.1205  105.8408  109.1942 C   0  0  0  0  0  0  0  0  0  0  0  0
  128.1374  106.3851  108.1811 C   0  0  0  0  0  0  0  0  0  0  0  0
  121.1123  106.1455  105.5310 N   0  0  0  0  0  0  0  0  0  0  0  0
  120.9472  104.1557  106.8069 N   0  0  0  0  0  0  0  0  0  0  0  0
  126.8545  106.7001  108.8638 N   0  3  0  0  0  0  0  0  0  0  0  0
  127.2782  108.5880  106.6854 O   0  5  0  0  0  0  0  0  0  0  0  0
  118.9132  103.4432  107.6531 O   0  0  0  0  0  0  0  0  0  0  0  0
  125.4204  109.5567  107.6045 O   0  0  0  0  0  0  0  0  0  0  0  0
  123.3429  104.7696  105.9525 S   0  0  0  0  0  0  0  0  0  0  0  0
  117.9027  105.6029  106.4999 H   0  0  0  0  0  0  0  0  0  0  0  0
  119.3204  107.1602  105.2475 H   0  0  0  0  0  0  0  0  0  0  0  0
  123.6898  105.4523  108.7430 H   0  0  0  0  0  0  0  0  0  0  0  0
  122.5039  106.6975  108.2984 H   0  0  0  0  0  0  0  0  0  0  0  0
  124.0707  108.4451  108.5925 H   0  0  0  0  0  0  0  0  0  0  0  0
  124.6223  107.3274  109.8363 H   0  0  0  0  0  0  0  0  0  0  0  0
  125.8880  105.2727  107.0962 H   0  0  0  0  0  0  0  0  0  0  0  0
  125.9673  106.5584  105.8863 H   0  0  0  0  0  0  0  0  0  0  0  0
  123.6439  107.1378  106.1694 H   0  0  0  0  0  0  0  0  0  0  0  0
  129.3259  106.5920  109.9630 H   0  0  0  0  0  0  0  0  0  0  0  0
  128.7245  104.9485  109.6901 H   0  0  0  0  0  0  0  0  0  0  0  0
  130.0706  105.5734  108.7199 H   0  0  0  0  0  0  0  0  0  0  0  0
  127.9144  105.6531  107.4001 H   0  0  0  0  0  0  0  0  0  0  0  0
  128.4963  107.3132  107.7276 H   0  0  0  0  0  0  0  0  0  0  0  0
  121.4525  103.3681  107.2008 H   0  0  0  0  0  0  0  0  0  0  0  0
  127.0357  107.3581  109.6343 H   0  0  0  0  0  0  0  0  0  0  0  0
  126.4892  105.8454  109.3058 H   0  0  0  0  0  0  0  0  0  0  0  0
  1  2  2  0  0  0  0
  1  3  1  0  0  0  0
  2 13  1  0  0  0  0
  3 14  1  0  0  0  0
  3 17  2  0  0  0  0
  4 13  2  0  0  0  0
  4 14  1  0  0  0  0
  4 19  1  0  0  0  0
  5 10  1  0  0  0  0
  5 16  1  0  0  0  0
  5 18  2  0  0  0  0
  6  7  1  0  0  0  0
  6  9  1  0  0  0  0
  7 10  1  0  0  0  0
  8  9  1  0  0  0  0
  8 10  1  0  0  0  0
  9 19  1  0  0  0  0
 10 15  1  0  0  0  0
 11 12  1  0  0  0  0
 12 15  1  0  0  0  0
  1 20  1  0  0  0  0
  2 21  1  0  0  0  0
  6 22  1  0  0  0  0
  6 23  1  0  0  0  0
  7 24  1  0  0  0  0
  7 25  1  0  0  0  0
  8 26  1  0  0  0  0
  8 27  1  0  0  0  0
  9 28  1  0  0  0  0
 11 29  1  0  0  0  0
 11 30  1  0  0  0  0
 11 31  1  0  0  0  0
 12 32  1  0  0  0  0
 12 33  1  0  0  0  0
 14 34  1  0  0  0  0
 15 35  1  0  0  0  0
 15 36  1  0  0  0  0
M  CHG  2  15   1  16  -1
M  END
> <FRED Chemgauss4 score>
-9.120294

$$$$
C35137616	P88193130
  -OEChem-05122015313D

 24 24  0     0  0  0  0  0  0999 V2000
  124.2327  108.7371  108.8282 C   0  0  0  0  0  0  0  0  0  0  0  0
  125.8346  107.7634  106.8080 C   0  0  0  0  0  0  0  0  0  0  0  0
  123.4685  109.2867  109.9793 C   0  0  0  0  0  0  0  0  0  0  0  0
  123.1881  108.7948  113.1877 C   0  0  0  0  0  0  0  0  0  0  0  0
  124.2587  107.2515  108.6627 C   0  0  0  0  0  0  0  0  0  0  0  0
  125.5491  106.8619  107.9812 C   0  0  0  0  0  0  0  0  0  0  0  0
  123.7271  109.9319  112.3508 C   0  0  0  0  0  0  0  0  0  0  0  0
  124.7662  109.5841  108.0119 N   0  0  0  0  0  0  0  0  0  0  0  0
  125.4473  109.0773  106.9548 N   0  0  0  0  0  0  0  0  0  0  0  0
  123.8412  108.6784  114.3959 N   0  0  0  0  0  0  0  0  0  0  0  0
  124.2484  109.4161  111.1053 N   0  0  0  0  0  0  0  0  0  0  0  0
  126.4425  107.3516  105.8199 O   0  0  0  0  0  0  0  0  0  0  0  0
  122.2880  109.5665  109.8530 O   0  0  0  0  0  0  0  0  0  0  0  0
  122.2451  108.0836  112.8517 O   0  0  0  0  0  0  0  0  0  0  0  0
  124.1936  106.8034  109.6606 H   0  0  0  0  0  0  0  0  0  0  0  0
  123.3993  106.9126  108.0765 H   0  0  0  0  0  0  0  0  0  0  0  0
  125.4871  105.8361  107.5990 H   0  0  0  0  0  0  0  0  0  0  0  0
  126.3818  106.9130  108.6903 H   0  0  0  0  0  0  0  0  0  0  0  0
  124.5392  110.4481  112.8700 H   0  0  0  0  0  0  0  0  0  0  0  0
  122.9207  110.6354  112.1268 H   0  0  0  0  0  0  0  0  0  0  0  0
  125.6924  109.7203  106.2085 H   0  0  0  0  0  0  0  0  0  0  0  0
  124.5929  109.3125  114.6455 H   0  0  0  0  0  0  0  0  0  0  0  0
  123.6011  107.9655  115.0774 H   0  0  0  0  0  0  0  0  0  0  0  0
  125.2249  109.1395  111.0597 H   0  0  0  0  0  0  0  0  0  0  0  0
  1  3  1  0  0  0  0
  1  5  1  0  0  0  0
  1  8  2  0  0  0  0
  2  6  1  0  0  0  0
  2  9  1  0  0  0  0
  2 12  2  0  0  0  0
  3 11  1  0  0  0  0
  3 13  2  0  0  0  0
  4  7  1  0  0  0  0
  4 10  1  0  0  0  0
  4 14  2  0  0  0  0
  5  6  1  0  0  0  0
  7 11  1  0  0  0  0
  8  9  1  0  0  0  0
  5 15  1  0  0  0  0
  5 16  1  0  0  0  0
  6 17  1  0  0  0  0
  6 18  1  0  0  0  0
  7 19  1  0  0  0  0
  7 20  1  0  0  0  0
  9 21  1  0  0  0  0
 10 22  1  0  0  0  0
 10 23  1  0  0  0  0
 11 24  1  0  0  0  0
M  END
> <FRED Chemgauss4 score>
-9.114890

$$$$
C97361815	P154194864
  -OEChem-05122015313D

 36 37  0     1  0  0  0  0  0999 V2000
  122.5337  104.2762  105.5126 C   0  0  0  0  0  0  0  0  0  0  0  0
  120.6320  104.7923  107.4875 C   0  0  0  0  0  0  0  0  0  0  0  0
  122.9361  104.4760  106.8330 C   0  0  0  0  0  0  0  0  0  0  0  0
  121.9854  104.7340  107.8205 C   0  0  0  0  0  0  0  0  0  0  0  0
  121.1804  104.3346  105.1795 C   0  0  0  0  0  0  0  0  0  0  0  0
  120.2296  104.5926  106.1669 C   0  0  0  0  0  0  0  0  0  0  0  0
  126.5022  107.4552  107.0178 C   0  0  0  0  0  0  0  0  0  0  0  0
  124.1422  107.3418  106.1685 C   0  0  0  0  0  0  0  0  0  0  0  0
  126.0271  108.5331  107.9857 C   0  0  0  0  0  0  0  0  0  0  0  0
  123.8000  108.4265  107.1839 C   0  0  0  0  0  0  0  0  0  0  0  0
  125.3642  106.5176  106.5941 C   0  0  0  0  0  0  0  0  0  0  0  0
  125.0393  103.1591  106.8820 C   0  0  0  0  0  0  0  0  0  0  0  0
  125.0135  105.5205  107.7014 C   0  0  0  0  0  0  0  0  0  0  0  0
  122.3714  104.9380  109.1645 N   0  0  0  0  0  0  0  0  0  0  0  0
  124.3110  104.4115  107.1484 N   0  0  3  0  0  0  0  0  0  0  0  0
  124.9301  109.2604  107.4347 O   0  0  0  0  0  0  0  0  0  0  0  0
  120.8089  104.1404  103.9060 F   0  0  0  0  0  0  0  0  0  0  0  0
  118.5576  104.6620  105.7625 Cl  0  0  0  0  0  0  0  0  0  0  0  0
  123.2652  104.0748  104.7342 H   0  0  0  0  0  0  0  0  0  0  0  0
  119.8928  104.9939  108.2598 H   0  0  0  0  0  0  0  0  0  0  0  0
  126.9627  107.9237  106.1332 H   0  0  0  0  0  0  0  0  0  0  0  0
  127.2922  106.8619  107.5091 H   0  0  0  0  0  0  0  0  0  0  0  0
  123.2741  106.6693  106.0625 H   0  0  0  0  0  0  0  0  0  0  0  0
  124.3125  107.7966  105.1795 H   0  0  0  0  0  0  0  0  0  0  0  0
  125.6866  108.0711  108.9178 H   0  0  0  0  0  0  0  0  0  0  0  0
  126.8369  109.2280  108.2373 H   0  0  0  0  0  0  0  0  0  0  0  0
  122.9602  109.0424  106.8411 H   0  0  0  0  0  0  0  0  0  0  0  0
  123.5067  107.9671  108.1333 H   0  0  0  0  0  0  0  0  0  0  0  0
  125.7070  105.9392  105.7187 H   0  0  0  0  0  0  0  0  0  0  0  0
  126.0867  103.2635  107.1769 H   0  0  0  0  0  0  0  0  0  0  0  0
  124.9962  102.9159  105.8168 H   0  0  0  0  0  0  0  0  0  0  0  0
  124.5950  102.3357  107.4476 H   0  0  0  0  0  0  0  0  0  0  0  0
  124.3843  106.0158  108.4296 H   0  0  0  0  0  0  0  0  0  0  0  0
  125.9271  105.1707  108.1636 H   0  0  0  0  0  0  0  0  0  0  0  0
  121.6728  105.1665  109.8406 H   0  0  0  0  0  0  0  0  0  0  0  0
  123.3432  104.9431  109.3944 H   0  0  0  0  0  0  0  0  0  0  0  0
  1  3  1  0  0  0  0
  1  5  2  0  0  0  0
  2  4  1  0  0  0  0
  2  6  2  0  0  0  0
  3  4  2  0  0  0  0
  3 15  1  0  0  0  0
  4 14  1  0  0  0  0
  5  6  1  0  0  0  0
  5 17  1  0  0  0  0
  6 18  1  0  0  0  0
  7  9  1  0  0  0  0
  7 11  1  0  0  0  0
  8 10  1  0  0  0  0
  8 11  1  0  0  0  0
  9 16  1  0  0  0  0
 10 16  1  0  0  0  0
 11 13  1  0  0  0  0
 12 15  1  0  0  0  0
 13 15  1  0  0  0  0
  1 19  1  0  0  0  0
  2 20  1  0  0  0  0
  7 21  1  0  0  0  0
  7 22  1  0  0  0  0
  8 23  1  0  0  0  0
  8 24  1  0  0  0  0
  9 25  1  0  0  0  0
  9 26  1  0  0  0  0
 10 27  1  0  0  0  0
 10 28  1  0  0  0  0
 11 29  1  0  0  0  0
 12 30  1  0  0  0  0
 12 31  1  0  0  0  0
 12 32  1  0  0  0  0
 13 33  1  0  0  0  0
 13 34  1  0  0  0  0
 14 35  1  0  0  0  0
 14 36  1  0  0  0  0
M  END
> <FRED Chemgauss4 score>
-9.108633

$$$$
C42294727	P63999288
  -OEChem-05122015313D

 28 28  0     1  0  0  0  0  0999 V2000
  123.1544  106.0893  106.6792 C   0  0  0  0  0  0  0  0  0  0  0  0
  126.5495  108.0657  107.3456 C   0  0  0  0  0  0  0  0  0  0  0  0
  125.3620  103.7785  107.8619 C   0  0  0  0  0  0  0  0  0  0  0  0
  124.8127  104.2287  106.5154 C   0  0  0  0  0  0  0  0  0  0  0  0
  125.1085  104.9521  108.7894 C   0  0  0  0  0  0  0  0  0  0  0  0
  124.6114  105.7367  106.6397 C   0  0  2  0  0  0  0  0  0  0  0  0
  121.5280  107.7270  107.6041 C   0  0  0  0  0  0  0  0  0  0  0  0
  126.5505  106.6196  107.7847 C   0  0  0  0  0  0  0  0  0  0  0  0
  125.1725  106.1483  107.9358 N   0  0  2  0  0  0  0  0  0  0  0  0
  127.1792  108.8893  108.2539 N   0  0  0  0  0  0  0  0  0  0  0  0
  122.8672  107.2108  107.4337 N   0  0  0  0  0  0  0  0  0  0  0  0
  122.3484  105.3967  106.0690 O   0  0  0  0  0  0  0  0  0  0  0  0
  126.0825  108.4580  106.2798 O   0  0  0  0  0  0  0  0  0  0  0  0
  124.8147  102.8880  108.2112 H   0  0  0  0  0  0  0  0  0  0  0  0
  126.4267  103.5105  107.8058 H   0  0  0  0  0  0  0  0  0  0  0  0
  125.5607  104.0217  105.7361 H   0  0  0  0  0  0  0  0  0  0  0  0
  123.9028  103.6718  106.2541 H   0  0  0  0  0  0  0  0  0  0  0  0
  124.1259  104.8650  109.2934 H   0  0  0  0  0  0  0  0  0  0  0  0
  125.8822  104.9805  109.5853 H   0  0  0  0  0  0  0  0  0  0  0  0
  125.0727  106.2560  105.7859 H   0  0  0  0  0  0  0  0  0  0  0  0
  121.3016  108.4514  106.8174 H   0  0  0  0  0  0  0  0  0  0  0  0
  121.4340  108.2209  108.5750 H   0  0  0  0  0  0  0  0  0  0  0  0
  120.7998  106.9130  107.5530 H   0  0  0  0  0  0  0  0  0  0  0  0
  127.0554  106.5042  108.7476 H   0  0  0  0  0  0  0  0  0  0  0  0
  127.0474  106.0077  107.0270 H   0  0  0  0  0  0  0  0  0  0  0  0
  127.5819  108.5140  109.1062 H   0  0  0  0  0  0  0  0  0  0  0  0
  127.2668  109.8903  108.1106 H   0  0  0  0  0  0  0  0  0  0  0  0
  123.6339  107.6956  107.8904 H   0  0  0  0  0  0  0  0  0  0  0  0
  1  6  1  0  0  0  0
  1 11  1  0  0  0  0
  1 12  2  0  0  0  0
  2  8  1  0  0  0  0
  2 10  1  0  0  0  0
  2 13  2  0  0  0  0
  3  4  1  0  0  0  0
  3  5  1  0  0  0  0
  4  6  1  0  0  0  0
  5  9  1  0  0  0  0
  6  9  1  0  0  0  0
  7 11  1  0  0  0  0
  8  9  1  0  0  0  0
  3 14  1  0  0  0  0
  3 15  1  0  0  0  0
  4 16  1  0  0  0  0
  4 17  1  0  0  0  0
  5 18  1  0  0  0  0
  5 19  1  0  0  0  0
  6 20  1  0  0  0  0
  7 21  1  0  0  0  0
  7 22  1  0  0  0  0
  7 23  1  0  0  0  0
  8 24  1  0  0  0  0
  8 25  1  0  0  0  0
 10 26  1  0  0  0  0
 10 27  1  0  0  0  0
 11 28  1  0  0  0  0
M  END
> <FRED Chemgauss4 score>
-9.107533

$$$$
C87518688	P136898546
  -OEChem-05122015313D

 35 36  0     1  0  0  0  0  0999 V2000
  118.0738  105.8887  104.0203 C   0  0  0  0  0  0  0  0  0  0  0  0
  119.9512  104.9953  104.6624 C   0  0  0  0  0  0  0  0  0  0  0  0
  121.7978  105.4007  107.4494 C   0  0  0  0  0  0  0  0  0  0  0  0
  122.9755  105.8245  108.3219 C   0  0  0  0  0  0  0  0  0  0  0  0
  123.6859  106.1654  106.0351 C   0  0  2  0  0  0  0  0  0  0  0  0
  122.1622  105.8673  106.0335 C   0  0  1  0  0  0  0  0  0  0  0  0
  124.2009  105.6477  107.4116 C   0  0  0  0  0  0  0  0  0  0  0  0
  124.5947  104.1580  107.3131 C   0  0  0  0  0  0  0  0  0  0  0  0
  125.4168  106.4069  107.9641 C   0  0  0  0  0  0  0  0  0  0  0  0
  117.2944  108.2495  103.6951 C   0  0  0  0  0  0  0  0  0  0  0  0
  117.2368  106.7944  103.2145 C   0  0  0  0  0  0  0  0  0  0  0  0
  119.4454  105.8797  103.8312 N   0  0  0  0  0  0  0  0  0  0  0  0
  117.5039  105.0896  104.9221 N   0  0  0  0  0  0  0  0  0  0  0  0
  123.8692  107.6147  105.8772 N   0  0  0  0  0  0  0  0  0  0  0  0
  118.7548  104.2267  105.6229 S   0  0  0  0  0  0  0  0  0  0  0  0
  121.6794  104.6488  104.7654 S   0  0  0  0  0  0  0  0  0  0  0  0
  121.6268  104.3264  107.5383 H   0  0  0  0  0  0  0  0  0  0  0  0
  120.8864  105.9072  107.7777 H   0  0  0  0  0  0  0  0  0  0  0  0
  122.8620  106.8422  108.6948 H   0  0  0  0  0  0  0  0  0  0  0  0
  123.0392  105.1551  109.1836 H   0  0  0  0  0  0  0  0  0  0  0  0
  124.1771  105.6680  105.2352 H   0  0  0  0  0  0  0  0  0  0  0  0
  121.5926  106.7933  105.8078 H   0  0  0  0  0  0  0  0  0  0  0  0
  125.4618  104.0534  106.6662 H   0  0  0  0  0  0  0  0  0  0  0  0
  123.7656  103.5895  106.9003 H   0  0  0  0  0  0  0  0  0  0  0  0
  124.8349  103.7794  108.3032 H   0  0  0  0  0  0  0  0  0  0  0  0
  126.2596  106.2598  107.2983 H   0  0  0  0  0  0  0  0  0  0  0  0
  125.6560  106.0246  108.9499 H   0  0  0  0  0  0  0  0  0  0  0  0
  125.1777  107.4624  108.0269 H   0  0  0  0  0  0  0  0  0  0  0  0
  117.0098  108.3203  104.7504 H   0  0  0  0  0  0  0  0  0  0  0  0
  116.6176  108.8872  103.1179 H   0  0  0  0  0  0  0  0  0  0  0  0
  118.3084  108.6510  103.5930 H   0  0  0  0  0  0  0  0  0  0  0  0
  117.5313  106.7705  102.1462 H   0  0  0  0  0  0  0  0  0  0  0  0
  116.1767  106.4706  103.2161 H   0  0  0  0  0  0  0  0  0  0  0  0
  123.2506  108.1052  105.2659 H   0  0  0  0  0  0  0  0  0  0  0  0
  124.7150  108.0234  106.2159 H   0  0  0  0  0  0  0  0  0  0  0  0
  1 11  1  0  0  0  0
  1 12  1  0  0  0  0
  1 13  2  0  0  0  0
  2 12  2  0  0  0  0
  2 15  1  0  0  0  0
  2 16  1  0  0  0  0
  3  4  1  0  0  0  0
  3  6  1  0  0  0  0
  4  7  1  0  0  0  0
  5  6  1  0  0  0  0
  5  7  1  0  0  0  0
  5 14  1  0  0  0  0
  6 16  1  0  0  0  0
  7  8  1  0  0  0  0
  7  9  1  0  0  0  0
 10 11  1  0  0  0  0
 13 15  1  0  0  0  0
  3 17  1  0  0  0  0
  3 18  1  0  0  0  0
  4 19  1  0  0  0  0
  4 20  1  0  0  0  0
  5 21  1  0  0  0  0
  6 22  1  0  0  0  0
  8 23  1  0  0  0  0
  8 24  1  0  0  0  0
  8 25  1  0  0  0  0
  9 26  1  0  0  0  0
  9 27  1  0  0  0  0
  9 28  1  0  0  0  0
 10 29  1  0  0  0  0
 10 30  1  0  0  0  0
 10 31  1  0  0  0  0
 11 32  1  0  0  0  0
 11 33  1  0  0  0  0
 14 34  1  0  0  0  0
 14 35  1  0  0  0  0
M  END
> <FRED Chemgauss4 score>
-9.103728

$$$$
C00162133	P05572005
  -OEChem-05122015313D

 28 28  0     1  0  0  0  0  0999 V2000
  125.0935  107.7220  105.8428 C   0  0  0  0  0  0  0  0  0  0  0  0
  122.6257  108.2269  107.3078 C   0  0  0  0  0  0  0  0  0  0  0  0
  124.1363  106.5904  106.1605 C   0  0  1  0  0  0  0  0  0  0  0  0
  123.8334  109.1241  107.4930 C   0  0  1  0  0  0  0  0  0  0  0  0
  124.7038  105.6179  107.1812 C   0  0  0  0  0  0  0  0  0  0  0  0
  124.4602  108.9795  108.8699 C   0  0  0  0  0  0  0  0  0  0  0  0
  124.0262  104.2592  107.1029 C   0  0  0  0  0  0  0  0  0  0  0  0
  123.4658  109.2889  109.9774 C   0  0  0  0  0  0  0  0  0  0  0  0
  122.8331  107.1020  106.5422 N   0  0  0  0  0  0  0  0  0  0  0  0
  124.7928  108.9346  106.4209 N   0  0  0  0  0  0  0  0  0  0  0  0
  126.1037  107.5377  105.1636 O   0  0  0  0  0  0  0  0  0  0  0  0
  121.5545  108.4682  107.8644 O   0  0  0  0  0  0  0  0  0  0  0  0
  122.6355  104.4270  107.3408 O   0  0  0  0  0  0  0  0  0  0  0  0
  122.9990  110.6209  109.8144 O   0  0  0  0  0  0  0  0  0  0  0  0
  123.9803  106.0137  105.1930 H   0  0  0  0  0  0  0  0  0  0  0  0
  123.4616  110.1948  107.4007 H   0  0  0  0  0  0  0  0  0  0  0  0
  124.5883  106.0306  108.1898 H   0  0  0  0  0  0  0  0  0  0  0  0
  125.7821  105.5025  107.0232 H   0  0  0  0  0  0  0  0  0  0  0  0
  125.3261  109.6459  108.9543 H   0  0  0  0  0  0  0  0  0  0  0  0
  124.8481  107.9623  108.9953 H   0  0  0  0  0  0  0  0  0  0  0  0
  124.1588  103.8121  106.1125 H   0  0  0  0  0  0  0  0  0  0  0  0
  124.4290  103.5770  107.8583 H   0  0  0  0  0  0  0  0  0  0  0  0
  122.6073  108.6110  109.9333 H   0  0  0  0  0  0  0  0  0  0  0  0
  123.9370  109.2029  110.9617 H   0  0  0  0  0  0  0  0  0  0  0  0
  121.9974  106.5809  106.2132 H   0  0  0  0  0  0  0  0  0  0  0  0
  125.2876  109.7753  106.0649 H   0  0  0  0  0  0  0  0  0  0  0  0
  122.2328  103.5452  107.2843 H   0  0  0  0  0  0  0  0  0  0  0  0
  122.3684  110.7873  110.5338 H   0  0  0  0  0  0  0  0  0  0  0  0
  1  3  1  0  0  0  0
  1 10  1  0  0  0  0
  1 11  2  0  0  0  0
  2  4  1  0  0  0  0
  2  9  1  0  0  0  0
  2 12  2  0  0  0  0
  3  5  1  0  0  0  0
  3  9  1  0  0  0  0
  4  6  1  0  0  0  0
  4 10  1  0  0  0  0
  5  7  1  0  0  0  0
  6  8  1  0  0  0  0
  7 13  1  0  0  0  0
  8 14  1  0  0  0  0
  3 15  1  0  0  0  0
  4 16  1  0  0  0  0
  5 17  1  0  0  0  0
  5 18  1  0  0  0  0
  6 19  1  0  0  0  0
  6 20  1  0  0  0  0
  7 21  1  0  0  0  0
  7 22  1  0  0  0  0
  8 23  1  0  0  0  0
  8 24  1  0  0  0  0
  9 25  1  0  0  0  0
 10 26  1  0  0  0  0
 13 27  1  0  0  0  0
 14 28  1  0  0  0  0
M  END
> <FRED Chemgauss4 score>
-9.102848

$$$$
C82838441	P129490404
  -OEChem-05122015313D

 21 21  0     1  0  0  0  0  0999 V2000
  123.7260  107.2173  108.9248 C   0  0  0  0  0  0  0  0  0  0  0  0
  123.0976  109.1876  109.6859 C   0  0  0  0  0  0  0  0  0  0  0  0
  124.5160  108.2251  108.4241 C   0  0  0  0  0  0  0  0  0  0  0  0
  125.7700  105.5865  106.9634 C   0  0  0  0  0  0  0  0  0  0  0  0
  125.6889  108.1120  107.4711 C   0  0  2  0  0  0  0  0  0  0  0  0
  126.4549  106.7815  107.6252 C   0  0  1  0  0  0  0  0  0  0  0  0
  124.1198  109.4492  108.9019 N   0  0  0  0  0  0  0  0  0  0  0  0
  122.8223  107.8492  109.7318 N   0  0  0  0  0  0  0  0  0  0  0  0
  126.6575  106.5034  109.0320 N   0  0  0  0  0  0  0  0  0  0  0  0
  126.5748  109.2194  107.6336 O   0  0  0  0  0  0  0  0  0  0  0  0
  123.7219  106.1454  108.7881 H   0  0  0  0  0  0  0  0  0  0  0  0
  122.5201  109.9123  110.2424 H   0  0  0  0  0  0  0  0  0  0  0  0
  124.7580  105.4390  107.3512 H   0  0  0  0  0  0  0  0  0  0  0  0
  126.3346  104.6670  107.1561 H   0  0  0  0  0  0  0  0  0  0  0  0
  125.7100  105.7052  105.8763 H   0  0  0  0  0  0  0  0  0  0  0  0
  125.2934  108.1933  106.4497 H   0  0  0  0  0  0  0  0  0  0  0  0
  127.4614  106.8831  107.2015 H   0  0  0  0  0  0  0  0  0  0  0  0
  122.0846  107.4082  110.2645 H   0  0  0  0  0  0  0  0  0  0  0  0
  126.8121  107.2720  109.6570 H   0  0  0  0  0  0  0  0  0  0  0  0
  126.8407  105.5587  109.3140 H   0  0  0  0  0  0  0  0  0  0  0  0
  127.2970  109.0877  107.0009 H   0  0  0  0  0  0  0  0  0  0  0  0
  1  3  2  0  0  0  0
  1  8  1  0  0  0  0
  2  7  2  0  0  0  0
  2  8  1  0  0  0  0
  3  5  1  0  0  0  0
  3  7  1  0  0  0  0
  4  6  1  0  0  0  0
  5  6  1  0  0  0  0
  5 10  1  0  0  0  0
  6  9  1  0  0  0  0
  1 11  1  0  0  0  0
  2 12  1  0  0  0  0
  4 13  1  0  0  0  0
  4 14  1  0  0  0  0
  4 15  1  0  0  0  0
  5 16  1  0  0  0  0
  6 17  1  0  0  0  0
  8 18  1  0  0  0  0
  9 19  1  0  0  0  0
  9 20  1  0  0  0  0
 10 21  1  0  0  0  0
M  END
> <FRED Chemgauss4 score>
-9.102444

$$$$
C91299939	P142817028
  -OEChem-05122015313D

 47 48  0     1  0  0  0  0  0999 V2000
  122.1771  104.8561  106.8108 C   0  0  0  0  0  0  0  0  0  0  0  0
  115.9997  106.1034  104.1577 C   0  0  0  0  0  0  0  0  0  0  0  0
  120.3731  103.9871  104.4986 C   0  0  0  0  0  0  0  0  0  0  0  0
  119.1569  104.4241  106.6474 C   0  0  0  0  0  0  0  0  0  0  0  0
  119.0218  103.9883  103.7818 C   0  0  0  0  0  0  0  0  0  0  0  0
  117.8459  104.4121  105.8595 C   0  0  0  0  0  0  0  0  0  0  0  0
  126.7425  107.3076  107.6637 C   0  0  0  0  0  0  0  0  0  0  0  0
  125.2913  105.8219  108.8694 C   0  0  0  0  0  0  0  0  0  0  0  0
  125.6977  107.3939  106.5582 C   0  0  0  0  0  0  0  0  0  0  0  0
  120.2241  103.5710  105.9623 C   0  0  0  0  0  0  0  0  0  0  0  0
  124.2646  105.9407  107.7398 C   0  0  2  0  0  0  0  0  0  0  0  0
  113.6421  106.8726  104.4102 C   0  0  0  0  0  0  0  0  0  0  0  0
  123.4644  104.6544  107.5888 C   0  0  0  0  0  0  0  0  0  0  0  0
  116.7860  104.8842  103.7485 C   0  0  0  0  0  0  0  0  0  0  0  0
  126.0974  107.0423  108.9504 N   0  0  0  0  0  0  0  0  0  0  0  0
  118.0561  104.8532  104.4736 N   0  0  0  0  0  0  0  0  0  0  0  0
  121.4825  103.6653  106.6594 N   0  0  0  0  0  0  0  0  0  0  0  0
  114.6335  105.8761  104.0743 N   0  0  0  0  0  0  0  0  0  0  0  0
  121.8159  105.9483  106.3812 O   0  0  0  0  0  0  0  0  0  0  0  0
  116.5222  107.1547  104.5187 O   0  0  0  0  0  0  0  0  0  0  0  0
  124.9362  106.1867  106.4983 O   0  0  0  0  0  0  0  0  0  0  0  0
  121.0439  103.2844  103.9938 H   0  0  0  0  0  0  0  0  0  0  0  0
  120.8271  104.9789  104.4245 H   0  0  0  0  0  0  0  0  0  0  0  0
  119.5035  105.4546  106.7642 H   0  0  0  0  0  0  0  0  0  0  0  0
  118.9728  104.0281  107.6515 H   0  0  0  0  0  0  0  0  0  0  0  0
  119.1520  104.3034  102.7381 H   0  0  0  0  0  0  0  0  0  0  0  0
  118.6463  102.9577  103.7632 H   0  0  0  0  0  0  0  0  0  0  0  0
  117.4557  103.3867  105.8647 H   0  0  0  0  0  0  0  0  0  0  0  0
  117.1011  105.0430  106.3625 H   0  0  0  0  0  0  0  0  0  0  0  0
  127.4588  106.5068  107.4432 H   0  0  0  0  0  0  0  0  0  0  0  0
  127.3003  108.2478  107.7225 H   0  0  0  0  0  0  0  0  0  0  0  0
  124.7812  105.6651  109.8260 H   0  0  0  0  0  0  0  0  0  0  0  0
  125.9533  104.9631  108.7013 H   0  0  0  0  0  0  0  0  0  0  0  0
  125.0219  108.2453  106.7051 H   0  0  0  0  0  0  0  0  0  0  0  0
  126.1899  107.5254  105.5895 H   0  0  0  0  0  0  0  0  0  0  0  0
  119.9356  102.5159  106.0143 H   0  0  0  0  0  0  0  0  0  0  0  0
  123.5670  106.7655  107.9346 H   0  0  0  0  0  0  0  0  0  0  0  0
  113.3802  106.8001  105.4690 H   0  0  0  0  0  0  0  0  0  0  0  0
  112.7384  106.7230  103.8131 H   0  0  0  0  0  0  0  0  0  0  0  0
  114.0313  107.8749  104.2117 H   0  0  0  0  0  0  0  0  0  0  0  0
  123.2125  104.2602  108.5800 H   0  0  0  0  0  0  0  0  0  0  0  0
  124.0707  103.9038  107.0693 H   0  0  0  0  0  0  0  0  0  0  0  0
  116.2148  103.9813  103.9839 H   0  0  0  0  0  0  0  0  0  0  0  0
  116.9868  104.9158  102.6737 H   0  0  0  0  0  0  0  0  0  0  0  0
  126.8099  106.9313  109.6712 H   0  0  0  0  0  0  0  0  0  0  0  0
  121.8791  102.8198  107.0585 H   0  0  0  0  0  0  0  0  0  0  0  0
  114.3142  104.9639  103.7616 H   0  0  0  0  0  0  0  0  0  0  0  0
  1 13  1  0  0  0  0
  1 17  1  0  0  0  0
  1 19  2  0  0  0  0
  2 14  1  0  0  0  0
  2 18  1  0  0  0  0
  2 20  2  0  0  0  0
  3  5  1  0  0  0  0
  3 10  1  0  0  0  0
  4  6  1  0  0  0  0
  4 10  1  0  0  0  0
  5 16  1  0  0  0  0
  6 16  1  0  0  0  0
  7  9  1  0  0  0  0
  7 15  1  0  0  0  0
  8 11  1  0  0  0  0
  8 15  1  0  0  0  0
  9 21  1  0  0  0  0
 10 17  1  0  0  0  0
 11 13  1  0  0  0  0
 11 21  1  0  0  0  0
 12 18  1  0  0  0  0
 14 16  1  0  0  0  0
  3 22  1  0  0  0  0
  3 23  1  0  0  0  0
  4 24  1  0  0  0  0
  4 25  1  0  0  0  0
  5 26  1  0  0  0  0
  5 27  1  0  0  0  0
  6 28  1  0  0  0  0
  6 29  1  0  0  0  0
  7 30  1  0  0  0  0
  7 31  1  0  0  0  0
  8 32  1  0  0  0  0
  8 33  1  0  0  0  0
  9 34  1  0  0  0  0
  9 35  1  0  0  0  0
 10 36  1  0  0  0  0
 11 37  1  0  0  0  0
 12 38  1  0  0  0  0
 12 39  1  0  0  0  0
 12 40  1  0  0  0  0
 13 41  1  0  0  0  0
 13 42  1  0  0  0  0
 14 43  1  0  0  0  0
 14 44  1  0  0  0  0
 15 45  1  0  0  0  0
 17 46  1  0  0  0  0
 18 47  1  0  0  0  0
M  END
> <FRED Chemgauss4 score>
-9.099093

$$$$
L-Glutamine	P10000020
  -OEChem-05122015313D

 20 19  0     1  0  0  0  0  0999 V2000
  126.6961  107.7350  107.3326 C   0  0  0  0  0  0  0  0  0  0  0  0
  123.6824  108.2808  107.1490 C   0  0  0  0  0  0  0  0  0  0  0  0
  126.2849  106.5040  108.1171 C   0  0  0  0  0  0  0  0  0  0  0  0
  124.8462  106.0774  107.8175 C   0  0  0  0  0  0  0  0  0  0  0  0
  123.8311  107.1619  108.1917 C   0  0  2  0  0  0  0  0  0  0  0  0
  127.0532  108.7835  108.1534 N   0  0  0  0  0  0  0  0  0  0  0  0
  122.5258  106.4679  108.4338 N   0  3  0  0  0  0  0  0  0  0  0  0
  123.3812  107.9128  105.9796 O   0  5  0  0  0  0  0  0  0  0  0  0
  126.7122  107.7931  106.1066 O   0  0  0  0  0  0  0  0  0  0  0  0
  123.8979  109.4444  107.5945 O   0  0  0  0  0  0  0  0  0  0  0  0
  126.9850  105.6980  107.8700 H   0  0  0  0  0  0  0  0  0  0  0  0
  126.3925  106.7281  109.1852 H   0  0  0  0  0  0  0  0  0  0  0  0
  124.7626  105.8509  106.7460 H   0  0  0  0  0  0  0  0  0  0  0  0
  124.6238  105.1405  108.3447 H   0  0  0  0  0  0  0  0  0  0  0  0
  124.1057  107.6014  109.1582 H   0  0  0  0  0  0  0  0  0  0  0  0
  127.0139  108.6532  109.1589 H   0  0  0  0  0  0  0  0  0  0  0  0
  127.3540  109.6812  107.7875 H   0  0  0  0  0  0  0  0  0  0  0  0
  121.7537  107.1300  108.3502 H   0  0  0  0  0  0  0  0  0  0  0  0
  122.5107  106.0635  109.3708 H   0  0  0  0  0  0  0  0  0  0  0  0
  122.3922  105.7205  107.7518 H   0  0  0  0  0  0  0  0  0  0  0  0
  1  3  1  0  0  0  0
  1  6  1  0  0  0  0
  1  9  2  0  0  0  0
  2  5  1  0  0  0  0
  2  8  1  0  0  0  0
  2 10  2  0  0  0  0
  3  4  1  0  0  0  0
  4  5  1  0  0  0  0
  5  7  1  0  0  0  0
  3 11  1  0  0  0  0
  3 12  1  0  0  0  0
  4 13  1  0  0  0  0
  4 14  1  0  0  0  0
  5 15  1  0  0  0  0
  6 16  1  0  0  0  0
  6 17  1  0  0  0  0
  7 18  1  0  0  0  0
  7 19  1  0  0  0  0
  7 20  1  0  0  0  0
M  CHG  2   7   1   8  -1
M  END
> <FRED Chemgauss4 score>
-9.095451

$$$$
C84143509	P131667660
  -OEChem-05122015313D

 36 38  0     0  0  0  0  0  0999 V2000
  120.9657  104.0051  106.5332 C   0  0  0  0  0  0  0  0  0  0  0  0
  119.7292  104.1432  105.8939 C   0  0  0  0  0  0  0  0  0  0  0  0
  120.4616  106.1668  104.7551 C   0  0  0  0  0  0  0  0  0  0  0  0
  121.7096  106.0436  105.3888 C   0  0  0  0  0  0  0  0  0  0  0  0
  121.9286  104.9755  106.2542 C   0  0  0  0  0  0  0  0  0  0  0  0
  119.4795  105.2041  105.0202 C   0  0  0  0  0  0  0  0  0  0  0  0
  123.7113  106.2760  106.0949 C   0  0  0  0  0  0  0  0  0  0  0  0
  125.2866  103.6539  107.2747 C   0  0  0  0  0  0  0  0  0  0  0  0
  124.0804  102.7746  107.3816 C   0  0  0  0  0  0  0  0  0  0  0  0
  123.9545  104.2543  107.6586 C   0  0  0  0  0  0  0  0  0  0  0  0
  124.4529  109.1521  106.7742 C   0  0  0  0  0  0  0  0  0  0  0  0
  124.6904  107.6144  108.7263 C   0  0  0  0  0  0  0  0  0  0  0  0
  125.1167  106.7722  106.3500 C   0  0  0  0  0  0  0  0  0  0  0  0
  125.2475  107.9620  107.3378 C   0  0  0  0  0  0  0  0  0  0  0  0
  122.8281  106.8405  105.3024 N   0  0  0  0  0  0  0  0  0  0  0  0
  123.2169  105.1494  106.6910 N   0  0  0  0  0  0  0  0  0  0  0  0
  126.6366  108.3691  107.4675 N   0  0  0  0  0  0  0  0  0  0  0  0
  117.9414  105.3320  104.2533 Cl  0  0  0  0  0  0  0  0  0  0  0  0
  121.1581  103.1811  107.2109 H   0  0  0  0  0  0  0  0  0  0  0  0
  118.9579  103.4010  106.0901 H   0  0  0  0  0  0  0  0  0  0  0  0
  120.2718  106.9932  104.0766 H   0  0  0  0  0  0  0  0  0  0  0  0
  126.0427  103.5705  108.0459 H   0  0  0  0  0  0  0  0  0  0  0  0
  125.6767  103.8544  106.2842 H   0  0  0  0  0  0  0  0  0  0  0  0
  123.6597  102.3831  106.4634 H   0  0  0  0  0  0  0  0  0  0  0  0
  124.0213  102.0985  108.2259 H   0  0  0  0  0  0  0  0  0  0  0  0
  123.8123  104.5727  108.6687 H   0  0  0  0  0  0  0  0  0  0  0  0
  124.8167  109.4370  105.7800 H   0  0  0  0  0  0  0  0  0  0  0  0
  124.5320  110.0292  107.4260 H   0  0  0  0  0  0  0  0  0  0  0  0
  123.3902  108.9038  106.6693 H   0  0  0  0  0  0  0  0  0  0  0  0
  125.2268  106.7688  109.1704 H   0  0  0  0  0  0  0  0  0  0  0  0
  123.6295  107.3429  108.6674 H   0  0  0  0  0  0  0  0  0  0  0  0
  124.7567  108.4640  109.4146 H   0  0  0  0  0  0  0  0  0  0  0  0
  125.5689  107.0448  105.3862 H   0  0  0  0  0  0  0  0  0  0  0  0
  125.7123  105.9229  106.7144 H   0  0  0  0  0  0  0  0  0  0  0  0
  126.9100  108.8749  108.2860 H   0  0  0  0  0  0  0  0  0  0  0  0
  127.2255  108.3159  106.6607 H   0  0  0  0  0  0  0  0  0  0  0  0
  1  2  2  0  0  0  0
  1  5  1  0  0  0  0
  2  6  1  0  0  0  0
  3  4  1  0  0  0  0
  3  6  2  0  0  0  0
  4  5  2  0  0  0  0
  4 15  1  0  0  0  0
  5 16  1  0  0  0  0
  6 18  1  0  0  0  0
  7 13  1  0  0  0  0
  7 15  2  0  0  0  0
  7 16  1  0  0  0  0
  8  9  1  0  0  0  0
  8 10  1  0  0  0  0
  9 10  1  0  0  0  0
 10 16  1  0  0  0  0
 11 14  1  0  0  0  0
 12 14  1  0  0  0  0
 13 14  1  0  0  0  0
 14 17  1  0  0  0  0
  1 19  1  0  0  0  0
  2 20  1  0  0  0  0
  3 21  1  0  0  0  0
  8 22  1  0  0  0  0
  8 23  1  0  0  0  0
  9 24  1  0  0  0  0
  9 25  1  0  0  0  0
 10 26  1  0  0  0  0
 11 27  1  0  0  0  0
 11 28  1  0  0  0  0
 11 29  1  0  0  0  0
 12 30  1  0  0  0  0
 12 31  1  0  0  0  0
 12 32  1  0  0  0  0
 13 33  1  0  0  0  0
 13 34  1  0  0  0  0
 17 35  1  0  0  0  0
 17 36  1  0  0  0  0
M  END
> <FRED Chemgauss4 score>
-9.094781

$$$$
C03672342	P06747335
  -OEChem-05122015313D

 29 29  0     0  0  0  0  0  0999 V2000
  125.1246  109.0545  107.9897 C   0  0  0  0  0  0  0  0  0  0  0  0
  125.0561  107.9558  108.8137 C   0  0  0  0  0  0  0  0  0  0  0  0
  125.5566  107.3824  106.7455 C   0  0  0  0  0  0  0  0  0  0  0  0
  120.0285  103.7054  106.6982 C   0  0  0  0  0  0  0  0  0  0  0  0
  121.2839  104.5042  106.8702 C   0  0  0  0  0  0  0  0  0  0  0  0
  117.5668  103.9434  106.5429 C   0  0  0  0  0  0  0  0  0  0  0  0
  124.1272  104.7271  107.9871 C   0  0  0  0  0  0  0  0  0  0  0  0
  125.3867  105.4893  108.4033 C   0  0  0  0  0  0  0  0  0  0  0  0
  122.8617  105.3164  108.6000 C   0  0  0  0  0  0  0  0  0  0  0  0
  125.4363  108.6907  106.7036 N   0  0  0  0  0  0  0  0  0  0  0  0
  125.3346  106.8921  108.0024 N   0  0  0  0  0  0  0  0  0  0  0  0
  118.8946  104.4852  106.7137 N   0  0  0  0  0  0  0  0  0  0  0  0
  121.6711  104.6114  108.1864 N   0  0  0  0  0  0  0  0  0  0  0  0
  120.1346  102.4985  106.5495 O   0  0  0  0  0  0  0  0  0  0  0  0
  121.8222  104.9458  105.8677 O   0  0  0  0  0  0  0  0  0  0  0  0
  124.9654  110.0888  108.2573 H   0  0  0  0  0  0  0  0  0  0  0  0
  124.8411  107.8437  109.8672 H   0  0  0  0  0  0  0  0  0  0  0  0
  125.7996  106.7434  105.9075 H   0  0  0  0  0  0  0  0  0  0  0  0
  117.2982  103.9342  105.4834 H   0  0  0  0  0  0  0  0  0  0  0  0
  116.8379  104.5513  107.0856 H   0  0  0  0  0  0  0  0  0  0  0  0
  117.5240  102.9201  106.9256 H   0  0  0  0  0  0  0  0  0  0  0  0
  124.2213  103.6711  108.2703 H   0  0  0  0  0  0  0  0  0  0  0  0
  124.0317  104.7519  106.8943 H   0  0  0  0  0  0  0  0  0  0  0  0
  126.2858  105.0522  107.9538 H   0  0  0  0  0  0  0  0  0  0  0  0
  125.5218  105.4598  109.4911 H   0  0  0  0  0  0  0  0  0  0  0  0
  122.9025  105.2941  109.6937 H   0  0  0  0  0  0  0  0  0  0  0  0
  122.7426  106.3579  108.2847 H   0  0  0  0  0  0  0  0  0  0  0  0
  118.9961  105.4865  106.8514 H   0  0  0  0  0  0  0  0  0  0  0  0
  121.0999  104.1833  108.9093 H   0  0  0  0  0  0  0  0  0  0  0  0
  1  2  2  0  0  0  0
  1 10  1  0  0  0  0
  2 11  1  0  0  0  0
  3 10  2  0  0  0  0
  3 11  1  0  0  0  0
  4  5  1  0  0  0  0
  4 12  1  0  0  0  0
  4 14  2  0  0  0  0
  5 13  1  0  0  0  0
  5 15  2  0  0  0  0
  6 12  1  0  0  0  0
  7  8  1  0  0  0  0
  7  9  1  0  0  0  0
  8 11  1  0  0  0  0
  9 13  1  0  0  0  0
  1 16  1  0  0  0  0
  2 17  1  0  0  0  0
  3 18  1  0  0  0  0
  6 19  1  0  0  0  0
  6 20  1  0  0  0  0
  6 21  1  0  0  0  0
  7 22  1  0  0  0  0
  7 23  1  0  0  0  0
  8 24  1  0  0  0  0
  8 25  1  0  0  0  0
  9 26  1  0  0  0  0
  9 27  1  0  0  0  0
 12 28  1  0  0  0  0
 13 29  1  0  0  0  0
M  END
> <FRED Chemgauss4 score>
-9.091226

$$$$
C74210003	P115654798
  -OEChem-05122015313D

 29 30  0     1  0  0  0  0  0999 V2000
  123.2480  106.0615  106.4783 C   0  0  0  0  0  0  0  0  0  0  0  0
  125.5145  105.3594  106.8713 C   0  0  0  0  0  0  0  0  0  0  0  0
  122.8773  104.7293  106.5651 C   0  0  0  0  0  0  0  0  0  0  0  0
  125.0423  104.0586  106.9407 C   0  0  0  0  0  0  0  0  0  0  0  0
  123.5366  109.8956  110.2085 C   0  0  0  0  0  0  0  0  0  0  0  0
  123.3052  108.5806  110.5365 C   0  0  0  0  0  0  0  0  0  0  0  0
  124.5937  106.3742  106.6355 C   0  0  0  0  0  0  0  0  0  0  0  0
  124.7705  108.7573  108.9000 C   0  0  0  0  0  0  0  0  0  0  0  0
  124.2075  106.4236  109.6508 C   0  0  0  0  0  0  0  0  0  0  0  0
  125.7503  108.3171  107.8363 C   0  0  0  0  0  0  0  0  0  0  0  0
  125.0476  107.7919  106.5507 C   0  0  1  0  0  0  0  0  0  0  0  0
  123.7428  103.7161  106.7931 N   0  0  0  0  0  0  0  0  0  0  0  0
  124.4495  109.9988  109.1889 N   0  0  0  0  0  0  0  0  0  0  0  0
  124.1023  107.8632  109.6896 N   0  0  0  0  0  0  0  0  0  0  0  0
  125.9610  108.0152  105.4085 N   0  0  0  0  0  0  0  0  0  0  0  0
  122.5051  106.8298  106.2924 H   0  0  0  0  0  0  0  0  0  0  0  0
  126.5705  105.5716  106.9984 H   0  0  0  0  0  0  0  0  0  0  0  0
  121.8400  104.4328  106.4485 H   0  0  0  0  0  0  0  0  0  0  0  0
  125.7201  103.2312  107.1228 H   0  0  0  0  0  0  0  0  0  0  0  0
  123.0922  110.7733  110.6546 H   0  0  0  0  0  0  0  0  0  0  0  0
  122.6659  108.1119  111.2716 H   0  0  0  0  0  0  0  0  0  0  0  0
  123.4596  106.0497  108.9466 H   0  0  0  0  0  0  0  0  0  0  0  0
  125.2128  106.1406  109.3268 H   0  0  0  0  0  0  0  0  0  0  0  0
  124.0271  106.0210  110.6514 H   0  0  0  0  0  0  0  0  0  0  0  0
  126.3902  107.5392  108.2759 H   0  0  0  0  0  0  0  0  0  0  0  0
  126.4275  109.1465  107.5930 H   0  0  0  0  0  0  0  0  0  0  0  0
  124.1793  108.4506  106.3590 H   0  0  0  0  0  0  0  0  0  0  0  0
  126.5646  108.7957  105.4610 H   0  0  0  0  0  0  0  0  0  0  0  0
  125.7800  107.5054  104.5815 H   0  0  0  0  0  0  0  0  0  0  0  0
  1  3  2  0  0  0  0
  1  7  1  0  0  0  0
  2  4  1  0  0  0  0
  2  7  2  0  0  0  0
  3 12  1  0  0  0  0
  4 12  2  0  0  0  0
  5  6  2  0  0  0  0
  5 13  1  0  0  0  0
  6 14  1  0  0  0  0
  7 11  1  0  0  0  0
  8 10  1  0  0  0  0
  8 13  2  0  0  0  0
  8 14  1  0  0  0  0
  9 14  1  0  0  0  0
 10 11  1  0  0  0  0
 11 15  1  0  0  0  0
  1 16  1  0  0  0  0
  2 17  1  0  0  0  0
  3 18  1  0  0  0  0
  4 19  1  0  0  0  0
  5 20  1  0  0  0  0
  6 21  1  0  0  0  0
  9 22  1  0  0  0  0
  9 23  1  0  0  0  0
  9 24  1  0  0  0  0
 10 25  1  0  0  0  0
 10 26  1  0  0  0  0
 11 27  1  0  0  0  0
 15 28  1  0  0  0  0
 15 29  1  0  0  0  0
M  END
> <FRED Chemgauss4 score>
-9.089059

$$$$
C88488803	P138408179
  -OEChem-05122015313D

 34 34  0     1  0  0  0  0  0999 V2000
  122.0948  104.6901  106.3382 C   0  0  0  0  0  0  0  0  0  0  0  0
  116.2689  105.5127  103.9298 C   0  0  0  0  0  0  0  0  0  0  0  0
  124.9297  105.3463  108.1172 C   0  0  0  0  0  0  0  0  0  0  0  0
  125.3678  103.9111  108.1610 C   0  0  0  0  0  0  0  0  0  0  0  0
  124.4620  104.3860  107.0579 C   0  0  0  0  0  0  0  0  0  0  0  0
  118.5097  106.6806  103.9750 C   0  0  0  0  0  0  0  0  0  0  0  0
  120.5097  103.7239  103.9906 C   0  0  0  0  0  0  0  0  0  0  0  0
  120.7568  104.0016  106.4260 C   0  0  0  0  0  0  0  0  0  0  0  0
  117.7775  105.3455  103.9747 C   0  0  1  0  0  0  0  0  0  0  0  0
  115.5573  104.5081  103.3317 N   0  0  0  0  0  0  0  0  0  0  0  0
  123.0821  103.9622  106.9868 N   0  0  0  0  0  0  0  0  0  0  0  0
  119.9488  104.3285  105.2247 N   0  0  2  0  0  0  0  0  0  0  0  0
  122.2681  105.7589  105.7584 O   0  0  0  0  0  0  0  0  0  0  0  0
  117.7006  103.0410  105.2014 O   0  0  0  0  0  0  0  0  0  0  0  0
  117.8921  105.1391  106.5760 O   0  0  0  0  0  0  0  0  0  0  0  0
  115.5075  106.8558  104.5767 S   0  0  0  0  0  0  0  0  0  0  0  0
  118.2396  104.3742  105.3932 S   0  0  0  0  0  0  0  0  0  0  0  0
  124.2184  105.6787  108.8635 H   0  0  0  0  0  0  0  0  0  0  0  0
  125.6643  106.0904  107.8346 H   0  0  0  0  0  0  0  0  0  0  0  0
  126.3972  103.6896  107.9073 H   0  0  0  0  0  0  0  0  0  0  0  0
  124.9502  103.2817  108.9372 H   0  0  0  0  0  0  0  0  0  0  0  0
  124.9083  104.4895  106.0748 H   0  0  0  0  0  0  0  0  0  0  0  0
  118.1999  107.2961  104.8260 H   0  0  0  0  0  0  0  0  0  0  0  0
  119.5960  106.5531  104.0306 H   0  0  0  0  0  0  0  0  0  0  0  0
  118.2961  107.2370  103.0560 H   0  0  0  0  0  0  0  0  0  0  0  0
  119.8900  103.9855  103.1289 H   0  0  0  0  0  0  0  0  0  0  0  0
  120.5412  102.6349  104.0838 H   0  0  0  0  0  0  0  0  0  0  0  0
  121.5252  104.0904  103.8180 H   0  0  0  0  0  0  0  0  0  0  0  0
  120.9024  102.9186  106.4784 H   0  0  0  0  0  0  0  0  0  0  0  0
  120.2240  104.3391  107.3199 H   0  0  0  0  0  0  0  0  0  0  0  0
  118.1166  104.7634  103.1093 H   0  0  0  0  0  0  0  0  0  0  0  0
  116.0003  103.6895  102.9281 H   0  0  0  0  0  0  0  0  0  0  0  0
  114.5462  104.5563  103.2610 H   0  0  0  0  0  0  0  0  0  0  0  0
  122.8221  103.0879  107.4339 H   0  0  0  0  0  0  0  0  0  0  0  0
  1  8  1  0  0  0  0
  1 11  1  0  0  0  0
  1 13  2  0  0  0  0
  2  9  1  0  0  0  0
  2 10  1  0  0  0  0
  2 16  2  0  0  0  0
  3  4  1  0  0  0  0
  3  5  1  0  0  0  0
  4  5  1  0  0  0  0
  5 11  1  0  0  0  0
  6  9  1  0  0  0  0
  7 12  1  0  0  0  0
  8 12  1  0  0  0  0
  9 17  1  0  0  0  0
 12 17  1  0  0  0  0
 14 17  2  0  0  0  0
 15 17  2  0  0  0  0
  3 18  1  0  0  0  0
  3 19  1  0  0  0  0
  4 20  1  0  0  0  0
  4 21  1  0  0  0  0
  5 22  1  0  0  0  0
  6 23  1  0  0  0  0
  6 24  1  0  0  0  0
  6 25  1  0  0  0  0
  7 26  1  0  0  0  0
  7 27  1  0  0  0  0
  7 28  1  0  0  0  0
  8 29  1  0  0  0  0
  8 30  1  0  0  0  0
  9 31  1  0  0  0  0
 10 32  1  0  0  0  0
 10 33  1  0  0  0  0
 11 34  1  0  0  0  0
M  END
> <FRED Chemgauss4 score>
-9.087273

$$$$
C19428761	P28756483
  -OEChem-05122015313D

 21 20  0     0  0  0  0  0  0999 V2000
  124.3902  105.6531  107.2376 C   0  0  0  0  0  0  0  0  0  0  0  0
  124.3618  108.7812  108.3190 C   0  0  0  0  0  0  0  0  0  0  0  0
  125.4505  108.7758  107.2657 C   0  0  0  0  0  0  0  0  0  0  0  0
  124.8941  104.6176  108.2211 C   0  0  0  0  0  0  0  0  0  0  0  0
  125.5010  106.2999  106.5531 N   0  5  0  0  0  0  0  0  0  0  0  0
  124.7026  109.7358  109.4018 N   0  3  0  0  0  0  0  0  0  0  0  0
  125.9577  108.1780  104.8356 O   0  0  0  0  0  0  0  0  0  0  0  0
  123.6550  107.8872  105.6825 O   0  0  0  0  0  0  0  0  0  0  0  0
  125.5734  103.6295  107.5999 F   0  0  0  0  0  0  0  0  0  0  0  0
  125.7068  105.1663  109.1495 F   0  0  0  0  0  0  0  0  0  0  0  0
  123.8565  104.0480  108.8755 F   0  0  0  0  0  0  0  0  0  0  0  0
  125.0885  107.7017  105.9128 S   0  0  0  0  0  0  0  0  0  0  0  0
  123.7214  105.1636  106.5204 H   0  0  0  0  0  0  0  0  0  0  0  0
  123.7836  106.3885  107.7785 H   0  0  0  0  0  0  0  0  0  0  0  0
  123.4114  109.1212  107.8978 H   0  0  0  0  0  0  0  0  0  0  0  0
  124.2258  107.8027  108.7882 H   0  0  0  0  0  0  0  0  0  0  0  0
  125.5584  109.7761  106.8347 H   0  0  0  0  0  0  0  0  0  0  0  0
  126.4179  108.4698  107.6751 H   0  0  0  0  0  0  0  0  0  0  0  0
  125.6421  109.5531  109.7704 H   0  0  0  0  0  0  0  0  0  0  0  0
  124.0381  109.6604  110.1797 H   0  0  0  0  0  0  0  0  0  0  0  0
  124.6800  110.7026  109.0596 H   0  0  0  0  0  0  0  0  0  0  0  0
  1  4  1  0  0  0  0
  1  5  1  0  0  0  0
  2  3  1  0  0  0  0
  2  6  1  0  0  0  0
  3 12  1  0  0  0  0
  4  9  1  0  0  0  0
  4 10  1  0  0  0  0
  4 11  1  0  0  0  0
  5 12  1  0  0  0  0
  7 12  2  0  0  0  0
  8 12  2  0  0  0  0
  1 13  1  0  0  0  0
  1 14  1  0  0  0  0
  2 15  1  0  0  0  0
  2 16  1  0  0  0  0
  3 17  1  0  0  0  0
  3 18  1  0  0  0  0
  6 19  1  0  0  0  0
  6 20  1  0  0  0  0
  6 21  1  0  0  0  0
M  CHG  2   5  -1   6   1
M  END
> <FRED Chemgauss4 score>
-9.069130

$$$$
C88067459	P137750760
  -OEChem-05122015313D

 29 29  0     1  0  0  0  0  0999 V2000
  124.7489  106.3473  107.5432 C   0  0  0  0  0  0  0  0  0  0  0  0
  124.9786  104.0074  108.0993 C   0  0  0  0  0  0  0  0  0  0  0  0
  125.7702  106.6607  108.4401 C   0  0  0  0  0  0  0  0  0  0  0  0
  125.9999  104.3208  108.9962 C   0  0  0  0  0  0  0  0  0  0  0  0
  124.3531  105.0206  107.3729 C   0  0  0  0  0  0  0  0  0  0  0  0
  126.3957  105.6475  109.1665 C   0  0  0  0  0  0  0  0  0  0  0  0
  119.2778  103.7126  106.4928 C   0  0  0  0  0  0  0  0  0  0  0  0
  123.2544  104.6831  106.4072 C   0  0  0  0  0  0  0  0  0  0  0  0
  120.6426  104.6473  104.5489 C   0  0  0  0  0  0  0  0  0  0  0  0
  120.6706  104.0137  105.9446 C   0  0  1  0  0  0  0  0  0  0  0  0
  120.0221  103.7627  103.5681 N   0  0  0  0  0  0  0  0  0  0  0  0
  121.3032  106.5277  106.5998 O   0  0  0  0  0  0  0  0  0  0  0  0
  127.3931  105.9533  110.0407 O   0  0  0  0  0  0  0  0  0  0  0  0
  121.5604  105.1429  107.0917 S   0  0  2  0  0  0  0  0  0  0  0  0
  124.2671  107.1430  106.9815 H   0  0  0  0  0  0  0  0  0  0  0  0
  124.6766  102.9709  107.9731 H   0  0  0  0  0  0  0  0  0  0  0  0
  126.0744  107.6961  108.5682 H   0  0  0  0  0  0  0  0  0  0  0  0
  126.4834  103.5271  109.5587 H   0  0  0  0  0  0  0  0  0  0  0  0
  118.6574  104.6149  106.5285 H   0  0  0  0  0  0  0  0  0  0  0  0
  118.7606  102.9709  105.8757 H   0  0  0  0  0  0  0  0  0  0  0  0
  119.3336  103.3093  107.5100 H   0  0  0  0  0  0  0  0  0  0  0  0
  123.3919  105.2201  105.4627 H   0  0  0  0  0  0  0  0  0  0  0  0
  123.2507  103.6127  106.1754 H   0  0  0  0  0  0  0  0  0  0  0  0
  120.0923  105.5954  104.5691 H   0  0  0  0  0  0  0  0  0  0  0  0
  121.6623  104.8766  104.2174 H   0  0  0  0  0  0  0  0  0  0  0  0
  121.2599  103.0895  105.9241 H   0  0  0  0  0  0  0  0  0  0  0  0
  120.2789  103.8690  102.6102 H   0  0  0  0  0  0  0  0  0  0  0  0
  119.2265  103.2317  103.8512 H   0  0  0  0  0  0  0  0  0  0  0  0
  127.7260  105.1473  110.4667 H   0  0  0  0  0  0  0  0  0  0  0  0
  1  3  2  0  0  0  0
  1  5  1  0  0  0  0
  2  4  1  0  0  0  0
  2  5  2  0  0  0  0
  3  6  1  0  0  0  0
  4  6  2  0  0  0  0
  5  8  1  0  0  0  0
  6 13  1  0  0  0  0
  7 10  1  0  0  0  0
  8 14  1  0  0  0  0
  9 10  1  0  0  0  0
  9 11  1  0  0  0  0
 10 14  1  0  0  0  0
 12 14  2  0  0  0  0
  1 15  1  0  0  0  0
  2 16  1  0  0  0  0
  3 17  1  0  0  0  0
  4 18  1  0  0  0  0
  7 19  1  0  0  0  0
  7 20  1  0  0  0  0
  7 21  1  0  0  0  0
  8 22  1  0  0  0  0
  8 23  1  0  0  0  0
  9 24  1  0  0  0  0
  9 25  1  0  0  0  0
 10 26  1  0  0  0  0
 11 27  1  0  0  0  0
 11 28  1  0  0  0  0
 13 29  1  0  0  0  0
M  END
> <FRED Chemgauss4 score>
-9.063286

$$$$
C94719907	P148464092
  -OEChem-05122015313D

 39 40  0     1  0  0  0  0  0999 V2000
  117.3808  105.6222  105.3112 C   0  0  0  0  0  0  0  0  0  0  0  0
  119.4644  104.5933  105.9722 C   0  0  0  0  0  0  0  0  0  0  0  0
  118.9070  106.8078  106.7611 C   0  0  0  0  0  0  0  0  0  0  0  0
  118.2612  104.5411  105.2685 C   0  0  0  0  0  0  0  0  0  0  0  0
  117.7037  106.7556  106.0574 C   0  0  0  0  0  0  0  0  0  0  0  0
  119.7873  105.7267  106.7185 C   0  0  0  0  0  0  0  0  0  0  0  0
  124.0729  108.0881  109.3322 C   0  0  0  0  0  0  0  0  0  0  0  0
  124.4978  108.8856  108.0971 C   0  0  0  0  0  0  0  0  0  0  0  0
  123.7764  106.6637  108.8530 C   0  0  0  0  0  0  0  0  0  0  0  0
  124.7124  107.8368  107.0065 C   0  0  1  0  0  0  0  0  0  0  0  0
  123.6796  106.7553  107.3321 C   0  0  2  0  0  0  0  0  0  0  0  0
  117.9151  103.3294  104.4706 C   0  0  0  0  0  0  0  0  0  0  0  0
  116.7626  107.9118  106.1037 C   0  0  0  0  0  0  0  0  0  0  0  0
  121.0793  105.7823  107.4738 C   0  0  0  0  0  0  0  0  0  0  0  0
  124.6616  108.3937  105.6652 N   0  0  0  0  0  0  0  0  0  0  0  0
  121.9698  107.0688  105.3799 O   0  0  0  0  0  0  0  0  0  0  0  0
  121.6111  108.3410  107.5304 O   0  0  0  0  0  0  0  0  0  0  0  0
  122.0254  107.1406  106.8281 S   0  0  0  0  0  0  0  0  0  0  0  0
  116.4427  105.5822  104.7624 H   0  0  0  0  0  0  0  0  0  0  0  0
  120.1508  103.7503  105.9388 H   0  0  0  0  0  0  0  0  0  0  0  0
  119.1590  107.6912  107.3429 H   0  0  0  0  0  0  0  0  0  0  0  0
  124.8623  108.0811  110.0916 H   0  0  0  0  0  0  0  0  0  0  0  0
  123.1854  108.5414  109.7876 H   0  0  0  0  0  0  0  0  0  0  0  0
  123.7034  109.5921  107.8267 H   0  0  0  0  0  0  0  0  0  0  0  0
  125.4032  109.4728  108.2837 H   0  0  0  0  0  0  0  0  0  0  0  0
  124.6171  106.0144  109.1273 H   0  0  0  0  0  0  0  0  0  0  0  0
  122.8777  106.2557  109.3263 H   0  0  0  0  0  0  0  0  0  0  0  0
  125.7132  107.4059  107.1450 H   0  0  0  0  0  0  0  0  0  0  0  0
  123.9230  105.8013  106.8532 H   0  0  0  0  0  0  0  0  0  0  0  0
  118.2892  103.4284  103.4443 H   0  0  0  0  0  0  0  0  0  0  0  0
  118.3492  102.4236  104.9134 H   0  0  0  0  0  0  0  0  0  0  0  0
  116.8290  103.1749  104.4319 H   0  0  0  0  0  0  0  0  0  0  0  0
  116.0591  107.7983  106.9376 H   0  0  0  0  0  0  0  0  0  0  0  0
  117.3018  108.8595  106.2298 H   0  0  0  0  0  0  0  0  0  0  0  0
  116.1877  107.9949  105.1722 H   0  0  0  0  0  0  0  0  0  0  0  0
  121.6666  104.8682  107.3493 H   0  0  0  0  0  0  0  0  0  0  0  0
  120.9222  105.9542  108.5424 H   0  0  0  0  0  0  0  0  0  0  0  0
  124.4547  107.7805  104.9025 H   0  0  0  0  0  0  0  0  0  0  0  0
  125.0292  109.3122  105.5169 H   0  0  0  0  0  0  0  0  0  0  0  0
  1  4  2  0  0  0  0
  1  5  1  0  0  0  0
  2  4  1  0  0  0  0
  2  6  2  0  0  0  0
  3  5  2  0  0  0  0
  3  6  1  0  0  0  0
  4 12  1  0  0  0  0
  5 13  1  0  0  0  0
  6 14  1  0  0  0  0
  7  8  1  0  0  0  0
  7  9  1  0  0  0  0
  8 10  1  0  0  0  0
  9 11  1  0  0  0  0
 10 11  1  0  0  0  0
 10 15  1  0  0  0  0
 11 18  1  0  0  0  0
 14 18  1  0  0  0  0
 16 18  2  0  0  0  0
 17 18  2  0  0  0  0
  1 19  1  0  0  0  0
  2 20  1  0  0  0  0
  3 21  1  0  0  0  0
  7 22  1  0  0  0  0
  7 23  1  0  0  0  0
  8 24  1  0  0  0  0
  8 25  1  0  0  0  0
  9 26  1  0  0  0  0
  9 27  1  0  0  0  0
 10 28  1  0  0  0  0
 11 29  1  0  0  0  0
 12 30  1  0  0  0  0
 12 31  1  0  0  0  0
 12 32  1  0  0  0  0
 13 33  1  0  0  0  0
 13 34  1  0  0  0  0
 13 35  1  0  0  0  0
 14 36  1  0  0  0  0
 14 37  1  0  0  0  0
 15 38  1  0  0  0  0
 15 39  1  0  0  0  0
M  END
> <FRED Chemgauss4 score>
-9.056400

$$$$
C82988366	P129757104
  -OEChem-05122015313D

 34 34  0     1  0  0  0  0  0999 V2000
  121.2169  104.3278  104.9019 C   0  0  0  0  0  0  0  0  0  0  0  0
  121.8958  104.1830  106.1067 C   0  0  0  0  0  0  0  0  0  0  0  0
  121.4198  105.4924  104.1792 C   0  0  0  0  0  0  0  0  0  0  0  0
  122.8794  106.3186  105.7492 C   0  0  0  0  0  0  0  0  0  0  0  0
  122.7448  105.1928  106.5457 C   0  0  0  0  0  0  0  0  0  0  0  0
  123.0119  107.1573  108.9224 C   0  0  0  0  0  0  0  0  0  0  0  0
  123.4923  105.0660  107.8416 C   0  0  0  0  0  0  0  0  0  0  0  0
  126.6156  106.5992  107.1354 C   0  0  0  0  0  0  0  0  0  0  0  0
  125.1688  106.1336  109.1914 C   0  0  0  0  0  0  0  0  0  0  0  0
  126.5826  108.1103  107.3555 C   0  0  0  0  0  0  0  0  0  0  0  0
  126.4647  105.7894  108.4359 C   0  0  2  0  0  0  0  0  0  0  0  0
  122.2364  106.4951  104.5732 N   0  0  0  0  0  0  0  0  0  0  0  0
  127.6078  106.0410  109.3198 N   0  0  0  0  0  0  0  0  0  0  0  0
  124.0476  106.3466  108.2810 N   0  0  2  0  0  0  0  0  0  0  0  0
  126.7266  108.7801  106.1089 O   0  0  0  0  0  0  0  0  0  0  0  0
  120.5502  103.5535  104.5400 H   0  0  0  0  0  0  0  0  0  0  0  0
  121.7574  103.2807  106.6962 H   0  0  0  0  0  0  0  0  0  0  0  0
  120.9131  105.6536  103.2333 H   0  0  0  0  0  0  0  0  0  0  0  0
  123.5278  107.1393  106.0400 H   0  0  0  0  0  0  0  0  0  0  0  0
  123.4311  108.1126  109.2489 H   0  0  0  0  0  0  0  0  0  0  0  0
  122.6079  106.6342  109.7934 H   0  0  0  0  0  0  0  0  0  0  0  0
  122.1961  107.3522  108.2212 H   0  0  0  0  0  0  0  0  0  0  0  0
  122.8323  104.6951  108.6333 H   0  0  0  0  0  0  0  0  0  0  0  0
  124.3207  104.3558  107.7495 H   0  0  0  0  0  0  0  0  0  0  0  0
  127.5481  106.3312  106.6206 H   0  0  0  0  0  0  0  0  0  0  0  0
  125.8129  106.3381  106.4342 H   0  0  0  0  0  0  0  0  0  0  0  0
  124.9083  105.3295  109.8898 H   0  0  0  0  0  0  0  0  0  0  0  0
  125.3101  107.0460  109.7833 H   0  0  0  0  0  0  0  0  0  0  0  0
  125.6375  108.4249  107.8096 H   0  0  0  0  0  0  0  0  0  0  0  0
  127.4016  108.4385  108.0020 H   0  0  0  0  0  0  0  0  0  0  0  0
  126.4628  104.7205  108.1882 H   0  0  0  0  0  0  0  0  0  0  0  0
  128.4967  106.1814  108.8980 H   0  0  0  0  0  0  0  0  0  0  0  0
  127.4906  105.8604  110.2903 H   0  0  0  0  0  0  0  0  0  0  0  0
  126.6998  109.7315  106.2987 H   0  0  0  0  0  0  0  0  0  0  0  0
  1  2  2  0  0  0  0
  1  3  1  0  0  0  0
  2  5  1  0  0  0  0
  3 12  2  0  0  0  0
  4  5  2  0  0  0  0
  4 12  1  0  0  0  0
  5  7  1  0  0  0  0
  6 14  1  0  0  0  0
  7 14  1  0  0  0  0
  8 10  1  0  0  0  0
  8 11  1  0  0  0  0
  9 11  1  0  0  0  0
  9 14  1  0  0  0  0
 10 15  1  0  0  0  0
 11 13  1  0  0  0  0
  1 16  1  0  0  0  0
  2 17  1  0  0  0  0
  3 18  1  0  0  0  0
  4 19  1  0  0  0  0
  6 20  1  0  0  0  0
  6 21  1  0  0  0  0
  6 22  1  0  0  0  0
  7 23  1  0  0  0  0
  7 24  1  0  0  0  0
  8 25  1  0  0  0  0
  8 26  1  0  0  0  0
  9 27  1  0  0  0  0
  9 28  1  0  0  0  0
 10 29  1  0  0  0  0
 10 30  1  0  0  0  0
 11 31  1  0  0  0  0
 13 32  1  0  0  0  0
 13 33  1  0  0  0  0
 15 34  1  0  0  0  0
M  END
> <FRED Chemgauss4 score>
-9.053867

$$$$
C36285937	P53923458
  -OEChem-05122015313D

 40 41  0     0  0  0  0  0  0999 V2000
  122.3206  108.1316  107.2232 C   0  0  0  0  0  0  0  0  0  0  0  0
  123.3364  105.6911  106.3315 C   0  0  0  0  0  0  0  0  0  0  0  0
  121.5059  107.2587  106.5021 C   0  0  0  0  0  0  0  0  0  0  0  0
  122.0138  106.0385  106.0563 C   0  0  0  0  0  0  0  0  0  0  0  0
  123.6432  107.7842  107.4984 C   0  0  0  0  0  0  0  0  0  0  0  0
  124.1511  106.5640  107.0526 C   0  0  0  0  0  0  0  0  0  0  0  0
  122.7572  108.5376  111.7968 C   0  0  0  0  0  0  0  0  0  0  0  0
  123.6536  110.7167  110.8716 C   0  0  0  0  0  0  0  0  0  0  0  0
  123.6864  108.6816  112.9961 C   0  0  0  0  0  0  0  0  0  0  0  0
  124.5716  110.8361  112.0824 C   0  0  0  0  0  0  0  0  0  0  0  0
  123.2715  109.2643  110.5431 C   0  0  0  0  0  0  0  0  0  0  0  0
  119.2321  107.2256  107.1984 C   0  0  0  0  0  0  0  0  0  0  0  0
  121.2232  105.3184  103.9321 C   0  0  0  0  0  0  0  0  0  0  0  0
  124.4116  108.5548  109.9588 N   0  5  0  0  0  0  0  0  0  0  0  0
  123.9524  110.1293  113.2417 N   0  3  0  0  0  0  0  0  0  0  0  0
  124.0677  110.2453  108.0399 O   0  0  0  0  0  0  0  0  0  0  0  0
  125.9838  108.7186  107.9194 O   0  0  0  0  0  0  0  0  0  0  0  0
  120.2158  107.6090  106.2395 O   0  0  0  0  0  0  0  0  0  0  0  0
  121.2276  105.1780  105.3515 O   0  0  0  0  0  0  0  0  0  0  0  0
  124.6379  108.9593  108.4346 S   0  0  0  0  0  0  0  0  0  0  0  0
  125.9409  106.0298  107.3909 Br  0  0  0  0  0  0  0  0  0  0  0  0
  121.9172  109.0807  107.5679 H   0  0  0  0  0  0  0  0  0  0  0  0
  123.7199  104.7367  105.9779 H   0  0  0  0  0  0  0  0  0  0  0  0
  122.5965  107.4724  111.5879 H   0  0  0  0  0  0  0  0  0  0  0  0
  121.7764  108.9539  112.0629 H   0  0  0  0  0  0  0  0  0  0  0  0
  122.7335  111.2809  111.0746 H   0  0  0  0  0  0  0  0  0  0  0  0
  124.1282  111.1976  110.0074 H   0  0  0  0  0  0  0  0  0  0  0  0
  123.2263  108.2842  113.9057 H   0  0  0  0  0  0  0  0  0  0  0  0
  124.6529  108.1917  112.8408 H   0  0  0  0  0  0  0  0  0  0  0  0
  125.5545  110.3860  111.9104 H   0  0  0  0  0  0  0  0  0  0  0  0
  124.7036  111.8806  112.3803 H   0  0  0  0  0  0  0  0  0  0  0  0
  122.4550  109.2895  109.8094 H   0  0  0  0  0  0  0  0  0  0  0  0
  118.2478  107.5660  106.8677 H   0  0  0  0  0  0  0  0  0  0  0  0
  119.4755  107.6675  108.1679 H   0  0  0  0  0  0  0  0  0  0  0  0
  119.2278  106.1367  107.2872 H   0  0  0  0  0  0  0  0  0  0  0  0
  120.5563  104.5721  103.4934 H   0  0  0  0  0  0  0  0  0  0  0  0
  122.2381  105.1858  103.5488 H   0  0  0  0  0  0  0  0  0  0  0  0
  120.8665  106.3185  103.6749 H   0  0  0  0  0  0  0  0  0  0  0  0
  123.0741  110.6002  113.5011 H   0  0  0  0  0  0  0  0  0  0  0  0
  124.5684  110.2236  114.0609 H   0  0  0  0  0  0  0  0  0  0  0  0
  1  3  1  0  0  0  0
  1  5  2  0  0  0  0
  2  4  1  0  0  0  0
  2  6  2  0  0  0  0
  3  4  2  0  0  0  0
  3 18  1  0  0  0  0
  4 19  1  0  0  0  0
  5  6  1  0  0  0  0
  5 20  1  0  0  0  0
  6 21  1  0  0  0  0
  7  9  1  0  0  0  0
  7 11  1  0  0  0  0
  8 10  1  0  0  0  0
  8 11  1  0  0  0  0
  9 15  1  0  0  0  0
 10 15  1  0  0  0  0
 11 14  1  0  0  0  0
 12 18  1  0  0  0  0
 13 19  1  0  0  0  0
 14 20  1  0  0  0  0
 16 20  2  0  0  0  0
 17 20  2  0  0  0  0
  1 22  1  0  0  0  0
  2 23  1  0  0  0  0
  7 24  1  0  0  0  0
  7 25  1  0  0  0  0
  8 26  1  0  0  0  0
  8 27  1  0  0  0  0
  9 28  1  0  0  0  0
  9 29  1  0  0  0  0
 10 30  1  0  0  0  0
 10 31  1  0  0  0  0
 11 32  1  0  0  0  0
 12 33  1  0  0  0  0
 12 34  1  0  0  0  0
 12 35  1  0  0  0  0
 13 36  1  0  0  0  0
 13 37  1  0  0  0  0
 13 38  1  0  0  0  0
 15 39  1  0  0  0  0
 15 40  1  0  0  0  0
M  CHG  2  14  -1  15   1
M  END
> <FRED Chemgauss4 score>
-9.053055

$$$$
C86093116	P134836689
  -OEChem-05122015313D

 27 27  0     1  0  0  0  0  0999 V2000
  117.5344  103.8525  105.1070 C   0  0  0  0  0  0  0  0  0  0  0  0
  118.5948  103.6725  105.6402 C   0  0  0  0  0  0  0  0  0  0  0  0
  125.6845  105.1579  106.5457 C   0  0  0  0  0  0  0  0  0  0  0  0
  126.2913  106.1602  107.1892 C   0  0  0  0  0  0  0  0  0  0  0  0
  123.2698  105.1136  106.4476 C   0  0  0  0  0  0  0  0  0  0  0  0
  124.5296  105.4234  108.6009 C   0  0  0  0  0  0  0  0  0  0  0  0
  124.4583  104.6970  107.2558 C   0  0  2  0  0  0  0  0  0  0  0  0
  125.5626  106.5462  108.4329 C   0  0  2  0  0  0  0  0  0  0  0  0
  119.8930  103.4480  106.2949 C   0  0  0  0  0  0  0  0  0  0  0  0
  120.9150  104.5159  105.9184 C   0  0  0  0  0  0  0  0  0  0  0  0
  124.9286  107.8531  108.2959 N   0  0  0  0  0  0  0  0  0  0  0  0
  122.1679  104.2947  106.6042 N   0  0  0  0  0  0  0  0  0  0  0  0
  123.3429  106.1067  105.7333 O   0  0  0  0  0  0  0  0  0  0  0  0
  116.5939  104.0121  104.6334 H   0  0  0  0  0  0  0  0  0  0  0  0
  126.0391  104.7352  105.6160 H   0  0  0  0  0  0  0  0  0  0  0  0
  127.1897  106.6483  106.8384 H   0  0  0  0  0  0  0  0  0  0  0  0
  123.5534  105.7834  108.9476 H   0  0  0  0  0  0  0  0  0  0  0  0
  124.8902  104.7241  109.3680 H   0  0  0  0  0  0  0  0  0  0  0  0
  124.4430  103.6108  107.3833 H   0  0  0  0  0  0  0  0  0  0  0  0
  126.2413  106.5605  109.2927 H   0  0  0  0  0  0  0  0  0  0  0  0
  120.2707  102.4520  106.0340 H   0  0  0  0  0  0  0  0  0  0  0  0
  119.7496  103.4620  107.3817 H   0  0  0  0  0  0  0  0  0  0  0  0
  121.0902  104.5252  104.8369 H   0  0  0  0  0  0  0  0  0  0  0  0
  120.5342  105.5028  106.2006 H   0  0  0  0  0  0  0  0  0  0  0  0
  125.4280  108.5701  107.8147 H   0  0  0  0  0  0  0  0  0  0  0  0
  124.1238  108.0460  108.8530 H   0  0  0  0  0  0  0  0  0  0  0  0
  122.2419  103.4993  107.2313 H   0  0  0  0  0  0  0  0  0  0  0  0
  1  2  3  0  0  0  0
  2  9  1  0  0  0  0
  3  4  2  0  0  0  0
  3  7  1  0  0  0  0
  4  8  1  0  0  0  0
  5  7  1  0  0  0  0
  5 12  1  0  0  0  0
  5 13  2  0  0  0  0
  6  7  1  0  0  0  0
  6  8  1  0  0  0  0
  8 11  1  0  0  0  0
  9 10  1  0  0  0  0
 10 12  1  0  0  0  0
  1 14  1  0  0  0  0
  3 15  1  0  0  0  0
  4 16  1  0  0  0  0
  6 17  1  0  0  0  0
  6 18  1  0  0  0  0
  7 19  1  0  0  0  0
  8 20  1  0  0  0  0
  9 21  1  0  0  0  0
  9 22  1  0  0  0  0
 10 23  1  0  0  0  0
 10 24  1  0  0  0  0
 11 25  1  0  0  0  0
 11 26  1  0  0  0  0
 12 27  1  0  0  0  0
M  END
> <FRED Chemgauss4 score>
-9.050528

$$$$
C54154432	P81466114
  -OEChem-05122015313D

 38 38  0     1  0  0  0  0  0999 V2000
  125.0275  107.2444  107.0845 C   0  0  0  0  0  0  0  0  0  0  0  0
  118.1292  106.6915  106.5647 C   0  0  0  0  0  0  0  0  0  0  0  0
  117.7222  105.3683  105.9179 C   0  0  0  0  0  0  0  0  0  0  0  0
  119.3969  106.5342  107.3952 C   0  0  0  0  0  0  0  0  0  0  0  0
  120.1378  104.6461  105.9728 C   0  0  0  0  0  0  0  0  0  0  0  0
  118.8798  104.7685  105.1061 C   0  0  1  0  0  0  0  0  0  0  0  0
  118.4878  103.4091  104.5314 C   0  0  0  0  0  0  0  0  0  0  0  0
  124.6848  107.8805  109.4873 C   0  0  0  0  0  0  0  0  0  0  0  0
  122.6895  107.4999  107.9659 C   0  0  0  0  0  0  0  0  0  0  0  0
  124.1350  108.0042  108.0629 C   0  0  2  0  0  0  0  0  0  0  0  0
  120.4948  105.9649  106.5673 N   0  0  1  0  0  0  0  0  0  0  0  0
  125.1243  105.8911  107.2681 N   0  0  0  0  0  0  0  0  0  0  0  0
  122.0183  108.0995  106.7964 N   0  0  0  0  0  0  0  0  0  0  0  0
  120.4525  107.8045  104.7836 O   0  0  0  0  0  0  0  0  0  0  0  0
  122.4797  106.3217  104.9749 O   0  0  0  0  0  0  0  0  0  0  0  0
  125.8486  108.0183  105.8477 S   0  0  0  0  0  0  0  0  0  0  0  0
  121.3876  107.0478  105.5958 S   0  0  0  0  0  0  0  0  0  0  0  0
  118.2936  107.4406  105.7804 H   0  0  0  0  0  0  0  0  0  0  0  0
  117.3142  107.0592  107.1976 H   0  0  0  0  0  0  0  0  0  0  0  0
  117.4064  104.6639  106.6998 H   0  0  0  0  0  0  0  0  0  0  0  0
  116.8524  105.5323  105.2688 H   0  0  0  0  0  0  0  0  0  0  0  0
  119.6982  107.5219  107.7738 H   0  0  0  0  0  0  0  0  0  0  0  0
  119.2125  105.8835  108.2635 H   0  0  0  0  0  0  0  0  0  0  0  0
  119.9925  103.9084  106.7776 H   0  0  0  0  0  0  0  0  0  0  0  0
  120.9737  104.2962  105.3481 H   0  0  0  0  0  0  0  0  0  0  0  0
  119.0970  105.4440  104.2688 H   0  0  0  0  0  0  0  0  0  0  0  0
  118.2658  102.7157  105.3412 H   0  0  0  0  0  0  0  0  0  0  0  0
  119.3069  103.0100  103.9352 H   0  0  0  0  0  0  0  0  0  0  0  0
  117.6063  103.5148  103.9009 H   0  0  0  0  0  0  0  0  0  0  0  0
  124.6964  106.8355  109.8138 H   0  0  0  0  0  0  0  0  0  0  0  0
  125.7069  108.2668  109.5642 H   0  0  0  0  0  0  0  0  0  0  0  0
  124.0653  108.4446  110.1931 H   0  0  0  0  0  0  0  0  0  0  0  0
  122.6637  106.4104  107.8510 H   0  0  0  0  0  0  0  0  0  0  0  0
  122.1135  107.7521  108.8628 H   0  0  0  0  0  0  0  0  0  0  0  0
  124.1508  109.0708  107.7993 H   0  0  0  0  0  0  0  0  0  0  0  0
  124.6347  105.4038  108.0112 H   0  0  0  0  0  0  0  0  0  0  0  0
  125.6994  105.3216  106.6561 H   0  0  0  0  0  0  0  0  0  0  0  0
  121.4398  108.9169  107.0306 H   0  0  0  0  0  0  0  0  0  0  0  0
  1 10  1  0  0  0  0
  1 12  1  0  0  0  0
  1 16  2  0  0  0  0
  2  3  1  0  0  0  0
  2  4  1  0  0  0  0
  3  6  1  0  0  0  0
  4 11  1  0  0  0  0
  5  6  1  0  0  0  0
  5 11  1  0  0  0  0
  6  7  1  0  0  0  0
  8 10  1  0  0  0  0
  9 10  1  0  0  0  0
  9 13  1  0  0  0  0
 11 17  1  0  0  0  0
 13 17  1  0  0  0  0
 14 17  2  0  0  0  0
 15 17  2  0  0  0  0
  2 18  1  0  0  0  0
  2 19  1  0  0  0  0
  3 20  1  0  0  0  0
  3 21  1  0  0  0  0
  4 22  1  0  0  0  0
  4 23  1  0  0  0  0
  5 24  1  0  0  0  0
  5 25  1  0  0  0  0
  6 26  1  0  0  0  0
  7 27  1  0  0  0  0
  7 28  1  0  0  0  0
  7 29  1  0  0  0  0
  8 30  1  0  0  0  0
  8 31  1  0  0  0  0
  8 32  1  0  0  0  0
  9 33  1  0  0  0  0
  9 34  1  0  0  0  0
 10 35  1  0  0  0  0
 12 36  1  0  0  0  0
 12 37  1  0  0  0  0
 13 38  1  0  0  0  0
M  END
> <FRED Chemgauss4 score>
-9.046292

$$$$
C39065006	P59185477
  -OEChem-05122015313D

 20 20  0     0  0  0  0  0  0999 V2000
  123.9660  108.3589  109.9482 C   0  0  0  0  0  0  0  0  0  0  0  0
  124.8336  107.9391  108.9697 C   0  0  0  0  0  0  0  0  0  0  0  0
  125.2763  109.1274  108.3584 C   0  0  0  0  0  0  0  0  0  0  0  0
  125.1666  106.5737  108.6906 C   0  0  0  0  0  0  0  0  0  0  0  0
  123.1702  110.6147  110.6952 C   0  0  0  0  0  0  0  0  0  0  0  0
  124.7344  110.2201  108.9028 N   0  0  0  0  0  0  0  0  0  0  0  0
  123.9423  109.7201  109.8665 N   0  0  0  0  0  0  0  0  0  0  0  0
  126.1613  109.1164  107.3271 N   0  0  0  0  0  0  0  0  0  0  0  0
  126.6345  104.7142  109.1858 N   0  0  0  0  0  0  0  0  0  0  0  0
  126.2660  106.0325  109.3821 N   0  0  0  0  0  0  0  0  0  0  0  0
  124.5222  105.8519  107.8938 O   0  0  0  0  0  0  0  0  0  0  0  0
  123.3773  107.8196  110.6781 H   0  0  0  0  0  0  0  0  0  0  0  0
  123.7782  110.8781  111.5647 H   0  0  0  0  0  0  0  0  0  0  0  0
  122.9132  111.5105  110.1229 H   0  0  0  0  0  0  0  0  0  0  0  0
  122.2501  110.1135  111.0083 H   0  0  0  0  0  0  0  0  0  0  0  0
  126.5784  108.2441  106.9838 H   0  0  0  0  0  0  0  0  0  0  0  0
  126.5186  109.9850  106.9142 H   0  0  0  0  0  0  0  0  0  0  0  0
  126.9966  104.3740  110.0757 H   0  0  0  0  0  0  0  0  0  0  0  0
  125.7769  104.1913  109.0134 H   0  0  0  0  0  0  0  0  0  0  0  0
  126.7908  106.6123  110.0280 H   0  0  0  0  0  0  0  0  0  0  0  0
  1  2  2  0  0  0  0
  1  7  1  0  0  0  0
  2  3  1  0  0  0  0
  2  4  1  0  0  0  0
  3  6  2  0  0  0  0
  3  8  1  0  0  0  0
  4 10  1  0  0  0  0
  4 11  2  0  0  0  0
  5  7  1  0  0  0  0
  6  7  1  0  0  0  0
  9 10  1  0  0  0  0
  1 12  1  0  0  0  0
  5 13  1  0  0  0  0
  5 14  1  0  0  0  0
  5 15  1  0  0  0  0
  8 16  1  0  0  0  0
  8 17  1  0  0  0  0
  9 18  1  0  0  0  0
  9 19  1  0  0  0  0
 10 20  1  0  0  0  0
M  END
> <FRED Chemgauss4 score>
-9.043625

$$$$
C37902477	P56948622
  -OEChem-05122015313D

 27 27  0     0  0  0  0  0  0999 V2000
  124.8186  108.9125  108.3470 C   0  0  0  0  0  0  0  0  0  0  0  0
  124.6614  107.6211  108.7918 C   0  0  0  0  0  0  0  0  0  0  0  0
  125.8872  107.6998  106.9622 C   0  0  0  0  0  0  0  0  0  0  0  0
  123.3398  105.0148  106.6559 C   0  0  0  0  0  0  0  0  0  0  0  0
  124.1398  104.6961  107.9059 C   0  0  0  0  0  0  0  0  0  0  0  0
  125.4908  105.4041  107.9249 C   0  0  0  0  0  0  0  0  0  0  0  0
  120.2697  104.5568  105.4854 C   0  0  0  0  0  0  0  0  0  0  0  0
  121.6422  104.0011  105.1448 C   0  0  0  0  0  0  0  0  0  0  0  0
  125.5825  108.9547  107.2076 N   0  0  0  0  0  0  0  0  0  0  0  0
  125.3510  106.8555  107.8944 N   0  0  0  0  0  0  0  0  0  0  0  0
  119.6059  103.7806  106.4981 N   0  0  0  0  0  0  0  0  0  0  0  0
  122.5114  103.9611  106.2982 N   0  0  0  0  0  0  0  0  0  0  0  0
  123.4324  106.0802  106.0522 O   0  0  0  0  0  0  0  0  0  0  0  0
  124.4207  109.8141  108.7893 H   0  0  0  0  0  0  0  0  0  0  0  0
  124.1379  107.1972  109.6374 H   0  0  0  0  0  0  0  0  0  0  0  0
  126.4855  107.3456  106.1338 H   0  0  0  0  0  0  0  0  0  0  0  0
  123.5459  104.9903  108.7802 H   0  0  0  0  0  0  0  0  0  0  0  0
  124.2809  103.6093  107.9557 H   0  0  0  0  0  0  0  0  0  0  0  0
  126.1035  105.1085  107.0645 H   0  0  0  0  0  0  0  0  0  0  0  0
  126.0618  105.1414  108.8239 H   0  0  0  0  0  0  0  0  0  0  0  0
  119.6169  104.5750  104.6070 H   0  0  0  0  0  0  0  0  0  0  0  0
  120.3623  105.5766  105.8718 H   0  0  0  0  0  0  0  0  0  0  0  0
  121.5542  102.9756  104.7732 H   0  0  0  0  0  0  0  0  0  0  0  0
  122.1388  104.6062  104.3794 H   0  0  0  0  0  0  0  0  0  0  0  0
  119.6861  102.7765  106.4785 H   0  0  0  0  0  0  0  0  0  0  0  0
  118.9144  104.2236  107.0818 H   0  0  0  0  0  0  0  0  0  0  0  0
  122.5162  103.1237  106.8731 H   0  0  0  0  0  0  0  0  0  0  0  0
  1  2  2  0  0  0  0
  1  9  1  0  0  0  0
  2 10  1  0  0  0  0
  3  9  2  0  0  0  0
  3 10  1  0  0  0  0
  4  5  1  0  0  0  0
  4 12  1  0  0  0  0
  4 13  2  0  0  0  0
  5  6  1  0  0  0  0
  6 10  1  0  0  0  0
  7  8  1  0  0  0  0
  7 11  1  0  0  0  0
  8 12  1  0  0  0  0
  1 14  1  0  0  0  0
  2 15  1  0  0  0  0
  3 16  1  0  0  0  0
  5 17  1  0  0  0  0
  5 18  1  0  0  0  0
  6 19  1  0  0  0  0
  6 20  1  0  0  0  0
  7 21  1  0  0  0  0
  7 22  1  0  0  0  0
  8 23  1  0  0  0  0
  8 24  1  0  0  0  0
 11 25  1  0  0  0  0
 11 26  1  0  0  0  0
 12 27  1  0  0  0  0
M  END
> <FRED Chemgauss4 score>
-9.038651

$$$$
C36131303	P53675666
  -OEChem-05122015313D

 33 34  0     1  0  0  0  0  0999 V2000
  119.6749  103.6794  106.5406 C   0  0  0  0  0  0  0  0  0  0  0  0
  120.8096  104.5444  104.5910 C   0  0  0  0  0  0  0  0  0  0  0  0
  118.4563  103.7586  105.8665 C   0  0  0  0  0  0  0  0  0  0  0  0
  119.5910  104.6235  103.9168 C   0  0  0  0  0  0  0  0  0  0  0  0
  120.8516  104.0724  105.9029 C   0  0  0  0  0  0  0  0  0  0  0  0
  118.4144  104.2306  104.5546 C   0  0  0  0  0  0  0  0  0  0  0  0
  117.1166  108.3902  104.3894 C   0  0  0  0  0  0  0  0  0  0  0  0
  118.3364  107.5259  104.5308 C   0  0  0  0  0  0  0  0  0  0  0  0
  117.1837  107.0652  103.6847 C   0  0  0  0  0  0  0  0  0  0  0  0
  114.8816  106.2234  103.9138 C   0  0  0  0  0  0  0  0  0  0  0  0
  114.1446  105.9482  105.2118 C   0  0  0  0  0  0  0  0  0  0  0  0
  122.0840  103.9927  106.5841 N   0  0  0  0  0  0  0  0  0  0  0  0
  116.3254  105.9222  104.0873 N   0  0  1  0  0  0  0  0  0  0  0  0
  117.1557  104.2540  102.2778 O   0  0  0  0  0  0  0  0  0  0  0  0
  115.9773  103.3567  104.3003 O   0  0  0  0  0  0  0  0  0  0  0  0
  114.2739  104.5721  105.5456 O   0  0  0  0  0  0  0  0  0  0  0  0
  116.8676  104.3320  103.6981 S   0  0  0  0  0  0  0  0  0  0  0  0
  119.6960  103.3104  107.5629 H   0  0  0  0  0  0  0  0  0  0  0  0
  121.7208  104.8523  104.0842 H   0  0  0  0  0  0  0  0  0  0  0  0
  117.5460  103.4499  106.3733 H   0  0  0  0  0  0  0  0  0  0  0  0
  119.5702  104.9930  102.8949 H   0  0  0  0  0  0  0  0  0  0  0  0
  116.4649  108.4847  105.2492 H   0  0  0  0  0  0  0  0  0  0  0  0
  117.2003  109.2867  103.7876 H   0  0  0  0  0  0  0  0  0  0  0  0
  119.2401  107.8409  104.0240 H   0  0  0  0  0  0  0  0  0  0  0  0
  118.5011  107.0406  105.4850 H   0  0  0  0  0  0  0  0  0  0  0  0
  117.3220  107.0863  102.6096 H   0  0  0  0  0  0  0  0  0  0  0  0
  114.4969  105.6013  103.0994 H   0  0  0  0  0  0  0  0  0  0  0  0
  114.7839  107.2773  103.6365 H   0  0  0  0  0  0  0  0  0  0  0  0
  113.0792  106.1680  105.0917 H   0  0  0  0  0  0  0  0  0  0  0  0
  114.5424  106.5493  106.0359 H   0  0  0  0  0  0  0  0  0  0  0  0
  122.0952  103.6974  107.5393 H   0  0  0  0  0  0  0  0  0  0  0  0
  122.9131  104.3216  106.1321 H   0  0  0  0  0  0  0  0  0  0  0  0
  113.7910  104.4396  106.3772 H   0  0  0  0  0  0  0  0  0  0  0  0
  1  3  1  0  0  0  0
  1  5  2  0  0  0  0
  2  4  2  0  0  0  0
  2  5  1  0  0  0  0
  3  6  2  0  0  0  0
  4  6  1  0  0  0  0
  5 12  1  0  0  0  0
  6 17  1  0  0  0  0
  7  8  1  0  0  0  0
  7  9  1  0  0  0  0
  8  9  1  0  0  0  0
  9 13  1  0  0  0  0
 10 11  1  0  0  0  0
 10 13  1  0  0  0  0
 11 16  1  0  0  0  0
 13 17  1  0  0  0  0
 14 17  2  0  0  0  0
 15 17  2  0  0  0  0
  1 18  1  0  0  0  0
  2 19  1  0  0  0  0
  3 20  1  0  0  0  0
  4 21  1  0  0  0  0
  7 22  1  0  0  0  0
  7 23  1  0  0  0  0
  8 24  1  0  0  0  0
  8 25  1  0  0  0  0
  9 26  1  0  0  0  0
 10 27  1  0  0  0  0
 10 28  1  0  0  0  0
 11 29  1  0  0  0  0
 11 30  1  0  0  0  0
 12 31  1  0  0  0  0
 12 32  1  0  0  0  0
 16 33  1  0  0  0  0
M  END
> <FRED Chemgauss4 score>
-9.035130

$$$$
C87588443	P137003148
  -OEChem-05122015313D

 24 24  0     0  0  0  0  0  0999 V2000
  124.2619  106.9878  106.5957 C   0  0  0  0  0  0  0  0  0  0  0  0
  125.9727  108.1623  107.2304 C   0  0  0  0  0  0  0  0  0  0  0  0
  123.2711  105.8645  106.5066 C   0  0  0  0  0  0  0  0  0  0  0  0
  120.7717  105.1689  103.8913 C   0  0  0  0  0  0  0  0  0  0  0  0
  121.5510  104.9699  105.1784 C   0  0  0  0  0  0  0  0  0  0  0  0
  124.2577  108.1006  105.8971 N   0  0  0  0  0  0  0  0  0  0  0  0
  125.3462  108.8479  106.3009 N   0  0  0  0  0  0  0  0  0  0  0  0
  125.3244  106.9845  107.4477 N   0  0  0  0  0  0  0  0  0  0  0  0
  127.0889  108.4762  107.9267 N   0  0  0  0  0  0  0  0  0  0  0  0
  120.0481  106.4597  103.9433 N   0  0  0  0  0  0  0  0  0  0  0  0
  125.6727  105.9643  108.3628 N   0  0  0  0  0  0  0  0  0  0  0  0
  122.5098  106.0109  105.3157 O   0  0  0  0  0  0  0  0  0  0  0  0
  123.7793  104.8944  106.4885 H   0  0  0  0  0  0  0  0  0  0  0  0
  122.5952  105.8743  107.3685 H   0  0  0  0  0  0  0  0  0  0  0  0
  121.4375  105.1837  103.0225 H   0  0  0  0  0  0  0  0  0  0  0  0
  120.0352  104.3697  103.7645 H   0  0  0  0  0  0  0  0  0  0  0  0
  122.0889  104.0172  105.1474 H   0  0  0  0  0  0  0  0  0  0  0  0
  120.8927  104.9798  106.0532 H   0  0  0  0  0  0  0  0  0  0  0  0
  127.6209  109.3385  107.7452 H   0  0  0  0  0  0  0  0  0  0  0  0
  127.5108  107.8250  108.6033 H   0  0  0  0  0  0  0  0  0  0  0  0
  119.2411  106.5446  103.3804 H   0  0  0  0  0  0  0  0  0  0  0  0
  120.5152  107.2190  104.3683 H   0  0  0  0  0  0  0  0  0  0  0  0
  124.8618  105.4518  108.7245 H   0  0  0  0  0  0  0  0  0  0  0  0
  126.1468  106.3237  109.1980 H   0  0  0  0  0  0  0  0  0  0  0  0
  1  3  1  0  0  0  0
  1  6  2  0  0  0  0
  1  8  1  0  0  0  0
  2  7  2  0  0  0  0
  2  8  1  0  0  0  0
  2  9  1  0  0  0  0
  3 12  1  0  0  0  0
  4  5  1  0  0  0  0
  4 10  1  0  0  0  0
  5 12  1  0  0  0  0
  6  7  1  0  0  0  0
  8 11  1  0  0  0  0
  3 13  1  0  0  0  0
  3 14  1  0  0  0  0
  4 15  1  0  0  0  0
  4 16  1  0  0  0  0
  5 17  1  0  0  0  0
  5 18  1  0  0  0  0
  9 19  1  0  0  0  0
  9 20  1  0  0  0  0
 10 21  1  0  0  0  0
 10 22  1  0  0  0  0
 11 23  1  0  0  0  0
 11 24  1  0  0  0  0
M  END
> <FRED Chemgauss4 score>
-9.030970

$$$$
C42030400	P63621419
  -OEChem-05122015313D

 32 32  0     1  0  0  0  0  0999 V2000
  123.1601  106.6997  105.9165 C   0  0  0  0  0  0  0  0  0  0  0  0
  124.5973  107.6373  107.2449 C   0  0  0  0  0  0  0  0  0  0  0  0
  122.1903  105.7255  105.3853 C   0  0  0  0  0  0  0  0  0  0  0  0
  125.4126  104.0645  106.8933 C   0  0  0  0  0  0  0  0  0  0  0  0
  123.4775  107.9123  110.0529 C   0  0  0  0  0  0  0  0  0  0  0  0
  123.9790  104.1033  107.3964 C   0  0  0  0  0  0  0  0  0  0  0  0
  123.6515  105.4492  108.0394 C   0  0  0  0  0  0  0  0  0  0  0  0
  125.4958  107.8693  108.4519 C   0  0  2  0  0  0  0  0  0  0  0  0
  124.7452  108.6200  109.5789 C   0  0  1  0  0  0  0  0  0  0  0  0
  123.5470  107.8210  105.3513 N   0  0  0  0  0  0  0  0  0  0  0  0
  124.4614  108.4175  106.1964 N   0  0  0  0  0  0  0  0  0  0  0  0
  123.7963  106.5441  107.1106 N   0  0  0  0  0  0  0  0  0  0  0  0
  126.7188  108.5713  108.0473 N   0  0  0  0  0  0  0  0  0  0  0  0
  124.3550  109.9121  109.1011 O   0  0  0  0  0  0  0  0  0  0  0  0
  122.6902  104.9597  104.7683 H   0  0  0  0  0  0  0  0  0  0  0  0
  121.6442  105.2013  106.1892 H   0  0  0  0  0  0  0  0  0  0  0  0
  121.4183  106.2063  104.7587 H   0  0  0  0  0  0  0  0  0  0  0  0
  126.1191  104.2547  107.7075 H   0  0  0  0  0  0  0  0  0  0  0  0
  125.5658  104.8288  106.1250 H   0  0  0  0  0  0  0  0  0  0  0  0
  125.6479  103.0896  106.4544 H   0  0  0  0  0  0  0  0  0  0  0  0
  122.7846  107.7198  109.2290 H   0  0  0  0  0  0  0  0  0  0  0  0
  122.9611  108.5035  110.8172 H   0  0  0  0  0  0  0  0  0  0  0  0
  123.7291  106.9518  110.5168 H   0  0  0  0  0  0  0  0  0  0  0  0
  123.2972  103.9098  106.5596 H   0  0  0  0  0  0  0  0  0  0  0  0
  123.8277  103.2933  108.1201 H   0  0  0  0  0  0  0  0  0  0  0  0
  124.3100  105.6477  108.8934 H   0  0  0  0  0  0  0  0  0  0  0  0
  122.6215  105.4654  108.4153 H   0  0  0  0  0  0  0  0  0  0  0  0
  125.7973  106.8885  108.8435 H   0  0  0  0  0  0  0  0  0  0  0  0
  125.3963  108.7843  110.4450 H   0  0  0  0  0  0  0  0  0  0  0  0
  127.0911  108.3706  107.1480 H   0  0  0  0  0  0  0  0  0  0  0  0
  127.2295  109.0530  108.7508 H   0  0  0  0  0  0  0  0  0  0  0  0
  123.9442  110.3644  109.8517 H   0  0  0  0  0  0  0  0  0  0  0  0
  1  3  1  0  0  0  0
  1 10  2  0  0  0  0
  1 12  1  0  0  0  0
  2  8  1  0  0  0  0
  2 11  2  0  0  0  0
  2 12  1  0  0  0  0
  4  6  1  0  0  0  0
  5  9  1  0  0  0  0
  6  7  1  0  0  0  0
  7 12  1  0  0  0  0
  8  9  1  0  0  0  0
  8 13  1  0  0  0  0
  9 14  1  0  0  0  0
 10 11  1  0  0  0  0
  3 15  1  0  0  0  0
  3 16  1  0  0  0  0
  3 17  1  0  0  0  0
  4 18  1  0  0  0  0
  4 19  1  0  0  0  0
  4 20  1  0  0  0  0
  5 21  1  0  0  0  0
  5 22  1  0  0  0  0
  5 23  1  0  0  0  0
  6 24  1  0  0  0  0
  6 25  1  0  0  0  0
  7 26  1  0  0  0  0
  7 27  1  0  0  0  0
  8 28  1  0  0  0  0
  9 29  1  0  0  0  0
 13 30  1  0  0  0  0
 13 31  1  0  0  0  0
 14 32  1  0  0  0  0
M  END
> <FRED Chemgauss4 score>
-9.030218

$$$$
C91648739	P143473275
  -OEChem-05122015313D

 52 53  0     1  0  0  0  0  0999 V2000
  124.7724  106.2913  106.6800 C   0  0  0  0  0  0  0  0  0  0  0  0
  125.6932  107.3561  106.6707 C   0  0  0  0  0  0  0  0  0  0  0  0
  123.7608  106.7050  105.8481 C   0  0  0  0  0  0  0  0  0  0  0  0
  118.0804  103.9252  106.4740 C   0  0  0  0  0  0  0  0  0  0  0  0
  118.7419  104.5962  104.1265 C   0  0  0  0  0  0  0  0  0  0  0  0
  119.4547  104.3566  106.9897 C   0  0  0  0  0  0  0  0  0  0  0  0
  120.1185  105.0307  104.6336 C   0  0  0  0  0  0  0  0  0  0  0  0
  118.1350  103.4940  105.0033 C   0  0  0  0  0  0  0  0  0  0  0  0
  120.1248  105.4304  106.1178 C   0  0  0  0  0  0  0  0  0  0  0  0
  126.9738  107.4573  107.3941 C   0  0  0  0  0  0  0  0  0  0  0  0
  116.7433  103.1120  104.5022 C   0  0  0  0  0  0  0  0  0  0  0  0
  123.3828  108.7970  104.5076 C   0  0  0  0  0  0  0  0  0  0  0  0
  119.2687  107.1490  107.7033 C   0  0  0  0  0  0  0  0  0  0  0  0
  119.8999  107.7996  105.3841 C   0  0  0  0  0  0  0  0  0  0  0  0
  122.4817  106.0372  105.4286 C   0  0  0  0  0  0  0  0  0  0  0  0
  121.5507  105.7111  106.6000 C   0  0  2  0  0  0  0  0  0  0  0  0
  125.3015  108.3699  105.8943 N   0  0  0  0  0  0  0  0  0  0  0  0
  124.1233  107.9439  105.4079 N   0  0  0  0  0  0  0  0  0  0  0  0
  122.0340  104.4913  107.3045 N   0  3  0  0  0  0  0  0  0  0  0  0
  119.3584  106.7125  106.2685 N   0  3  0  0  0  0  0  0  0  0  0  0
  124.9072  104.8372  107.5356 Cl  0  0  0  0  0  0  0  0  0  0  0  0
  117.7148  103.0941  107.0895 H   0  0  0  0  0  0  0  0  0  0  0  0
  117.3613  104.7435  106.6014 H   0  0  0  0  0  0  0  0  0  0  0  0
  118.0693  105.4617  104.0879 H   0  0  0  0  0  0  0  0  0  0  0  0
  118.8405  104.2357  103.0952 H   0  0  0  0  0  0  0  0  0  0  0  0
  119.3562  104.7073  108.0249 H   0  0  0  0  0  0  0  0  0  0  0  0
  120.1009  103.4692  107.0262 H   0  0  0  0  0  0  0  0  0  0  0  0
  120.8175  104.1970  104.4836 H   0  0  0  0  0  0  0  0  0  0  0  0
  120.4870  105.8558  104.0107 H   0  0  0  0  0  0  0  0  0  0  0  0
  118.7744  102.6040  104.9293 H   0  0  0  0  0  0  0  0  0  0  0  0
  127.8059  107.0579  106.7903 H   0  0  0  0  0  0  0  0  0  0  0  0
  127.2222  108.5009  107.6554 H   0  0  0  0  0  0  0  0  0  0  0  0
  126.9571  106.9018  108.3482 H   0  0  0  0  0  0  0  0  0  0  0  0
  116.0807  103.9737  104.5615 H   0  0  0  0  0  0  0  0  0  0  0  0
  116.3389  102.3079  105.1145 H   0  0  0  0  0  0  0  0  0  0  0  0
  116.8028  102.7779  103.4677 H   0  0  0  0  0  0  0  0  0  0  0  0
  122.7211  109.4271  105.1077 H   0  0  0  0  0  0  0  0  0  0  0  0
  124.0803  109.4131  103.9334 H   0  0  0  0  0  0  0  0  0  0  0  0
  122.8016  108.1775  103.8188 H   0  0  0  0  0  0  0  0  0  0  0  0
  120.2819  107.3532  108.0542 H   0  0  0  0  0  0  0  0  0  0  0  0
  118.6514  108.0486  107.7409 H   0  0  0  0  0  0  0  0  0  0  0  0
  118.8128  106.3362  108.2719 H   0  0  0  0  0  0  0  0  0  0  0  0
  120.9216  108.0124  105.7040 H   0  0  0  0  0  0  0  0  0  0  0  0
  119.8786  107.4350  104.3553 H   0  0  0  0  0  0  0  0  0  0  0  0
  119.2608  108.6765  105.5031 H   0  0  0  0  0  0  0  0  0  0  0  0
  122.7381  105.1076  104.9018 H   0  0  0  0  0  0  0  0  0  0  0  0
  121.9567  106.6571  104.6891 H   0  0  0  0  0  0  0  0  0  0  0  0
  121.5341  106.5115  107.3439 H   0  0  0  0  0  0  0  0  0  0  0  0
  121.4471  103.6849  107.0744 H   0  0  0  0  0  0  0  0  0  0  0  0
  122.0091  104.6270  108.3189 H   0  0  0  0  0  0  0  0  0  0  0  0
  122.9970  104.2751  107.0332 H   0  0  0  0  0  0  0  0  0  0  0  0
  118.3967  106.5245  105.9540 H   0  0  0  0  0  0  0  0  0  0  0  0
  1  2  1  0  0  0  0
  1  3  2  0  0  0  0
  1 21  1  0  0  0  0
  2 10  1  0  0  0  0
  2 17  2  0  0  0  0
  3 15  1  0  0  0  0
  3 18  1  0  0  0  0
  4  6  1  0  0  0  0
  4  8  1  0  0  0  0
  5  7  1  0  0  0  0
  5  8  1  0  0  0  0
  6  9  1  0  0  0  0
  7  9  1  0  0  0  0
  8 11  1  0  0  0  0
  9 16  1  0  0  0  0
  9 20  1  0  0  0  0
 12 18  1  0  0  0  0
 13 20  1  0  0  0  0
 14 20  1  0  0  0  0
 15 16  1  0  0  0  0
 16 19  1  0  0  0  0
 17 18  1  0  0  0  0
  4 22  1  0  0  0  0
  4 23  1  0  0  0  0
  5 24  1  0  0  0  0
  5 25  1  0  0  0  0
  6 26  1  0  0  0  0
  6 27  1  0  0  0  0
  7 28  1  0  0  0  0
  7 29  1  0  0  0  0
  8 30  1  0  0  0  0
 10 31  1  0  0  0  0
 10 32  1  0  0  0  0
 10 33  1  0  0  0  0
 11 34  1  0  0  0  0
 11 35  1  0  0  0  0
 11 36  1  0  0  0  0
 12 37  1  0  0  0  0
 12 38  1  0  0  0  0
 12 39  1  0  0  0  0
 13 40  1  0  0  0  0
 13 41  1  0  0  0  0
 13 42  1  0  0  0  0
 14 43  1  0  0  0  0
 14 44  1  0  0  0  0
 14 45  1  0  0  0  0
 15 46  1  0  0  0  0
 15 47  1  0  0  0  0
 16 48  1  0  0  0  0
 19 49  1  0  0  0  0
 19 50  1  0  0  0  0
 19 51  1  0  0  0  0
 20 52  1  0  0  0  0
M  CHG  2  19   1  20   1
M  END
> <FRED Chemgauss4 score>
-9.029100

$$$$
C82471512	P128883647
  -OEChem-05122015313D

 28 28  0     0  0  0  0  0  0999 V2000
  120.7654  105.9826  104.9375 C   0  0  0  0  0  0  0  0  0  0  0  0
  121.9787  104.9659  106.4638 C   0  0  0  0  0  0  0  0  0  0  0  0
  120.7380  104.9331  105.8754 C   0  0  0  0  0  0  0  0  0  0  0  0
  119.6847  104.0164  106.1857 C   0  0  0  0  0  0  0  0  0  0  0  0
  126.0401  108.2922  107.6262 C   0  0  0  0  0  0  0  0  0  0  0  0
  125.8523  106.8247  107.9731 C   0  0  0  0  0  0  0  0  0  0  0  0
  124.4603  106.2851  107.6378 C   0  0  0  0  0  0  0  0  0  0  0  0
  124.0581  106.4355  106.1640 C   0  0  0  0  0  0  0  0  0  0  0  0
  121.9311  106.6347  104.9273 N   0  0  0  0  0  0  0  0  0  0  0  0
  122.6476  105.9933  105.8661 N   0  0  0  0  0  0  0  0  0  0  0  0
  119.9080  103.0468  107.1750 N   0  0  0  0  0  0  0  0  0  0  0  0
  125.1533  110.4556  108.0828 N   0  0  0  0  0  0  0  0  0  0  0  0
  125.1417  109.0946  108.3089 N   0  0  0  0  0  0  0  0  0  0  0  0
  118.5772  104.0396  105.5932 O   0  0  0  0  0  0  0  0  0  0  0  0
  126.8724  108.6873  106.8134 O   0  0  0  0  0  0  0  0  0  0  0  0
  119.9856  106.3026  104.2608 H   0  0  0  0  0  0  0  0  0  0  0  0
  122.4317  104.3625  107.2390 H   0  0  0  0  0  0  0  0  0  0  0  0
  126.0138  106.7329  109.0545 H   0  0  0  0  0  0  0  0  0  0  0  0
  126.6282  106.2269  107.4827 H   0  0  0  0  0  0  0  0  0  0  0  0
  124.4216  105.2261  107.9220 H   0  0  0  0  0  0  0  0  0  0  0  0
  123.7125  106.7989  108.2546 H   0  0  0  0  0  0  0  0  0  0  0  0
  124.7633  105.8967  105.5202 H   0  0  0  0  0  0  0  0  0  0  0  0
  124.1519  107.4912  105.8773 H   0  0  0  0  0  0  0  0  0  0  0  0
  120.8081  103.0227  107.6420 H   0  0  0  0  0  0  0  0  0  0  0  0
  119.2007  102.3689  107.4399 H   0  0  0  0  0  0  0  0  0  0  0  0
  124.1906  110.7784  108.1711 H   0  0  0  0  0  0  0  0  0  0  0  0
  125.4069  110.5909  107.1048 H   0  0  0  0  0  0  0  0  0  0  0  0
  124.4840  108.6874  108.9663 H   0  0  0  0  0  0  0  0  0  0  0  0
  1  3  1  0  0  0  0
  1  9  2  0  0  0  0
  2  3  2  0  0  0  0
  2 10  1  0  0  0  0
  3  4  1  0  0  0  0
  4 11  1  0  0  0  0
  4 14  2  0  0  0  0
  5  6  1  0  0  0  0
  5 13  1  0  0  0  0
  5 15  2  0  0  0  0
  6  7  1  0  0  0  0
  7  8  1  0  0  0  0
  8 10  1  0  0  0  0
  9 10  1  0  0  0  0
 12 13  1  0  0  0  0
  1 16  1  0  0  0  0
  2 17  1  0  0  0  0
  6 18  1  0  0  0  0
  6 19  1  0  0  0  0
  7 20  1  0  0  0  0
  7 21  1  0  0  0  0
  8 22  1  0  0  0  0
  8 23  1  0  0  0  0
 11 24  1  0  0  0  0
 11 25  1  0  0  0  0
 12 26  1  0  0  0  0
 12 27  1  0  0  0  0
 13 28  1  0  0  0  0
M  END
> <FRED Chemgauss4 score>
-9.020718

$$$$
C70638491	P108965909
  -OEChem-05122015313D

 31 32  0     1  0  0  0  0  0999 V2000
  120.4136  105.0710  105.2173 C   0  0  0  0  0  0  0  0  0  0  0  0
  121.3205  104.3719  106.1377 C   0  0  0  0  0  0  0  0  0  0  0  0
  121.5598  105.8857  104.7004 C   0  0  0  0  0  0  0  0  0  0  0  0
  124.4653  106.1684  108.7478 C   0  0  0  0  0  0  0  0  0  0  0  0
  124.4241  108.0687  107.1120 C   0  0  0  0  0  0  0  0  0  0  0  0
  123.9193  105.2598  107.6433 C   0  0  0  0  0  0  0  0  0  0  0  0
  123.8793  107.0981  106.0609 C   0  0  0  0  0  0  0  0  0  0  0  0
  122.5479  105.1298  105.6673 C   0  0  1  0  0  0  0  0  0  0  0  0
  125.2502  107.3650  108.1959 C   0  0  0  0  0  0  0  0  0  0  0  0
  126.6291  106.9487  107.6776 C   0  0  0  0  0  0  0  0  0  0  0  0
  121.0700  103.4557  106.9906 N   0  0  0  0  0  0  0  0  0  0  0  0
  123.1037  106.0194  106.6868 N   0  0  0  0  0  0  0  0  0  0  0  0
  127.4100  106.3909  108.8008 N   0  3  0  0  0  0  0  0  0  0  0  0
  119.2529  105.0154  104.9833 O   0  0  0  0  0  0  0  0  0  0  0  0
  121.5082  106.7457  103.8681 O   0  0  0  0  0  0  0  0  0  0  0  0
  123.6281  106.5268  109.3687 H   0  0  0  0  0  0  0  0  0  0  0  0
  125.1101  105.5754  109.4194 H   0  0  0  0  0  0  0  0  0  0  0  0
  125.0397  108.8368  106.6123 H   0  0  0  0  0  0  0  0  0  0  0  0
  123.5827  108.6091  107.5763 H   0  0  0  0  0  0  0  0  0  0  0  0
  124.7699  104.8026  107.1232 H   0  0  0  0  0  0  0  0  0  0  0  0
  123.3392  104.4436  108.0945 H   0  0  0  0  0  0  0  0  0  0  0  0
  123.2700  107.6504  105.3332 H   0  0  0  0  0  0  0  0  0  0  0  0
  124.7295  106.6727  105.5136 H   0  0  0  0  0  0  0  0  0  0  0  0
  123.2831  104.5033  105.1563 H   0  0  0  0  0  0  0  0  0  0  0  0
  125.4065  108.0812  109.0245 H   0  0  0  0  0  0  0  0  0  0  0  0
  127.1763  107.8058  107.2888 H   0  0  0  0  0  0  0  0  0  0  0  0
  126.5439  106.1735  106.9179 H   0  0  0  0  0  0  0  0  0  0  0  0
  120.0668  103.2252  106.9741 H   0  0  0  0  0  0  0  0  0  0  0  0
  127.3217  106.9740  109.6426 H   0  0  0  0  0  0  0  0  0  0  0  0
  128.4093  106.3321  108.5669 H   0  0  0  0  0  0  0  0  0  0  0  0
  127.0911  105.4443  109.0432 H   0  0  0  0  0  0  0  0  0  0  0  0
  1  2  1  0  0  0  0
  1  3  1  0  0  0  0
  1 14  2  0  0  0  0
  2  8  1  0  0  0  0
  2 11  2  0  0  0  0
  3  8  1  0  0  0  0
  3 15  2  0  0  0  0
  4  6  1  0  0  0  0
  4  9  1  0  0  0  0
  5  7  1  0  0  0  0
  5  9  1  0  0  0  0
  6 12  1  0  0  0  0
  7 12  1  0  0  0  0
  8 12  1  0  0  0  0
  9 10  1  0  0  0  0
 10 13  1  0  0  0  0
  4 16  1  0  0  0  0
  4 17  1  0  0  0  0
  5 18  1  0  0  0  0
  5 19  1  0  0  0  0
  6 20  1  0  0  0  0
  6 21  1  0  0  0  0
  7 22  1  0  0  0  0
  7 23  1  0  0  0  0
  8 24  1  0  0  0  0
  9 25  1  0  0  0  0
 10 26  1  0  0  0  0
 10 27  1  0  0  0  0
 11 28  1  0  0  0  0
 13 29  1  0  0  0  0
 13 30  1  0  0  0  0
 13 31  1  0  0  0  0
M  CHG  1  13   1
M  END
> <FRED Chemgauss4 score>
-9.020224

$$$$
C37730086	P56098235
  -OEChem-05122015313D

 21 21  0     0  0  0  0  0  0999 V2000
  123.8086  108.7681  111.1001 C   0  0  0  0  0  0  0  0  0  0  0  0
  123.9609  110.7062  111.8603 C   0  0  0  0  0  0  0  0  0  0  0  0
  124.6327  107.6025  108.3706 C   0  0  0  0  0  0  0  0  0  0  0  0
  126.0730  105.7224  109.1109 C   0  0  0  0  0  0  0  0  0  0  0  0
  124.5033  109.0968  108.5977 C   0  0  0  0  0  0  0  0  0  0  0  0
  123.6462  109.4916  112.2468 N   0  0  0  0  0  0  0  0  0  0  0  0
  124.2940  110.6949  110.5417 N   0  0  0  0  0  0  0  0  0  0  0  0
  124.2040  109.4585  110.0285 N   0  0  0  0  0  0  0  0  0  0  0  0
  123.9328  111.7593  112.7088 N   0  0  0  0  0  0  0  0  0  0  0  0
  127.1632  105.5012  109.9346 N   0  0  0  0  0  0  0  0  0  0  0  0
  125.6949  107.0683  109.1037 N   0  0  0  0  0  0  0  0  0  0  0  0
  123.8882  106.9613  107.6339 O   0  0  0  0  0  0  0  0  0  0  0  0
  125.5232  104.8258  108.4740 O   0  0  0  0  0  0  0  0  0  0  0  0
  123.6275  107.7012  111.0654 H   0  0  0  0  0  0  0  0  0  0  0  0
  125.4352  109.5819  108.2810 H   0  0  0  0  0  0  0  0  0  0  0  0
  123.7109  109.4855  107.9456 H   0  0  0  0  0  0  0  0  0  0  0  0
  123.6182  111.6657  113.6844 H   0  0  0  0  0  0  0  0  0  0  0  0
  124.1339  112.7186  112.3942 H   0  0  0  0  0  0  0  0  0  0  0  0
  127.5719  106.2843  110.4334 H   0  0  0  0  0  0  0  0  0  0  0  0
  127.5643  104.5771  110.0528 H   0  0  0  0  0  0  0  0  0  0  0  0
  126.2363  107.7094  109.6777 H   0  0  0  0  0  0  0  0  0  0  0  0
  1  6  2  0  0  0  0
  1  8  1  0  0  0  0
  2  6  1  0  0  0  0
  2  7  2  0  0  0  0
  2  9  1  0  0  0  0
  3  5  1  0  0  0  0
  3 11  1  0  0  0  0
  3 12  2  0  0  0  0
  4 10  1  0  0  0  0
  4 11  1  0  0  0  0
  4 13  2  0  0  0  0
  5  8  1  0  0  0  0
  7  8  1  0  0  0  0
  1 14  1  0  0  0  0
  5 15  1  0  0  0  0
  5 16  1  0  0  0  0
  9 17  1  0  0  0  0
  9 18  1  0  0  0  0
 10 19  1  0  0  0  0
 10 20  1  0  0  0  0
 11 21  1  0  0  0  0
M  END
> <FRED Chemgauss4 score>
-9.015306

$$$$
C83693137	P130915850
  -OEChem-05122015313D

 25 25  0     0  0  0  0  0  0999 V2000
  125.1762  107.9551  106.6397 C   0  0  0  0  0  0  0  0  0  0  0  0
  127.2017  107.6889  107.2370 C   0  0  0  0  0  0  0  0  0  0  0  0
  125.1776  108.0960  108.0074 C   0  0  0  0  0  0  0  0  0  0  0  0
  124.0844  108.3756  108.9978 C   0  0  0  0  0  0  0  0  0  0  0  0
  122.0835  109.5579  110.6957 C   0  0  0  0  0  0  0  0  0  0  0  0
  124.0099  108.4509  111.8801 C   0  0  0  0  0  0  0  0  0  0  0  0
  123.5806  109.6157  110.9902 C   0  0  0  0  0  0  0  0  0  0  0  0
  126.4392  107.7015  106.1663 N   0  0  0  0  0  0  0  0  0  0  0  0
  126.4819  107.9225  108.3757 N   0  0  0  0  0  0  0  0  0  0  0  0
  124.3298  109.6017  109.7506 N   0  0  0  0  0  0  0  0  0  0  0  0
  121.7166  110.6748  109.8935 O   0  0  0  0  0  0  0  0  0  0  0  0
  123.6824  108.7449  113.2334 O   0  0  0  0  0  0  0  0  0  0  0  0
  124.3311  108.0228  105.9694 H   0  0  0  0  0  0  0  0  0  0  0  0
  128.2688  107.5188  107.2570 H   0  0  0  0  0  0  0  0  0  0  0  0
  123.1198  108.4795  108.4891 H   0  0  0  0  0  0  0  0  0  0  0  0
  123.9862  107.5554  109.7167 H   0  0  0  0  0  0  0  0  0  0  0  0
  121.5030  109.6086  111.6228 H   0  0  0  0  0  0  0  0  0  0  0  0
  121.8154  108.6413  110.1589 H   0  0  0  0  0  0  0  0  0  0  0  0
  125.0885  108.2708  111.8145 H   0  0  0  0  0  0  0  0  0  0  0  0
  123.4804  107.5341  111.6009 H   0  0  0  0  0  0  0  0  0  0  0  0
  123.8354  110.5682  111.4700 H   0  0  0  0  0  0  0  0  0  0  0  0
  126.8507  107.9606  109.3169 H   0  0  0  0  0  0  0  0  0  0  0  0
  124.0579  110.4021  109.1755 H   0  0  0  0  0  0  0  0  0  0  0  0
  120.7629  110.5992  109.7310 H   0  0  0  0  0  0  0  0  0  0  0  0
  123.9705  107.9833  113.7612 H   0  0  0  0  0  0  0  0  0  0  0  0
  1  3  2  0  0  0  0
  1  8  1  0  0  0  0
  2  8  2  0  0  0  0
  2  9  1  0  0  0  0
  3  4  1  0  0  0  0
  3  9  1  0  0  0  0
  4 10  1  0  0  0  0
  5  7  1  0  0  0  0
  5 11  1  0  0  0  0
  6  7  1  0  0  0  0
  6 12  1  0  0  0  0
  7 10  1  0  0  0  0
  1 13  1  0  0  0  0
  2 14  1  0  0  0  0
  4 15  1  0  0  0  0
  4 16  1  0  0  0  0
  5 17  1  0  0  0  0
  5 18  1  0  0  0  0
  6 19  1  0  0  0  0
  6 20  1  0  0  0  0
  7 21  1  0  0  0  0
  9 22  1  0  0  0  0
 10 23  1  0  0  0  0
 11 24  1  0  0  0  0
 12 25  1  0  0  0  0
M  END
> <FRED Chemgauss4 score>
-9.010681

$$$$
C82381623	P128718450
  -OEChem-05122015313D

 29 30  0     1  0  0  0  0  0999 V2000
  126.2716  106.5408  107.5977 C   0  0  0  0  0  0  0  0  0  0  0  0
  125.0062  106.0919  107.2365 C   0  0  0  0  0  0  0  0  0  0  0  0
  126.6570  107.8029  107.1753 C   0  0  0  0  0  0  0  0  0  0  0  0
  119.4021  103.6877  106.3015 C   0  0  0  0  0  0  0  0  0  0  0  0
  124.6556  108.1530  106.1029 C   0  0  0  0  0  0  0  0  0  0  0  0
  118.6019  104.8057  106.3112 C   0  0  0  0  0  0  0  0  0  0  0  0
  124.1765  106.9072  106.4747 C   0  0  0  0  0  0  0  0  0  0  0  0
  120.6795  105.2968  106.8578 C   0  0  0  0  0  0  0  0  0  0  0  0
  119.0504  107.2127  106.8171 C   0  0  0  0  0  0  0  0  0  0  0  0
  121.8638  106.1437  107.2647 C   0  0  0  0  0  0  0  0  0  0  0  0
  122.8175  106.4558  106.0731 C   0  0  1  0  0  0  0  0  0  0  0  0
  125.8789  108.6235  106.4346 N   0  0  0  0  0  0  0  0  0  0  0  0
  120.6942  104.0000  106.6429 N   0  0  0  0  0  0  0  0  0  0  0  0
  119.4341  105.8285  106.6697 N   0  0  0  0  0  0  0  0  0  0  0  0
  122.1381  107.4375  105.1970 N   0  0  0  0  0  0  0  0  0  0  0  0
  126.9352  105.9224  108.1912 H   0  0  0  0  0  0  0  0  0  0  0  0
  124.6751  105.1064  107.5528 H   0  0  0  0  0  0  0  0  0  0  0  0
  127.6344  108.1988  107.4307 H   0  0  0  0  0  0  0  0  0  0  0  0
  119.1136  102.6736  106.0661 H   0  0  0  0  0  0  0  0  0  0  0  0
  124.0534  108.8330  105.5083 H   0  0  0  0  0  0  0  0  0  0  0  0
  117.5519  104.9552  106.1018 H   0  0  0  0  0  0  0  0  0  0  0  0
  118.7367  107.3673  107.8529 H   0  0  0  0  0  0  0  0  0  0  0  0
  119.9024  107.8544  106.5759 H   0  0  0  0  0  0  0  0  0  0  0  0
  118.2289  107.4351  106.1304 H   0  0  0  0  0  0  0  0  0  0  0  0
  122.3965  105.6077  108.0628 H   0  0  0  0  0  0  0  0  0  0  0  0
  121.5097  107.0748  107.7267 H   0  0  0  0  0  0  0  0  0  0  0  0
  122.8917  105.5326  105.4649 H   0  0  0  0  0  0  0  0  0  0  0  0
  121.1519  107.4009  105.1626 H   0  0  0  0  0  0  0  0  0  0  0  0
  122.7019  107.9281  104.5514 H   0  0  0  0  0  0  0  0  0  0  0  0
  1  2  2  0  0  0  0
  1  3  1  0  0  0  0
  2  7  1  0  0  0  0
  3 12  2  0  0  0  0
  4  6  2  0  0  0  0
  4 13  1  0  0  0  0
  5  7  2  0  0  0  0
  5 12  1  0  0  0  0
  6 14  1  0  0  0  0
  7 11  1  0  0  0  0
  8 10  1  0  0  0  0
  8 13  2  0  0  0  0
  8 14  1  0  0  0  0
  9 14  1  0  0  0  0
 10 11  1  0  0  0  0
 11 15  1  0  0  0  0
  1 16  1  0  0  0  0
  2 17  1  0  0  0  0
  3 18  1  0  0  0  0
  4 19  1  0  0  0  0
  5 20  1  0  0  0  0
  6 21  1  0  0  0  0
  9 22  1  0  0  0  0
  9 23  1  0  0  0  0
  9 24  1  0  0  0  0
 10 25  1  0  0  0  0
 10 26  1  0  0  0  0
 11 27  1  0  0  0  0
 15 28  1  0  0  0  0
 15 29  1  0  0  0  0
M  END
> <FRED Chemgauss4 score>
-9.006573

$$$$
Penicillamine	P10000034
  -OEChem-05122015313D

 20 19  0     1  0  0  0  0  0999 V2000
  125.3258  108.5751  107.9591 C   0  0  0  0  0  0  0  0  0  0  0  0
  125.5481  106.0135  106.1793 C   0  0  0  0  0  0  0  0  0  0  0  0
  125.0660  104.6533  108.2269 C   0  0  0  0  0  0  0  0  0  0  0  0
  125.5194  107.1476  108.5056 C   0  0  1  0  0  0  0  0  0  0  0  0
  124.9269  106.0446  107.5845 C   0  0  0  0  0  0  0  0  0  0  0  0
  126.9603  106.8434  108.7929 N   0  3  0  0  0  0  0  0  0  0  0  0
  125.8519  108.7859  106.8289 O   0  5  0  0  0  0  0  0  0  0  0  0
  124.6821  109.3658  108.7045 O   0  0  0  0  0  0  0  0  0  0  0  0
  123.1114  106.3355  107.3667 S   0  0  0  0  0  0  0  0  0  0  0  0
  125.4674  106.9899  105.6899 H   0  0  0  0  0  0  0  0  0  0  0  0
  125.0696  105.2764  105.5255 H   0  0  0  0  0  0  0  0  0  0  0  0
  126.6178  105.7722  106.2177 H   0  0  0  0  0  0  0  0  0  0  0  0
  124.6358  104.6238  109.2354 H   0  0  0  0  0  0  0  0  0  0  0  0
  124.5377  103.8925  107.6413 H   0  0  0  0  0  0  0  0  0  0  0  0
  126.1151  104.3430  108.2981 H   0  0  0  0  0  0  0  0  0  0  0  0
  125.0292  107.1089  109.4881 H   0  0  0  0  0  0  0  0  0  0  0  0
  127.1469  105.8533  108.6364 H   0  0  0  0  0  0  0  0  0  0  0  0
  127.1788  107.0709  109.7627 H   0  0  0  0  0  0  0  0  0  0  0  0
  127.5629  107.3934  108.1811 H   0  0  0  0  0  0  0  0  0  0  0  0
  122.9137  105.2309  106.6407 H   0  0  0  0  0  0  0  0  0  0  0  0
  1  4  1  0  0  0  0
  1  7  1  0  0  0  0
  1  8  2  0  0  0  0
  2  5  1  0  0  0  0
  3  5  1  0  0  0  0
  4  5  1  0  0  0  0
  4  6  1  0  0  0  0
  5  9  1  0  0  0  0
  2 10  1  0  0  0  0
  2 11  1  0  0  0  0
  2 12  1  0  0  0  0
  3 13  1  0  0  0  0
  3 14  1  0  0  0  0
  3 15  1  0  0  0  0
  4 16  1  0  0  0  0
  6 17  1  0  0  0  0
  6 18  1  0  0  0  0
  6 19  1  0  0  0  0
  9 20  1  0  0  0  0
M  CHG  2   6   1   7  -1
M  END
> <FRED Chemgauss4 score>
-8.986105

$$$$
C84472387	P153165800
  -OEChem-05122015313D

 45 46  0     1  0  0  0  0  0999 V2000
  125.4724  104.3677  108.8882 C   0  0  0  0  0  0  0  0  0  0  0  0
  125.3193  103.9917  107.4145 C   0  0  0  0  0  0  0  0  0  0  0  0
  125.2816  105.8797  108.9627 C   0  0  0  0  0  0  0  0  0  0  0  0
  125.0360  105.2936  106.6707 C   0  0  0  0  0  0  0  0  0  0  0  0
  117.9460  106.2455  106.4293 C   0  0  0  0  0  0  0  0  0  0  0  0
  119.1394  104.0131  106.3832 C   0  0  0  0  0  0  0  0  0  0  0  0
  124.4612  106.2370  107.7252 C   0  0  0  0  0  0  0  0  0  0  0  0
  117.9747  104.8382  105.8110 C   0  0  1  0  0  0  0  0  0  0  0  0
  119.2796  107.0024  106.2806 C   0  0  1  0  0  0  0  0  0  0  0  0
  120.5027  104.7057  106.2235 C   0  0  2  0  0  0  0  0  0  0  0  0
  120.4355  106.1280  106.8112 C   0  0  1  0  0  0  0  0  0  0  0  0
  116.6453  104.1228  106.0552 C   0  0  0  0  0  0  0  0  0  0  0  0
  119.4486  107.5256  104.8498 C   0  0  0  0  0  0  0  0  0  0  0  0
  122.9643  106.0228  107.9400 C   0  0  0  0  0  0  0  0  0  0  0  0
  120.9077  104.6769  104.8177 N   0  0  0  0  0  0  0  0  0  0  0  0
  121.8028  108.2834  107.3292 O   0  0  0  0  0  0  0  0  0  0  0  0
  122.5719  106.7655  105.4648 O   0  0  0  0  0  0  0  0  0  0  0  0
  122.0002  106.9582  106.7808 S   0  0  0  0  0  0  0  0  0  0  0  0
  124.7470  103.8442  109.5197 H   0  0  0  0  0  0  0  0  0  0  0  0
  126.4732  104.0909  109.2402 H   0  0  0  0  0  0  0  0  0  0  0  0
  126.2489  103.5390  107.0493 H   0  0  0  0  0  0  0  0  0  0  0  0
  124.5177  103.2619  107.2599 H   0  0  0  0  0  0  0  0  0  0  0  0
  124.7340  106.1381  109.8817 H   0  0  0  0  0  0  0  0  0  0  0  0
  126.2414  106.4129  108.9935 H   0  0  0  0  0  0  0  0  0  0  0  0
  125.9406  105.6999  106.1972 H   0  0  0  0  0  0  0  0  0  0  0  0
  124.3028  105.1102  105.8697 H   0  0  0  0  0  0  0  0  0  0  0  0
  117.1431  106.8209  105.9539 H   0  0  0  0  0  0  0  0  0  0  0  0
  117.6783  106.1757  107.4905 H   0  0  0  0  0  0  0  0  0  0  0  0
  118.9484  103.7998  107.4435 H   0  0  0  0  0  0  0  0  0  0  0  0
  119.1576  103.0373  105.8800 H   0  0  0  0  0  0  0  0  0  0  0  0
  124.6402  107.2687  107.4421 H   0  0  0  0  0  0  0  0  0  0  0  0
  118.1051  104.9291  104.7458 H   0  0  0  0  0  0  0  0  0  0  0  0
  119.2239  107.8840  106.9303 H   0  0  0  0  0  0  0  0  0  0  0  0
  121.2391  104.1398  106.7885 H   0  0  0  0  0  0  0  0  0  0  0  0
  120.2610  106.0097  107.9380 H   0  0  0  0  0  0  0  0  0  0  0  0
  116.4814  104.0139  107.1243 H   0  0  0  0  0  0  0  0  0  0  0  0
  116.6707  103.1395  105.5923 H   0  0  0  0  0  0  0  0  0  0  0  0
  115.8344  104.7039  105.6233 H   0  0  0  0  0  0  0  0  0  0  0  0
  119.5097  106.6880  104.1584 H   0  0  0  0  0  0  0  0  0  0  0  0
  120.3601  108.1152  104.7808 H   0  0  0  0  0  0  0  0  0  0  0  0
  118.5970  108.1485  104.5847 H   0  0  0  0  0  0  0  0  0  0  0  0
  122.6630  106.3421  108.9416 H   0  0  0  0  0  0  0  0  0  0  0  0
  122.6965  104.9711  107.8078 H   0  0  0  0  0  0  0  0  0  0  0  0
  120.6510  103.8829  104.2749 H   0  0  0  0  0  0  0  0  0  0  0  0
  121.5863  105.3394  104.5147 H   0  0  0  0  0  0  0  0  0  0  0  0
  1  2  1  0  0  0  0
  1  3  1  0  0  0  0
  2  4  1  0  0  0  0
  3  7  1  0  0  0  0
  4  7  1  0  0  0  0
  5  8  1  0  0  0  0
  5  9  1  0  0  0  0
  6  8  1  0  0  0  0
  6 10  1  0  0  0  0
  7 14  1  0  0  0  0
  8 12  1  0  0  0  0
  9 11  1  0  0  0  0
  9 13  1  0  0  0  0
 10 11  1  0  0  0  0
 10 15  1  0  0  0  0
 11 18  1  0  0  0  0
 14 18  1  0  0  0  0
 16 18  2  0  0  0  0
 17 18  2  0  0  0  0
  1 19  1  0  0  0  0
  1 20  1  0  0  0  0
  2 21  1  0  0  0  0
  2 22  1  0  0  0  0
  3 23  1  0  0  0  0
  3 24  1  0  0  0  0
  4 25  1  0  0  0  0
  4 26  1  0  0  0  0
  5 27  1  0  0  0  0
  5 28  1  0  0  0  0
  6 29  1  0  0  0  0
  6 30  1  0  0  0  0
  7 31  1  0  0  0  0
  8 32  1  0  0  0  0
  9 33  1  0  0  0  0
 10 34  1  0  0  0  0
 11 35  1  0  0  0  0
 12 36  1  0  0  0  0
 12 37  1  0  0  0  0
 12 38  1  0  0  0  0
 13 39  1  0  0  0  0
 13 40  1  0  0  0  0
 13 41  1  0  0  0  0
 14 42  1  0  0  0  0
 14 43  1  0  0  0  0
 15 44  1  0  0  0  0
 15 45  1  0  0  0  0
M  END
> <FRED Chemgauss4 score>
-8.985324

$$$$
C71025116	P109616447
  -OEChem-05122015313D

 35 35  0     1  0  0  0  0  0999 V2000
  125.8919  105.8884  108.9231 C   0  0  0  0  0  0  0  0  0  0  0  0
  126.1104  104.5832  108.4825 C   0  0  0  0  0  0  0  0  0  0  0  0
  124.1839  104.7494  107.0341 C   0  0  0  0  0  0  0  0  0  0  0  0
  123.9653  106.0547  107.4747 C   0  0  0  0  0  0  0  0  0  0  0  0
  124.8193  106.6242  108.4192 C   0  0  0  0  0  0  0  0  0  0  0  0
  125.2565  104.0136  107.5381 C   0  0  0  0  0  0  0  0  0  0  0  0
  121.4536  106.1580  107.2052 C   0  0  0  0  0  0  0  0  0  0  0  0
  121.9855  109.7986  110.7967 C   0  0  0  0  0  0  0  0  0  0  0  0
  125.2446  109.0579  108.1822 C   0  0  0  0  0  0  0  0  0  0  0  0
  123.7739  108.2099  110.0170 C   0  0  0  0  0  0  0  0  0  0  0  0
  122.8086  106.8195  106.9184 C   0  0  2  0  0  0  0  0  0  0  0  0
  122.5999  109.0907  109.5966 C   0  0  1  0  0  0  0  0  0  0  0  0
  122.9483  107.0561  105.4925 N   0  0  0  0  0  0  0  0  0  0  0  0
  124.6143  107.9334  108.8739 N   0  0  3  0  0  0  0  0  0  0  0  0
  121.6041  108.2658  108.9946 O   0  0  0  0  0  0  0  0  0  0  0  0
  125.4665  102.7602  107.1148 F   0  0  0  0  0  0  0  0  0  0  0  0
  126.5637  106.3215  109.6600 H   0  0  0  0  0  0  0  0  0  0  0  0
  126.9458  104.0104  108.8743 H   0  0  0  0  0  0  0  0  0  0  0  0
  123.5246  104.2962  106.2987 H   0  0  0  0  0  0  0  0  0  0  0  0
  121.4201  105.1457  106.7877 H   0  0  0  0  0  0  0  0  0  0  0  0
  121.2679  106.0870  108.2828 H   0  0  0  0  0  0  0  0  0  0  0  0
  120.6244  106.7294  106.7729 H   0  0  0  0  0  0  0  0  0  0  0  0
  121.6559  109.0823  111.5555 H   0  0  0  0  0  0  0  0  0  0  0  0
  122.7020  110.4907  111.2529 H   0  0  0  0  0  0  0  0  0  0  0  0
  121.1225  110.3984  110.4875 H   0  0  0  0  0  0  0  0  0  0  0  0
  124.9762  109.9979  108.6714 H   0  0  0  0  0  0  0  0  0  0  0  0
  124.9123  109.0956  107.1412 H   0  0  0  0  0  0  0  0  0  0  0  0
  126.3325  108.9504  108.1992 H   0  0  0  0  0  0  0  0  0  0  0  0
  124.3787  108.7074  110.7828 H   0  0  0  0  0  0  0  0  0  0  0  0
  123.4171  107.2588  110.4254 H   0  0  0  0  0  0  0  0  0  0  0  0
  122.7720  107.8284  107.3638 H   0  0  0  0  0  0  0  0  0  0  0  0
  122.9206  109.8301  108.8537 H   0  0  0  0  0  0  0  0  0  0  0  0
  123.8629  107.2295  105.1249 H   0  0  0  0  0  0  0  0  0  0  0  0
  122.1236  107.2409  104.9564 H   0  0  0  0  0  0  0  0  0  0  0  0
  120.8841  108.8563  108.7249 H   0  0  0  0  0  0  0  0  0  0  0  0
  1  2  2  0  0  0  0
  1  5  1  0  0  0  0
  2  6  1  0  0  0  0
  3  4  1  0  0  0  0
  3  6  2  0  0  0  0
  4  5  2  0  0  0  0
  4 11  1  0  0  0  0
  5 14  1  0  0  0  0
  6 16  1  0  0  0  0
  7 11  1  0  0  0  0
  8 12  1  0  0  0  0
  9 14  1  0  0  0  0
 10 12  1  0  0  0  0
 10 14  1  0  0  0  0
 11 13  1  0  0  0  0
 12 15  1  0  0  0  0
  1 17  1  0  0  0  0
  2 18  1  0  0  0  0
  3 19  1  0  0  0  0
  7 20  1  0  0  0  0
  7 21  1  0  0  0  0
  7 22  1  0  0  0  0
  8 23  1  0  0  0  0
  8 24  1  0  0  0  0
  8 25  1  0  0  0  0
  9 26  1  0  0  0  0
  9 27  1  0  0  0  0
  9 28  1  0  0  0  0
 10 29  1  0  0  0  0
 10 30  1  0  0  0  0
 11 31  1  0  0  0  0
 12 32  1  0  0  0  0
 13 33  1  0  0  0  0
 13 34  1  0  0  0  0
 15 35  1  0  0  0  0
M  END
> <FRED Chemgauss4 score>
-8.981290

$$$$
C85004486	P133054956
  -OEChem-05122015313D

 24 24  0     1  0  0  0  0  0999 V2000
  123.5583  108.5716  108.0966 C   0  0  0  0  0  0  0  0  0  0  0  0
  123.3638  109.0332  110.2085 C   0  0  0  0  0  0  0  0  0  0  0  0
  124.6145  106.4249  105.9980 C   0  0  0  0  0  0  0  0  0  0  0  0
  123.9730  108.7511  106.6708 C   0  0  0  0  0  0  0  0  0  0  0  0
  126.2873  107.7984  107.3275 C   0  0  0  0  0  0  0  0  0  0  0  0
  125.1481  107.8353  106.2864 C   0  0  1  0  0  0  0  0  0  0  0  0
  122.8757  107.5602  108.5461 N   0  0  0  0  0  0  0  0  0  0  0  0
  123.8895  109.4945  109.0223 N   0  0  0  0  0  0  0  0  0  0  0  0
  122.7373  107.8240  109.8790 N   0  0  0  0  0  0  0  0  0  0  0  0
  126.8135  109.1140  107.6699 N   0  0  0  0  0  0  0  0  0  0  0  0
  123.4262  109.5578  111.3098 O   0  0  0  0  0  0  0  0  0  0  0  0
  125.6957  108.3369  105.0588 O   0  0  0  0  0  0  0  0  0  0  0  0
  125.4327  105.7498  105.7208 H   0  0  0  0  0  0  0  0  0  0  0  0
  124.0945  105.9977  106.8613 H   0  0  0  0  0  0  0  0  0  0  0  0
  123.9238  106.4351  105.1471 H   0  0  0  0  0  0  0  0  0  0  0  0
  123.0943  108.5126  106.0598 H   0  0  0  0  0  0  0  0  0  0  0  0
  124.2213  109.8067  106.5202 H   0  0  0  0  0  0  0  0  0  0  0  0
  127.1098  107.1825  106.9425 H   0  0  0  0  0  0  0  0  0  0  0  0
  125.9516  107.2899  108.2394 H   0  0  0  0  0  0  0  0  0  0  0  0
  124.4148  110.3481  108.8759 H   0  0  0  0  0  0  0  0  0  0  0  0
  122.2500  107.2292  110.5370 H   0  0  0  0  0  0  0  0  0  0  0  0
  126.9072  109.7890  106.9405 H   0  0  0  0  0  0  0  0  0  0  0  0
  127.2478  109.2308  108.5611 H   0  0  0  0  0  0  0  0  0  0  0  0
  124.9658  108.3440  104.4244 H   0  0  0  0  0  0  0  0  0  0  0  0
  1  4  1  0  0  0  0
  1  7  2  0  0  0  0
  1  8  1  0  0  0  0
  2  8  1  0  0  0  0
  2  9  1  0  0  0  0
  2 11  2  0  0  0  0
  3  6  1  0  0  0  0
  4  6  1  0  0  0  0
  5  6  1  0  0  0  0
  5 10  1  0  0  0  0
  6 12  1  0  0  0  0
  7  9  1  0  0  0  0
  3 13  1  0  0  0  0
  3 14  1  0  0  0  0
  3 15  1  0  0  0  0
  4 16  1  0  0  0  0
  4 17  1  0  0  0  0
  5 18  1  0  0  0  0
  5 19  1  0  0  0  0
  8 20  1  0  0  0  0
  9 21  1  0  0  0  0
 10 22  1  0  0  0  0
 10 23  1  0  0  0  0
 12 24  1  0  0  0  0
M  END
> <FRED Chemgauss4 score>
-8.974888

$$$$
V-9302
  -OEChem-05122015313D

 78 81  0     1  0  0  0  0  0999 V2000
  126.0682  106.4967  106.1471 C   0  0  0  0  0  0  0  0  0  0  0  0
  120.0255  103.8401  106.8109 C   0  0  0  0  0  0  0  0  0  0  0  0
  126.4654  105.9941  107.3861 C   0  0  0  0  0  0  0  0  0  0  0  0
  118.6902  104.0009  106.4413 C   0  0  0  0  0  0  0  0  0  0  0  0
  122.7470  109.0129  113.6874 C   0  0  0  0  0  0  0  0  0  0  0  0
  117.4557  111.4157  104.3506 C   0  0  0  0  0  0  0  0  0  0  0  0
  124.9640  107.3446  106.0599 C   0  0  0  0  0  0  0  0  0  0  0  0
  120.9262  104.8927  106.6471 C   0  0  0  0  0  0  0  0  0  0  0  0
  122.9067  110.3810  113.4673 C   0  0  0  0  0  0  0  0  0  0  0  0
  116.9922  112.0696  105.4922 C   0  0  0  0  0  0  0  0  0  0  0  0
  123.3371  108.0934  112.8202 C   0  0  0  0  0  0  0  0  0  0  0  0
  117.5733  110.0257  104.3424 C   0  0  0  0  0  0  0  0  0  0  0  0
  125.7584  106.3392  108.5379 C   0  0  0  0  0  0  0  0  0  0  0  0
  118.2555  105.2141  105.9077 C   0  0  0  0  0  0  0  0  0  0  0  0
  124.2465  109.9101  111.5127 C   0  0  0  0  0  0  0  0  0  0  0  0
  116.7643  109.9439  106.6175 C   0  0  0  0  0  0  0  0  0  0  0  0
  123.6564  110.8296  112.3800 C   0  0  0  0  0  0  0  0  0  0  0  0
  116.6466  111.3338  106.6256 C   0  0  0  0  0  0  0  0  0  0  0  0
  124.0868  108.5420  111.7329 C   0  0  0  0  0  0  0  0  0  0  0  0
  117.2277  109.2899  105.4759 C   0  0  0  0  0  0  0  0  0  0  0  0
  124.2570  107.6897  107.2117 C   0  0  0  0  0  0  0  0  0  0  0  0
  120.4914  106.1059  106.1135 C   0  0  0  0  0  0  0  0  0  0  0  0
  124.6542  107.1870  108.4507 C   0  0  0  0  0  0  0  0  0  0  0  0
  119.1561  106.2667  105.7438 C   0  0  0  0  0  0  0  0  0  0  0  0
  119.7763  110.1467  111.1538 C   0  0  0  0  0  0  0  0  0  0  0  0
  123.8279  112.2925  112.1462 C   0  0  0  0  0  0  0  0  0  0  0  0
  116.1498  112.0337  107.8453 C   0  0  0  0  0  0  0  0  0  0  0  0
  123.0708  108.6031  107.0988 C   0  0  0  0  0  0  0  0  0  0  0  0
  121.4749  107.2276  105.9440 C   0  0  0  0  0  0  0  0  0  0  0  0
  124.7209  107.5528  110.7997 C   0  0  0  0  0  0  0  0  0  0  0  0
  117.3550  107.7948  105.4672 C   0  0  0  0  0  0  0  0  0  0  0  0
  120.8122  109.0111  109.1593 C   0  0  0  0  0  0  0  0  0  0  0  0
  120.7384  108.7416  107.6581 C   0  0  0  0  0  0  0  0  0  0  0  0
  119.6833  109.9210  109.6555 C   0  0  2  0  0  0  0  0  0  0  0  0
  119.8024  111.2377  109.0247 N   0  0  0  0  0  0  0  0  0  0  0  0
  121.7998  107.8732  107.2254 N   0  0  0  0  0  0  0  0  0  0  0  0
  119.9774  111.2288  111.6911 O   0  0  0  0  0  0  0  0  0  0  0  0
  119.6369  108.9933  111.8580 O   0  0  0  0  0  0  0  0  0  0  0  0
  123.9741  107.5136  109.5853 O   0  0  0  0  0  0  0  0  0  0  0  0
  118.7153  107.4449  105.2204 O   0  0  0  0  0  0  0  0  0  0  0  0
  126.6181  106.2278  105.2497 H   0  0  0  0  0  0  0  0  0  0  0  0
  120.3647  102.8953  107.2260 H   0  0  0  0  0  0  0  0  0  0  0  0
  127.3246  105.3333  107.4534 H   0  0  0  0  0  0  0  0  0  0  0  0
  117.9896  103.1809  106.5682 H   0  0  0  0  0  0  0  0  0  0  0  0
  122.1633  108.6637  114.5343 H   0  0  0  0  0  0  0  0  0  0  0  0
  117.7247  111.9888  103.4680 H   0  0  0  0  0  0  0  0  0  0  0  0
  124.6616  107.7297  105.0896 H   0  0  0  0  0  0  0  0  0  0  0  0
  121.9648  104.7569  106.9368 H   0  0  0  0  0  0  0  0  0  0  0  0
  122.4437  111.0900  114.1487 H   0  0  0  0  0  0  0  0  0  0  0  0
  116.9033  113.1529  105.4891 H   0  0  0  0  0  0  0  0  0  0  0  0
  123.2067  107.0293  112.9990 H   0  0  0  0  0  0  0  0  0  0  0  0
  117.9360  109.5247  103.4488 H   0  0  0  0  0  0  0  0  0  0  0  0
  126.0726  105.9444  109.5003 H   0  0  0  0  0  0  0  0  0  0  0  0
  117.2140  105.3333  105.6215 H   0  0  0  0  0  0  0  0  0  0  0  0
  124.8319  110.2592  110.6654 H   0  0  0  0  0  0  0  0  0  0  0  0
  116.4941  109.3696  107.5005 H   0  0  0  0  0  0  0  0  0  0  0  0
  124.7196  112.6608  112.6681 H   0  0  0  0  0  0  0  0  0  0  0  0
  123.9340  112.5154  111.0766 H   0  0  0  0  0  0  0  0  0  0  0  0
  122.9572  112.8578  112.5034 H   0  0  0  0  0  0  0  0  0  0  0  0
  115.0579  112.1322  107.8110 H   0  0  0  0  0  0  0  0  0  0  0  0
  116.4213  111.4863  108.7572 H   0  0  0  0  0  0  0  0  0  0  0  0
  116.5870  113.0367  107.9349 H   0  0  0  0  0  0  0  0  0  0  0  0
  123.0984  109.3703  107.8803 H   0  0  0  0  0  0  0  0  0  0  0  0
  123.0645  109.1216  106.1342 H   0  0  0  0  0  0  0  0  0  0  0  0
  122.4088  106.8594  105.5055 H   0  0  0  0  0  0  0  0  0  0  0  0
  121.0812  107.9972  105.2718 H   0  0  0  0  0  0  0  0  0  0  0  0
  125.7551  107.8343  110.5741 H   0  0  0  0  0  0  0  0  0  0  0  0
  124.7342  106.5524  111.2457 H   0  0  0  0  0  0  0  0  0  0  0  0
  117.0455  107.3697  106.4280 H   0  0  0  0  0  0  0  0  0  0  0  0
  116.7240  107.3565  104.6865 H   0  0  0  0  0  0  0  0  0  0  0  0
  121.7824  109.4753  109.3834 H   0  0  0  0  0  0  0  0  0  0  0  0
  120.7972  108.0532  109.6969 H   0  0  0  0  0  0  0  0  0  0  0  0
  119.7974  108.2535  107.3880 H   0  0  0  0  0  0  0  0  0  0  0  0
  120.8261  109.6712  107.0873 H   0  0  0  0  0  0  0  0  0  0  0  0
  118.7021  109.5106  109.3938 H   0  0  0  0  0  0  0  0  0  0  0  0
  119.4009  112.0166  109.4959 H   0  0  0  0  0  0  0  0  0  0  0  0
  120.0914  111.2726  108.0734 H   0  0  0  0  0  0  0  0  0  0  0  0
  119.7081  109.0827  112.8321 H   0  0  0  0  0  0  0  0  0  0  0  0
  1  3  2  0  0  0  0
  1  7  1  0  0  0  0
  2  4  2  0  0  0  0
  2  8  1  0  0  0  0
  3 13  1  0  0  0  0
  4 14  1  0  0  0  0
  5  9  2  0  0  0  0
  5 11  1  0  0  0  0
  6 10  2  0  0  0  0
  6 12  1  0  0  0  0
  7 21  2  0  0  0  0
  8 22  2  0  0  0  0
  9 17  1  0  0  0  0
 10 18  1  0  0  0  0
 11 19  2  0  0  0  0
 12 20  2  0  0  0  0
 13 23  2  0  0  0  0
 14 24  2  0  0  0  0
 15 17  2  0  0  0  0
 15 19  1  0  0  0  0
 16 18  2  0  0  0  0
 16 20  1  0  0  0  0
 17 26  1  0  0  0  0
 18 27  1  0  0  0  0
 19 30  1  0  0  0  0
 20 31  1  0  0  0  0
 21 23  1  0  0  0  0
 21 28  1  0  0  0  0
 22 24  1  0  0  0  0
 22 29  1  0  0  0  0
 23 39  1  0  0  0  0
 24 40  1  0  0  0  0
 25 34  1  0  0  0  0
 25 37  2  0  0  0  0
 25 38  1  0  0  0  0
 28 36  1  0  0  0  0
 29 36  1  0  0  0  0
 30 39  1  0  0  0  0
 31 40  1  0  0  0  0
 32 33  1  0  0  0  0
 32 34  1  0  0  0  0
 33 36  1  0  0  0  0
 34 35  1  0  0  0  0
  1 41  1  0  0  0  0
  2 42  1  0  0  0  0
  3 43  1  0  0  0  0
  4 44  1  0  0  0  0
  5 45  1  0  0  0  0
  6 46  1  0  0  0  0
  7 47  1  0  0  0  0
  8 48  1  0  0  0  0
  9 49  1  0  0  0  0
 10 50  1  0  0  0  0
 11 51  1  0  0  0  0
 12 52  1  0  0  0  0
 13 53  1  0  0  0  0
 14 54  1  0  0  0  0
 15 55  1  0  0  0  0
 16 56  1  0  0  0  0
 26 57  1  0  0  0  0
 26 58  1  0  0  0  0
 26 59  1  0  0  0  0
 27 60  1  0  0  0  0
 27 61  1  0  0  0  0
 27 62  1  0  0  0  0
 28 63  1  0  0  0  0
 28 64  1  0  0  0  0
 29 65  1  0  0  0  0
 29 66  1  0  0  0  0
 30 67  1  0  0  0  0
 30 68  1  0  0  0  0
 31 69  1  0  0  0  0
 31 70  1  0  0  0  0
 32 71  1  0  0  0  0
 32 72  1  0  0  0  0
 33 73  1  0  0  0  0
 33 74  1  0  0  0  0
 34 75  1  0  0  0  0
 35 76  1  0  0  0  0
 35 77  1  0  0  0  0
 38 78  1  0  0  0  0
M  END
> <FRED Chemgauss4 score>
-8.967205

$$$$
C85227463	P133359195
  -OEChem-05122015313D

 23 23  0     1  0  0  0  0  0999 V2000
  124.9029  105.3380  108.1980 C   0  0  0  0  0  0  0  0  0  0  0  0
  124.8468  107.4227  108.2867 C   0  0  0  0  0  0  0  0  0  0  0  0
  125.4189  103.3544  106.7539 C   0  0  0  0  0  0  0  0  0  0  0  0
  124.5313  103.9615  107.8502 C   0  0  0  0  0  0  0  0  0  0  0  0
  123.9236  109.2382  106.8047 C   0  0  0  0  0  0  0  0  0  0  0  0
  124.5431  108.8982  108.1626 C   0  0  2  0  0  0  0  0  0  0  0  0
  124.1893  106.4163  107.7591 N   0  0  0  0  0  0  0  0  0  0  0  0
  125.9605  105.6139  108.9641 N   0  0  0  0  0  0  0  0  0  0  0  0
  125.9020  106.9537  109.0051 N   0  0  0  0  0  0  0  0  0  0  0  0
  124.8395  108.8783  105.7457 N   0  0  0  0  0  0  0  0  0  0  0  0
  125.7600  109.6251  108.3349 O   0  0  0  0  0  0  0  0  0  0  0  0
  125.4087  103.9835  105.8573 H   0  0  0  0  0  0  0  0  0  0  0  0
  125.0791  102.3535  106.4697 H   0  0  0  0  0  0  0  0  0  0  0  0
  126.4560  103.2757  107.0973 H   0  0  0  0  0  0  0  0  0  0  0  0
  124.5735  103.2917  108.7348 H   0  0  0  0  0  0  0  0  0  0  0  0
  123.4759  103.8973  107.5109 H   0  0  0  0  0  0  0  0  0  0  0  0
  123.7097  110.3100  106.7308 H   0  0  0  0  0  0  0  0  0  0  0  0
  122.9854  108.6939  106.6509 H   0  0  0  0  0  0  0  0  0  0  0  0
  123.8727  109.2071  108.9742 H   0  0  0  0  0  0  0  0  0  0  0  0
  126.6014  107.4638  109.5318 H   0  0  0  0  0  0  0  0  0  0  0  0
  125.8225  109.0266  105.8851 H   0  0  0  0  0  0  0  0  0  0  0  0
  124.4705  108.6841  104.8323 H   0  0  0  0  0  0  0  0  0  0  0  0
  126.3587  109.3261  107.6342 H   0  0  0  0  0  0  0  0  0  0  0  0
  1  4  1  0  0  0  0
  1  7  1  0  0  0  0
  1  8  2  0  0  0  0
  2  6  1  0  0  0  0
  2  7  2  0  0  0  0
  2  9  1  0  0  0  0
  3  4  1  0  0  0  0
  5  6  1  0  0  0  0
  5 10  1  0  0  0  0
  6 11  1  0  0  0  0
  8  9  1  0  0  0  0
  3 12  1  0  0  0  0
  3 13  1  0  0  0  0
  3 14  1  0  0  0  0
  4 15  1  0  0  0  0
  4 16  1  0  0  0  0
  5 17  1  0  0  0  0
  5 18  1  0  0  0  0
  6 19  1  0  0  0  0
  9 20  1  0  0  0  0
 10 21  1  0  0  0  0
 10 22  1  0  0  0  0
 11 23  1  0  0  0  0
M  END
> <FRED Chemgauss4 score>
-8.966544

$$$$
C72344410	P112473852
  -OEChem-05122015313D

 28 28  0     1  0  0  0  0  0999 V2000
  125.4422  108.8028  107.4878 C   0  0  0  0  0  0  0  0  0  0  0  0
  122.4179  105.8331  105.7438 C   0  0  0  0  0  0  0  0  0  0  0  0
  125.3354  104.4005  107.7062 C   0  0  0  0  0  0  0  0  0  0  0  0
  124.1530  104.4121  106.7383 C   0  0  0  0  0  0  0  0  0  0  0  0
  125.6311  106.6340  108.6186 C   0  0  0  0  0  0  0  0  0  0  0  0
  124.7009  106.8146  106.2328 C   0  0  0  0  0  0  0  0  0  0  0  0
  124.8037  107.4517  107.6202 C   0  0  2  0  0  0  0  0  0  0  0  0
  121.5609  104.5920  105.7896 C   0  0  0  0  0  0  0  0  0  0  0  0
  125.1316  105.2772  108.8601 N   0  0  0  0  0  0  0  0  0  0  0  0
  123.7259  105.7174  106.2305 N   0  0  0  0  0  0  0  0  0  0  0  0
  126.7117  108.7670  106.9612 N   0  0  0  0  0  0  0  0  0  0  0  0
  124.8591  109.8349  107.8106 O   0  0  0  0  0  0  0  0  0  0  0  0
  121.9420  106.8780  105.2908 O   0  0  0  0  0  0  0  0  0  0  0  0
  125.4463  103.3768  108.0833 H   0  0  0  0  0  0  0  0  0  0  0  0
  126.2766  104.6245  107.1900 H   0  0  0  0  0  0  0  0  0  0  0  0
  124.4049  103.8044  105.8604 H   0  0  0  0  0  0  0  0  0  0  0  0
  123.2913  103.9261  107.2132 H   0  0  0  0  0  0  0  0  0  0  0  0
  126.6862  106.5985  108.3161 H   0  0  0  0  0  0  0  0  0  0  0  0
  125.6301  107.1579  109.5832 H   0  0  0  0  0  0  0  0  0  0  0  0
  124.4099  107.5695  105.4965 H   0  0  0  0  0  0  0  0  0  0  0  0
  125.6672  106.4307  105.8842 H   0  0  0  0  0  0  0  0  0  0  0  0
  123.7998  107.6165  108.0323 H   0  0  0  0  0  0  0  0  0  0  0  0
  121.0342  104.5603  106.7373 H   0  0  0  0  0  0  0  0  0  0  0  0
  122.1964  103.7185  105.6882 H   0  0  0  0  0  0  0  0  0  0  0  0
  120.8503  104.6219  104.9702 H   0  0  0  0  0  0  0  0  0  0  0  0
  124.1439  105.3078  109.1099 H   0  0  0  0  0  0  0  0  0  0  0  0
  127.1096  107.8680  106.7103 H   0  0  0  0  0  0  0  0  0  0  0  0
  127.2668  109.6037  106.8134 H   0  0  0  0  0  0  0  0  0  0  0  0
  1  7  1  0  0  0  0
  1 11  1  0  0  0  0
  1 12  2  0  0  0  0
  2  8  1  0  0  0  0
  2 10  1  0  0  0  0
  2 13  2  0  0  0  0
  3  4  1  0  0  0  0
  3  9  1  0  0  0  0
  4 10  1  0  0  0  0
  5  7  1  0  0  0  0
  5  9  1  0  0  0  0
  6  7  1  0  0  0  0
  6 10  1  0  0  0  0
  3 14  1  0  0  0  0
  3 15  1  0  0  0  0
  4 16  1  0  0  0  0
  4 17  1  0  0  0  0
  5 18  1  0  0  0  0
  5 19  1  0  0  0  0
  6 20  1  0  0  0  0
  6 21  1  0  0  0  0
  7 22  1  0  0  0  0
  8 23  1  0  0  0  0
  8 24  1  0  0  0  0
  8 25  1  0  0  0  0
  9 26  1  0  0  0  0
 11 27  1  0  0  0  0
 11 28  1  0  0  0  0
M  END
> <FRED Chemgauss4 score>
-8.965075

$$$$
C90953253	P142274861
  -OEChem-05122015313D

 31 32  0     1  0  0  0  0  0999 V2000
  123.5236  108.4899  110.6237 C   0  0  0  0  0  0  0  0  0  0  0  0
  124.0354  109.3826  109.7054 C   0  0  0  0  0  0  0  0  0  0  0  0
  122.9921  106.8261  105.7624 C   0  0  0  0  0  0  0  0  0  0  0  0
  123.6434  110.7850  111.3455 C   0  0  0  0  0  0  0  0  0  0  0  0
  124.4801  109.0103  108.3919 C   0  0  0  0  0  0  0  0  0  0  0  0
  125.3495  106.4023  106.5716 C   0  0  0  0  0  0  0  0  0  0  0  0
  123.5609  112.0594  112.1348 C   0  0  0  0  0  0  0  0  0  0  0  0
  122.7001  113.1353  111.4805 C   0  0  0  0  0  0  0  0  0  0  0  0
  124.2001  107.4028  106.4686 C   0  0  2  0  0  0  0  0  0  0  0  0
  122.4885  107.3421  104.6251 N   0  5  0  0  0  0  0  0  0  0  0  0
  124.1045  110.6992  110.1174 N   0  0  0  0  0  0  0  0  0  0  0  0
  122.3206  105.7493  106.2128 N   0  0  0  0  0  0  0  0  0  0  0  0
  121.4334  106.5366  104.3448 N   0  0  0  0  0  0  0  0  0  0  0  0
  121.3325  105.5797  105.2987 N   0  0  0  0  0  0  0  0  0  0  0  0
  123.8504  107.9120  107.7752 N   0  0  0  0  0  0  0  0  0  0  0  0
  121.3244  112.6283  111.2520 N   0  3  0  0  0  0  0  0  0  0  0  0
  125.4101  109.6273  107.8216 O   0  0  0  0  0  0  0  0  0  0  0  0
  123.1106  109.3213  112.0658 S   0  0  0  0  0  0  0  0  0  0  0  0
  123.3762  107.4236  110.5254 H   0  0  0  0  0  0  0  0  0  0  0  0
  125.0453  105.5076  107.1257 H   0  0  0  0  0  0  0  0  0  0  0  0
  125.6762  106.0887  105.5738 H   0  0  0  0  0  0  0  0  0  0  0  0
  126.2227  106.8314  107.0759 H   0  0  0  0  0  0  0  0  0  0  0  0
  123.1382  111.8316  113.1223 H   0  0  0  0  0  0  0  0  0  0  0  0
  124.5670  112.4539  112.3282 H   0  0  0  0  0  0  0  0  0  0  0  0
  123.0960  113.4040  110.4966 H   0  0  0  0  0  0  0  0  0  0  0  0
  122.6093  114.0373  112.0932 H   0  0  0  0  0  0  0  0  0  0  0  0
  124.5642  108.2717  105.9067 H   0  0  0  0  0  0  0  0  0  0  0  0
  123.1456  107.4007  108.2963 H   0  0  0  0  0  0  0  0  0  0  0  0
  120.6278  113.3515  111.4601 H   0  0  0  0  0  0  0  0  0  0  0  0
  121.1285  111.8188  111.8505 H   0  0  0  0  0  0  0  0  0  0  0  0
  121.1978  112.3385  110.2764 H   0  0  0  0  0  0  0  0  0  0  0  0
  1  2  2  0  0  0  0
  1 18  1  0  0  0  0
  2  5  1  0  0  0  0
  2 11  1  0  0  0  0
  3  9  1  0  0  0  0
  3 10  1  0  0  0  0
  3 12  2  0  0  0  0
  4  7  1  0  0  0  0
  4 11  2  0  0  0  0
  4 18  1  0  0  0  0
  5 15  1  0  0  0  0
  5 17  2  0  0  0  0
  6  9  1  0  0  0  0
  7  8  1  0  0  0  0
  8 16  1  0  0  0  0
  9 15  1  0  0  0  0
 10 13  1  0  0  0  0
 12 14  1  0  0  0  0
 13 14  2  0  0  0  0
  1 19  1  0  0  0  0
  6 20  1  0  0  0  0
  6 21  1  0  0  0  0
  6 22  1  0  0  0  0
  7 23  1  0  0  0  0
  7 24  1  0  0  0  0
  8 25  1  0  0  0  0
  8 26  1  0  0  0  0
  9 27  1  0  0  0  0
 15 28  1  0  0  0  0
 16 29  1  0  0  0  0
 16 30  1  0  0  0  0
 16 31  1  0  0  0  0
M  CHG  2  10  -1  16   1
M  END
> <FRED Chemgauss4 score>
-8.964395

$$$$
C97905000	P155397495
  -OEChem-05122015313D

 33 35  0     0  0  0  0  0  0999 V2000
  125.1682  103.8069  107.3627 C   0  0  0  0  0  0  0  0  0  0  0  0
  125.7433  105.0715  107.4733 C   0  0  0  0  0  0  0  0  0  0  0  0
  121.2809  105.5278  104.5667 C   0  0  0  0  0  0  0  0  0  0  0  0
  120.0981  105.3924  106.6689 C   0  0  0  0  0  0  0  0  0  0  0  0
  119.8066  103.6648  105.0054 C   0  0  0  0  0  0  0  0  0  0  0  0
  123.8313  103.7105  107.0006 C   0  0  0  0  0  0  0  0  0  0  0  0
  123.9021  108.1649  106.8555 C   0  0  0  0  0  0  0  0  0  0  0  0
  124.9311  106.1865  107.2100 C   0  0  0  0  0  0  0  0  0  0  0  0
  120.9838  106.0585  105.8219 C   0  0  0  0  0  0  0  0  0  0  0  0
  125.1072  107.5955  107.2063 C   0  0  0  0  0  0  0  0  0  0  0  0
  120.6922  104.3309  104.1584 C   0  0  0  0  0  0  0  0  0  0  0  0
  119.5095  104.1955  106.2607 C   0  0  0  0  0  0  0  0  0  0  0  0
  123.6067  105.9449  106.8568 C   0  0  0  0  0  0  0  0  0  0  0  0
  121.6190  107.3498  106.2619 C   0  0  0  0  0  0  0  0  0  0  0  0
  126.3508  108.3274  107.5194 C   0  0  0  0  0  0  0  0  0  0  0  0
  123.0029  104.7474  106.7360 N   0  0  0  0  0  0  0  0  0  0  0  0
  122.9993  107.1548  106.6463 N   0  0  0  0  0  0  0  0  0  0  0  0
  127.0073  108.8510  106.3414 N   0  0  0  0  0  0  0  0  0  0  0  0
  120.9776  103.8215  102.9530 F   0  0  0  0  0  0  0  0  0  0  0  0
  118.6592  103.5555  107.0741 F   0  0  0  0  0  0  0  0  0  0  0  0
  125.7551  102.9154  107.5561 H   0  0  0  0  0  0  0  0  0  0  0  0
  126.7856  105.1818  107.7543 H   0  0  0  0  0  0  0  0  0  0  0  0
  121.9694  106.0394  103.8996 H   0  0  0  0  0  0  0  0  0  0  0  0
  119.8612  105.7980  107.6489 H   0  0  0  0  0  0  0  0  0  0  0  0
  119.3492  102.7329  104.6877 H   0  0  0  0  0  0  0  0  0  0  0  0
  123.3668  102.7321  106.9096 H   0  0  0  0  0  0  0  0  0  0  0  0
  123.6128  109.2009  106.7381 H   0  0  0  0  0  0  0  0  0  0  0  0
  121.5884  108.0991  105.4616 H   0  0  0  0  0  0  0  0  0  0  0  0
  121.0838  107.7840  107.1151 H   0  0  0  0  0  0  0  0  0  0  0  0
  126.1648  109.1860  108.1888 H   0  0  0  0  0  0  0  0  0  0  0  0
  127.0904  107.6920  108.0375 H   0  0  0  0  0  0  0  0  0  0  0  0
  128.0002  108.9945  106.3657 H   0  0  0  0  0  0  0  0  0  0  0  0
  126.4444  109.2462  105.6106 H   0  0  0  0  0  0  0  0  0  0  0  0
  1  2  1  0  0  0  0
  1  6  2  0  0  0  0
  2  8  2  0  0  0  0
  3  9  1  0  0  0  0
  3 11  2  0  0  0  0
  4  9  2  0  0  0  0
  4 12  1  0  0  0  0
  5 11  1  0  0  0  0
  5 12  2  0  0  0  0
  6 16  1  0  0  0  0
  7 10  2  0  0  0  0
  7 17  1  0  0  0  0
  8 10  1  0  0  0  0
  8 13  1  0  0  0  0
  9 14  1  0  0  0  0
 10 15  1  0  0  0  0
 11 19  1  0  0  0  0
 12 20  1  0  0  0  0
 13 16  2  0  0  0  0
 13 17  1  0  0  0  0
 14 17  1  0  0  0  0
 15 18  1  0  0  0  0
  1 21  1  0  0  0  0
  2 22  1  0  0  0  0
  3 23  1  0  0  0  0
  4 24  1  0  0  0  0
  5 25  1  0  0  0  0
  6 26  1  0  0  0  0
  7 27  1  0  0  0  0
 14 28  1  0  0  0  0
 14 29  1  0  0  0  0
 15 30  1  0  0  0  0
 15 31  1  0  0  0  0
 18 32  1  0  0  0  0
 18 33  1  0  0  0  0
M  END
> <FRED Chemgauss4 score>
-8.959318

$$$$
C77286850	P120571487
  -OEChem-05122015313D

 30 30  0     1  0  0  0  0  0999 V2000
  126.2393  106.2766  107.1555 C   0  0  0  0  0  0  0  0  0  0  0  0
  126.3288  107.7911  107.3468 C   0  0  2  0  0  0  0  0  0  0  0  0
  125.0742  108.3195  108.0430 C   0  0  2  0  0  0  0  0  0  0  0  0
  124.8462  107.5458  109.3484 C   0  0  1  0  0  0  0  0  0  0  0  0
  125.9328  105.5745  108.4855 C   0  0  2  0  0  0  0  0  0  0  0  0
  125.6493  104.0929  108.2388 C   0  0  0  0  0  0  0  0  0  0  0  0
  123.5407  109.4435  110.3609 C   0  0  0  0  0  0  0  0  0  0  0  0
  123.5609  107.9513  110.0601 C   0  0  1  0  0  0  0  0  0  0  0  0
  124.7618  106.1369  109.0921 O   0  0  0  0  0  0  0  0  0  0  0  0
  126.4989  108.4131  106.0786 O   0  0  0  0  0  0  0  0  0  0  0  0
  123.9593  108.1484  107.1664 O   0  0  0  0  0  0  0  0  0  0  0  0
  127.0770  105.6849  109.3346 O   0  0  0  0  0  0  0  0  0  0  0  0
  123.1394  110.1436  109.1880 O   0  0  0  0  0  0  0  0  0  0  0  0
  122.4534  107.6475  109.2150 O   0  0  0  0  0  0  0  0  0  0  0  0
  125.4571  106.0577  106.4167 H   0  0  0  0  0  0  0  0  0  0  0  0
  127.1820  105.9128  106.7276 H   0  0  0  0  0  0  0  0  0  0  0  0
  127.2138  108.0286  107.9495 H   0  0  0  0  0  0  0  0  0  0  0  0
  125.1762  109.3945  108.2302 H   0  0  0  0  0  0  0  0  0  0  0  0
  125.6836  107.7271  110.0340 H   0  0  0  0  0  0  0  0  0  0  0  0
  125.4323  103.5976  109.1833 H   0  0  0  0  0  0  0  0  0  0  0  0
  126.5176  103.6237  107.7802 H   0  0  0  0  0  0  0  0  0  0  0  0
  124.7933  103.9878  107.5749 H   0  0  0  0  0  0  0  0  0  0  0  0
  122.8239  109.6789  111.1545 H   0  0  0  0  0  0  0  0  0  0  0  0
  124.5341  109.8024  110.6474 H   0  0  0  0  0  0  0  0  0  0  0  0
  123.4391  107.3760  110.9833 H   0  0  0  0  0  0  0  0  0  0  0  0
  127.3219  108.0610  105.7037 H   0  0  0  0  0  0  0  0  0  0  0  0
  123.8927  107.1978  106.9920 H   0  0  0  0  0  0  0  0  0  0  0  0
  127.8063  105.2522  108.8664 H   0  0  0  0  0  0  0  0  0  0  0  0
  123.1375  111.0869  109.4146 H   0  0  0  0  0  0  0  0  0  0  0  0
  121.6567  107.9173  109.6972 H   0  0  0  0  0  0  0  0  0  0  0  0
  1  2  1  0  0  0  0
  1  5  1  0  0  0  0
  2  3  1  0  0  0  0
  2 10  1  0  0  0  0
  3  4  1  0  0  0  0
  3 11  1  0  0  0  0
  4  8  1  0  0  0  0
  4  9  1  0  0  0  0
  5  6  1  0  0  0  0
  5  9  1  0  0  0  0
  5 12  1  0  0  0  0
  7  8  1  0  0  0  0
  7 13  1  0  0  0  0
  8 14  1  0  0  0  0
  1 15  1  0  0  0  0
  1 16  1  0  0  0  0
  2 17  1  0  0  0  0
  3 18  1  0  0  0  0
  4 19  1  0  0  0  0
  6 20  1  0  0  0  0
  6 21  1  0  0  0  0
  6 22  1  0  0  0  0
  7 23  1  0  0  0  0
  7 24  1  0  0  0  0
  8 25  1  0  0  0  0
 10 26  1  0  0  0  0
 11 27  1  0  0  0  0
 12 28  1  0  0  0  0
 13 29  1  0  0  0  0
 14 30  1  0  0  0  0
M  END
> <FRED Chemgauss4 score>
-8.957767

$$$$
C41012614	P62260088
  -OEChem-05122015313D

 34 35  0     1  0  0  0  0  0999 V2000
  125.2349  104.4352  107.5991 C   0  0  0  0  0  0  0  0  0  0  0  0
  123.9146  104.1163  107.2817 C   0  0  0  0  0  0  0  0  0  0  0  0
  125.7041  105.7346  107.4068 C   0  0  0  0  0  0  0  0  0  0  0  0
  123.5327  106.3962  106.5795 C   0  0  0  0  0  0  0  0  0  0  0  0
  117.4823  108.5029  106.5053 C   0  0  0  0  0  0  0  0  0  0  0  0
  116.4339  107.7884  105.9646 C   0  0  0  0  0  0  0  0  0  0  0  0
  123.0636  105.0968  106.7719 C   0  0  0  0  0  0  0  0  0  0  0  0
  124.8531  106.7151  106.8969 C   0  0  0  0  0  0  0  0  0  0  0  0
  118.3808  106.5031  106.5647 C   0  0  0  0  0  0  0  0  0  0  0  0
  121.4770  104.2655  104.9875 C   0  0  0  0  0  0  0  0  0  0  0  0
  119.3681  105.3964  106.7985 C   0  0  0  0  0  0  0  0  0  0  0  0
  121.6520  104.7550  106.4328 C   0  0  2  0  0  0  0  0  0  0  0  0
  118.5994  107.7675  106.8504 N   0  0  0  0  0  0  0  0  0  0  0  0
  125.0806  109.0465  108.1689 N   0  0  0  0  0  0  0  0  0  0  0  0
  120.7453  105.8615  106.6879 N   0  0  0  0  0  0  0  0  0  0  0  0
  126.8878  108.2872  106.4947 O   0  0  0  0  0  0  0  0  0  0  0  0
  124.6239  108.9818  105.6343 O   0  0  0  0  0  0  0  0  0  0  0  0
  116.8534  106.1277  105.8783 S   0  0  0  0  0  0  0  0  0  0  0  0
  125.4413  108.3409  106.6551 S   0  0  0  0  0  0  0  0  0  0  0  0
  125.8975  103.6720  107.9968 H   0  0  0  0  0  0  0  0  0  0  0  0
  123.5575  103.1014  107.4359 H   0  0  0  0  0  0  0  0  0  0  0  0
  126.7347  105.9716  107.6570 H   0  0  0  0  0  0  0  0  0  0  0  0
  122.8681  107.1597  106.1822 H   0  0  0  0  0  0  0  0  0  0  0  0
  117.4836  109.5720  106.6703 H   0  0  0  0  0  0  0  0  0  0  0  0
  115.4742  108.1513  105.6252 H   0  0  0  0  0  0  0  0  0  0  0  0
  121.8211  105.0254  104.2774 H   0  0  0  0  0  0  0  0  0  0  0  0
  122.0487  103.3483  104.8066 H   0  0  0  0  0  0  0  0  0  0  0  0
  120.4287  104.0411  104.7608 H   0  0  0  0  0  0  0  0  0  0  0  0
  119.2366  104.9663  107.7974 H   0  0  0  0  0  0  0  0  0  0  0  0
  119.2291  104.5864  106.0748 H   0  0  0  0  0  0  0  0  0  0  0  0
  121.2875  103.9446  107.0886 H   0  0  0  0  0  0  0  0  0  0  0  0
  125.8626  109.2582  108.8006 H   0  0  0  0  0  0  0  0  0  0  0  0
  124.3154  109.7305  108.2118 H   0  0  0  0  0  0  0  0  0  0  0  0
  121.0116  106.3245  107.5578 H   0  0  0  0  0  0  0  0  0  0  0  0
  1  2  2  0  0  0  0
  1  3  1  0  0  0  0
  2  7  1  0  0  0  0
  3  8  2  0  0  0  0
  4  7  2  0  0  0  0
  4  8  1  0  0  0  0
  5  6  2  0  0  0  0
  5 13  1  0  0  0  0
  6 18  1  0  0  0  0
  7 12  1  0  0  0  0
  8 19  1  0  0  0  0
  9 11  1  0  0  0  0
  9 13  2  0  0  0  0
  9 18  1  0  0  0  0
 10 12  1  0  0  0  0
 11 15  1  0  0  0  0
 12 15  1  0  0  0  0
 14 19  1  0  0  0  0
 16 19  2  0  0  0  0
 17 19  2  0  0  0  0
  1 20  1  0  0  0  0
  2 21  1  0  0  0  0
  3 22  1  0  0  0  0
  4 23  1  0  0  0  0
  5 24  1  0  0  0  0
  6 25  1  0  0  0  0
 10 26  1  0  0  0  0
 10 27  1  0  0  0  0
 10 28  1  0  0  0  0
 11 29  1  0  0  0  0
 11 30  1  0  0  0  0
 12 31  1  0  0  0  0
 14 32  1  0  0  0  0
 14 33  1  0  0  0  0
 15 34  1  0  0  0  0
M  END
> <FRED Chemgauss4 score>
-8.956521

$$$$
C85302973	P133481584
  -OEChem-05122015313D

 41 42  0     1  0  0  0  0  0999 V2000
  125.0625  105.7262  108.3515 C   0  0  0  0  0  0  0  0  0  0  0  0
  125.2564  104.4353  107.6060 C   0  0  0  0  0  0  0  0  0  0  0  0
  119.8518  104.1593  106.5200 C   0  0  0  0  0  0  0  0  0  0  0  0
  119.2118  106.3287  107.3676 C   0  0  0  0  0  0  0  0  0  0  0  0
  118.6880  104.1762  105.5301 C   0  0  0  0  0  0  0  0  0  0  0  0
  118.0355  106.3883  106.3941 C   0  0  0  0  0  0  0  0  0  0  0  0
  123.8842  104.8341  108.0745 C   0  0  0  0  0  0  0  0  0  0  0  0
  116.6186  105.4601  103.6472 C   0  0  0  0  0  0  0  0  0  0  0  0
  121.4454  105.4999  107.7338 C   0  0  0  0  0  0  0  0  0  0  0  0
  123.2851  106.4437  106.1872 C   0  0  0  0  0  0  0  0  0  0  0  0
  122.8146  105.2599  107.0598 C   0  0  1  0  0  0  0  0  0  0  0  0
  120.3099  105.5248  106.8127 N   0  0  0  0  0  0  0  0  0  0  0  0
  117.5781  105.0046  106.0809 N   0  0  0  0  0  0  0  0  0  0  0  0
  122.3444  106.8616  105.1564 N   0  0  0  0  0  0  0  0  0  0  0  0
  115.1751  105.8734  105.7856 O   0  0  0  0  0  0  0  0  0  0  0  0
  115.7261  103.4977  105.1238 O   0  0  0  0  0  0  0  0  0  0  0  0
  122.6406  104.1586  106.1496 O   0  0  0  0  0  0  0  0  0  0  0  0
  116.0890  104.8927  105.2426 S   0  0  0  0  0  0  0  0  0  0  0  0
  125.4427  105.7846  109.3639 H   0  0  0  0  0  0  0  0  0  0  0  0
  125.1389  106.6490  107.7897 H   0  0  0  0  0  0  0  0  0  0  0  0
  125.4630  104.4928  106.5444 H   0  0  0  0  0  0  0  0  0  0  0  0
  125.7660  103.6294  108.1195 H   0  0  0  0  0  0  0  0  0  0  0  0
  119.5448  103.6485  107.4426 H   0  0  0  0  0  0  0  0  0  0  0  0
  120.6702  103.5778  106.0789 H   0  0  0  0  0  0  0  0  0  0  0  0
  119.5569  107.3527  107.5538 H   0  0  0  0  0  0  0  0  0  0  0  0
  118.8751  105.9147  108.3276 H   0  0  0  0  0  0  0  0  0  0  0  0
  119.0062  104.5806  104.5618 H   0  0  0  0  0  0  0  0  0  0  0  0
  118.3340  103.1507  105.3777 H   0  0  0  0  0  0  0  0  0  0  0  0
  117.2147  106.9447  106.8597 H   0  0  0  0  0  0  0  0  0  0  0  0
  118.3217  106.9019  105.4685 H   0  0  0  0  0  0  0  0  0  0  0  0
  123.4595  104.2885  108.9084 H   0  0  0  0  0  0  0  0  0  0  0  0
  115.7593  105.4481  102.9748 H   0  0  0  0  0  0  0  0  0  0  0  0
  117.0066  106.4742  103.7538 H   0  0  0  0  0  0  0  0  0  0  0  0
  117.3978  104.7883  103.2841 H   0  0  0  0  0  0  0  0  0  0  0  0
  121.2755  104.7308  108.4978 H   0  0  0  0  0  0  0  0  0  0  0  0
  121.4695  106.4519  108.2784 H   0  0  0  0  0  0  0  0  0  0  0  0
  123.5105  107.3039  106.8306 H   0  0  0  0  0  0  0  0  0  0  0  0
  124.2375  106.1818  105.7093 H   0  0  0  0  0  0  0  0  0  0  0  0
  122.7059  107.3076  104.3393 H   0  0  0  0  0  0  0  0  0  0  0  0
  121.3717  106.8769  105.3825 H   0  0  0  0  0  0  0  0  0  0  0  0
  121.9659  104.4432  105.5198 H   0  0  0  0  0  0  0  0  0  0  0  0
  1  2  1  0  0  0  0
  1  7  1  0  0  0  0
  2  7  1  0  0  0  0
  3  5  1  0  0  0  0
  3 12  1  0  0  0  0
  4  6  1  0  0  0  0
  4 12  1  0  0  0  0
  5 13  1  0  0  0  0
  6 13  1  0  0  0  0
  7 11  1  0  0  0  0
  8 18  1  0  0  0  0
  9 11  1  0  0  0  0
  9 12  1  0  0  0  0
 10 11  1  0  0  0  0
 10 14  1  0  0  0  0
 11 17  1  0  0  0  0
 13 18  1  0  0  0  0
 15 18  2  0  0  0  0
 16 18  2  0  0  0  0
  1 19  1  0  0  0  0
  1 20  1  0  0  0  0
  2 21  1  0  0  0  0
  2 22  1  0  0  0  0
  3 23  1  0  0  0  0
  3 24  1  0  0  0  0
  4 25  1  0  0  0  0
  4 26  1  0  0  0  0
  5 27  1  0  0  0  0
  5 28  1  0  0  0  0
  6 29  1  0  0  0  0
  6 30  1  0  0  0  0
  7 31  1  0  0  0  0
  8 32  1  0  0  0  0
  8 33  1  0  0  0  0
  8 34  1  0  0  0  0
  9 35  1  0  0  0  0
  9 36  1  0  0  0  0
 10 37  1  0  0  0  0
 10 38  1  0  0  0  0
 14 39  1  0  0  0  0
 14 40  1  0  0  0  0
 17 41  1  0  0  0  0
M  END
> <FRED Chemgauss4 score>
-8.953609

$$$$
C42271757	P87779434
  -OEChem-05122015313D

 38 39  0     1  0  0  0  0  0999 V2000
  125.6263  104.0311  107.6393 C   0  0  0  0  0  0  0  0  0  0  0  0
  124.8555  104.8793  106.8444 C   0  0  0  0  0  0  0  0  0  0  0  0
  125.8414  105.7778  109.2946 C   0  0  0  0  0  0  0  0  0  0  0  0
  126.1192  104.4803  108.8645 C   0  0  0  0  0  0  0  0  0  0  0  0
  124.5777  106.1768  107.2744 C   0  0  0  0  0  0  0  0  0  0  0  0
  125.0706  106.6261  108.4996 C   0  0  0  0  0  0  0  0  0  0  0  0
  120.2689  105.1416  107.0753 C   0  0  0  0  0  0  0  0  0  0  0  0
  119.4569  104.1771  106.2187 C   0  0  0  0  0  0  0  0  0  0  0  0
  120.4730  106.2741  104.9205 C   0  0  0  0  0  0  0  0  0  0  0  0
  121.2773  105.7996  106.1301 C   0  0  1  0  0  0  0  0  0  0  0  0
  121.2071  108.4343  108.4898 C   0  0  0  0  0  0  0  0  0  0  0  0
  121.1058  108.0313  107.0580 C   0  0  0  0  0  0  0  0  0  0  0  0
  126.8985  103.6222  109.6679 N   0  0  0  0  0  0  0  0  0  0  0  0
  121.9898  106.8742  106.7630 N   0  0  2  0  0  0  0  0  0  0  0  0
  119.6971  104.1284  103.5953 O   0  0  0  0  0  0  0  0  0  0  0  0
  117.9339  105.6311  104.6298 O   0  0  0  0  0  0  0  0  0  0  0  0
  123.9323  108.5847  106.5301 O   0  0  0  0  0  0  0  0  0  0  0  0
  123.7575  106.7183  104.8658 O   0  0  0  0  0  0  0  0  0  0  0  0
  119.2408  105.0076  104.6516 S   0  0  0  0  0  0  0  0  0  0  0  0
  123.5940  107.2074  106.2224 S   0  0  0  0  0  0  0  0  0  0  0  0
  124.7554  108.2230  109.0770 Cl  0  0  0  0  0  0  0  0  0  0  0  0
  125.8369  103.0219  107.2946 H   0  0  0  0  0  0  0  0  0  0  0  0
  124.4777  104.5167  105.8921 H   0  0  0  0  0  0  0  0  0  0  0  0
  126.2288  106.1225  110.2512 H   0  0  0  0  0  0  0  0  0  0  0  0
  119.6214  105.8686  107.5683 H   0  0  0  0  0  0  0  0  0  0  0  0
  120.8064  104.5818  107.8462 H   0  0  0  0  0  0  0  0  0  0  0  0
  119.9717  103.2267  106.0620 H   0  0  0  0  0  0  0  0  0  0  0  0
  118.4670  103.9949  106.6460 H   0  0  0  0  0  0  0  0  0  0  0  0
  119.9787  107.2344  105.0721 H   0  0  0  0  0  0  0  0  0  0  0  0
  121.1020  106.3080  104.0277 H   0  0  0  0  0  0  0  0  0  0  0  0
  122.0287  105.0411  105.7996 H   0  0  0  0  0  0  0  0  0  0  0  0
  120.9071  107.6126  109.1492 H   0  0  0  0  0  0  0  0  0  0  0  0
  122.2291  108.7412  108.7374 H   0  0  0  0  0  0  0  0  0  0  0  0
  120.5416  109.2839  108.6844 H   0  0  0  0  0  0  0  0  0  0  0  0
  121.4068  108.8562  106.4053 H   0  0  0  0  0  0  0  0  0  0  0  0
  120.0813  107.7401  106.8084 H   0  0  0  0  0  0  0  0  0  0  0  0
  127.0509  102.6799  109.3701 H   0  0  0  0  0  0  0  0  0  0  0  0
  127.2063  103.9399  110.5648 H   0  0  0  0  0  0  0  0  0  0  0  0
  1  2  2  0  0  0  0
  1  4  1  0  0  0  0
  2  5  1  0  0  0  0
  3  4  2  0  0  0  0
  3  6  1  0  0  0  0
  4 13  1  0  0  0  0
  5  6  2  0  0  0  0
  5 20  1  0  0  0  0
  6 21  1  0  0  0  0
  7  8  1  0  0  0  0
  7 10  1  0  0  0  0
  8 19  1  0  0  0  0
  9 10  1  0  0  0  0
  9 19  1  0  0  0  0
 10 14  1  0  0  0  0
 11 12  1  0  0  0  0
 12 14  1  0  0  0  0
 14 20  1  0  0  0  0
 15 19  2  0  0  0  0
 16 19  2  0  0  0  0
 17 20  2  0  0  0  0
 18 20  2  0  0  0  0
  1 22  1  0  0  0  0
  2 23  1  0  0  0  0
  3 24  1  0  0  0  0
  7 25  1  0  0  0  0
  7 26  1  0  0  0  0
  8 27  1  0  0  0  0
  8 28  1  0  0  0  0
  9 29  1  0  0  0  0
  9 30  1  0  0  0  0
 10 31  1  0  0  0  0
 11 32  1  0  0  0  0
 11 33  1  0  0  0  0
 11 34  1  0  0  0  0
 12 35  1  0  0  0  0
 12 36  1  0  0  0  0
 13 37  1  0  0  0  0
 13 38  1  0  0  0  0
M  END
> <FRED Chemgauss4 score>
-8.951270

$$$$
C93830096	P147036972
  -OEChem-05122015313D

 51 53  0     1  0  0  0  0  0999 V2000
  125.6567  108.4269  107.2839 C   0  0  0  0  0  0  0  0  0  0  0  0
  117.4819  103.9926  105.6552 C   0  0  0  0  0  0  0  0  0  0  0  0
  118.6704  103.7517  104.7293 C   0  0  0  0  0  0  0  0  0  0  0  0
  123.0499  107.6922  109.3565 C   0  0  0  0  0  0  0  0  0  0  0  0
  124.5832  107.6614  109.4112 C   0  0  0  0  0  0  0  0  0  0  0  0
  119.0468  107.5855  107.5446 C   0  0  0  0  0  0  0  0  0  0  0  0
  123.7861  106.7667  107.2846 C   0  0  0  0  0  0  0  0  0  0  0  0
  117.6942  105.3893  106.2204 C   0  0  0  0  0  0  0  0  0  0  0  0
  119.4999  105.0249  104.8074 C   0  0  0  0  0  0  0  0  0  0  0  0
  120.3299  107.9871  108.2647 C   0  0  0  0  0  0  0  0  0  0  0  0
  121.0157  107.1842  106.1933 C   0  0  0  0  0  0  0  0  0  0  0  0
  122.7023  107.6693  107.8710 C   0  0  1  0  0  0  0  0  0  0  0  0
  119.5030  106.9861  106.2127 C   0  0  1  0  0  0  0  0  0  0  0  0
  125.0510  107.2505  108.0032 C   0  0  1  0  0  0  0  0  0  0  0  0
  127.5967  104.8590  106.7025 C   0  0  0  0  0  0  0  0  0  0  0  0
  126.5137  105.8834  106.6797 C   0  0  0  0  0  0  0  0  0  0  0  0
  119.1438  105.5663  106.1198 N   0  0  0  0  0  0  0  0  0  0  0  0
  121.3580  107.1730  107.6175 N   0  0  1  0  0  0  0  0  0  0  0  0
  126.7497  108.9642  107.9219 N   0  0  0  0  0  0  0  0  0  0  0  0
  126.1012  106.2421  108.0299 N   0  0  0  0  0  0  0  0  0  0  0  0
  125.2092  108.8408  106.2172 O   0  0  0  0  0  0  0  0  0  0  0  0
  116.5294  103.9167  105.1208 H   0  0  0  0  0  0  0  0  0  0  0  0
  117.4782  103.2441  106.4564 H   0  0  0  0  0  0  0  0  0  0  0  0
  119.2469  102.8889  105.0827 H   0  0  0  0  0  0  0  0  0  0  0  0
  118.3498  103.5442  103.7032 H   0  0  0  0  0  0  0  0  0  0  0  0
  122.6561  106.8045  109.8685 H   0  0  0  0  0  0  0  0  0  0  0  0
  122.6401  108.5716  109.8640 H   0  0  0  0  0  0  0  0  0  0  0  0
  124.9776  108.6389  109.7119 H   0  0  0  0  0  0  0  0  0  0  0  0
  124.8970  106.9454  110.1807 H   0  0  0  0  0  0  0  0  0  0  0  0
  118.4627  106.8877  108.1564 H   0  0  0  0  0  0  0  0  0  0  0  0
  118.4133  108.4620  107.3573 H   0  0  0  0  0  0  0  0  0  0  0  0
  123.5802  105.7144  107.5235 H   0  0  0  0  0  0  0  0  0  0  0  0
  123.8450  106.8591  106.1940 H   0  0  0  0  0  0  0  0  0  0  0  0
  117.1521  106.1224  105.6092 H   0  0  0  0  0  0  0  0  0  0  0  0
  117.3398  105.4650  107.2532 H   0  0  0  0  0  0  0  0  0  0  0  0
  120.5709  104.8147  104.7242 H   0  0  0  0  0  0  0  0  0  0  0  0
  119.2125  105.7052  103.9952 H   0  0  0  0  0  0  0  0  0  0  0  0
  120.5289  109.0599  108.1621 H   0  0  0  0  0  0  0  0  0  0  0  0
  120.2399  107.7526  109.3347 H   0  0  0  0  0  0  0  0  0  0  0  0
  121.5169  106.3647  105.6597 H   0  0  0  0  0  0  0  0  0  0  0  0
  121.2918  108.1280  105.7102 H   0  0  0  0  0  0  0  0  0  0  0  0
  122.7887  108.6773  107.4571 H   0  0  0  0  0  0  0  0  0  0  0  0
  119.0408  107.5252  105.4018 H   0  0  0  0  0  0  0  0  0  0  0  0
  128.4803  105.2361  107.2288 H   0  0  0  0  0  0  0  0  0  0  0  0
  127.2532  103.9386  107.1871 H   0  0  0  0  0  0  0  0  0  0  0  0
  127.8947  104.6108  105.6768 H   0  0  0  0  0  0  0  0  0  0  0  0
  125.6346  105.5003  106.1528 H   0  0  0  0  0  0  0  0  0  0  0  0
  126.8534  106.7961  106.1814 H   0  0  0  0  0  0  0  0  0  0  0  0
  127.0574  108.5479  108.7945 H   0  0  0  0  0  0  0  0  0  0  0  0
  127.2609  109.7604  107.5550 H   0  0  0  0  0  0  0  0  0  0  0  0
  125.7556  105.4101  108.5075 H   0  0  0  0  0  0  0  0  0  0  0  0
  1 14  1  0  0  0  0
  1 19  1  0  0  0  0
  1 21  2  0  0  0  0
  2  3  1  0  0  0  0
  2  8  1  0  0  0  0
  3  9  1  0  0  0  0
  4  5  1  0  0  0  0
  4 12  1  0  0  0  0
  5 14  1  0  0  0  0
  6 10  1  0  0  0  0
  6 13  1  0  0  0  0
  7 12  1  0  0  0  0
  7 14  1  0  0  0  0
  8 17  1  0  0  0  0
  9 17  1  0  0  0  0
 10 18  1  0  0  0  0
 11 13  1  0  0  0  0
 11 18  1  0  0  0  0
 12 18  1  0  0  0  0
 13 17  1  0  0  0  0
 14 20  1  0  0  0  0
 15 16  1  0  0  0  0
 16 20  1  0  0  0  0
  2 22  1  0  0  0  0
  2 23  1  0  0  0  0
  3 24  1  0  0  0  0
  3 25  1  0  0  0  0
  4 26  1  0  0  0  0
  4 27  1  0  0  0  0
  5 28  1  0  0  0  0
  5 29  1  0  0  0  0
  6 30  1  0  0  0  0
  6 31  1  0  0  0  0
  7 32  1  0  0  0  0
  7 33  1  0  0  0  0
  8 34  1  0  0  0  0
  8 35  1  0  0  0  0
  9 36  1  0  0  0  0
  9 37  1  0  0  0  0
 10 38  1  0  0  0  0
 10 39  1  0  0  0  0
 11 40  1  0  0  0  0
 11 41  1  0  0  0  0
 12 42  1  0  0  0  0
 13 43  1  0  0  0  0
 15 44  1  0  0  0  0
 15 45  1  0  0  0  0
 15 46  1  0  0  0  0
 16 47  1  0  0  0  0
 16 48  1  0  0  0  0
 19 49  1  0  0  0  0
 19 50  1  0  0  0  0
 20 51  1  0  0  0  0
M  END
> <FRED Chemgauss4 score>
-8.944714

$$$$
C87583858	P137000855
  -OEChem-05122015313D

 26 27  0     1  0  0  0  0  0999 V2000
  124.5251  109.0827  109.2545 C   0  0  0  0  0  0  0  0  0  0  0  0
  125.5136  107.6407  108.0539 C   0  0  0  0  0  0  0  0  0  0  0  0
  124.2500  104.5179  108.1602 C   0  0  0  0  0  0  0  0  0  0  0  0
  125.1099  103.9121  107.0865 C   0  0  0  0  0  0  0  0  0  0  0  0
  124.8876  105.3988  107.1218 C   0  0  0  0  0  0  0  0  0  0  0  0
  123.5784  108.8692  111.5925 C   0  0  0  0  0  0  0  0  0  0  0  0
  126.0005  106.3150  107.4967 C   0  0  0  0  0  0  0  0  0  0  0  0
  123.6984  109.6965  110.2913 C   0  0  2  0  0  0  0  0  0  0  0  0
  125.2100  109.7764  108.3242 N   0  5  0  0  0  0  0  0  0  0  0  0
  124.6966  107.7619  109.1088 N   0  0  0  0  0  0  0  0  0  0  0  0
  125.8492  108.8431  107.5467 N   0  0  0  0  0  0  0  0  0  0  0  0
  122.2648  109.9752  109.8870 N   0  3  0  0  0  0  0  0  0  0  0  0
  123.1823  104.3434  108.1082 H   0  0  0  0  0  0  0  0  0  0  0  0
  124.6502  104.5539  109.1660 H   0  0  0  0  0  0  0  0  0  0  0  0
  126.0866  103.5415  107.3725 H   0  0  0  0  0  0  0  0  0  0  0  0
  124.6180  103.3321  106.3153 H   0  0  0  0  0  0  0  0  0  0  0  0
  124.2444  105.8291  106.3637 H   0  0  0  0  0  0  0  0  0  0  0  0
  123.2119  107.8570  111.3882 H   0  0  0  0  0  0  0  0  0  0  0  0
  124.5339  108.7760  112.1207 H   0  0  0  0  0  0  0  0  0  0  0  0
  122.8664  109.3487  112.2736 H   0  0  0  0  0  0  0  0  0  0  0  0
  126.6581  106.5241  106.6301 H   0  0  0  0  0  0  0  0  0  0  0  0
  126.6696  105.8489  108.2467 H   0  0  0  0  0  0  0  0  0  0  0  0
  124.0741  110.7022  110.5896 H   0  0  0  0  0  0  0  0  0  0  0  0
  121.6743  109.2110  110.1981 H   0  0  0  0  0  0  0  0  0  0  0  0
  122.2122  110.0581  108.8770 H   0  0  0  0  0  0  0  0  0  0  0  0
  121.9577  110.8413  110.3174 H   0  0  0  0  0  0  0  0  0  0  0  0
  1  8  1  0  0  0  0
  1  9  1  0  0  0  0
  1 10  2  0  0  0  0
  2  7  1  0  0  0  0
  2 10  1  0  0  0  0
  2 11  2  0  0  0  0
  3  4  1  0  0  0  0
  3  5  1  0  0  0  0
  4  5  1  0  0  0  0
  5  7  1  0  0  0  0
  6  8  1  0  0  0  0
  8 12  1  0  0  0  0
  9 11  1  0  0  0  0
  3 13  1  0  0  0  0
  3 14  1  0  0  0  0
  4 15  1  0  0  0  0
  4 16  1  0  0  0  0
  5 17  1  0  0  0  0
  6 18  1  0  0  0  0
  6 19  1  0  0  0  0
  6 20  1  0  0  0  0
  7 21  1  0  0  0  0
  7 22  1  0  0  0  0
  8 23  1  0  0  0  0
 12 24  1  0  0  0  0
 12 25  1  0  0  0  0
 12 26  1  0  0  0  0
M  CHG  2   9  -1  12   1
M  END
> <FRED Chemgauss4 score>
-8.938182

$$$$
C87750457	P137259032
  -OEChem-05122015313D

 31 32  0     0  0  0  0  0  0999 V2000
  121.8287  104.0791  106.5459 C   0  0  0  0  0  0  0  0  0  0  0  0
  122.1824  106.2061  107.6767 C   0  0  0  0  0  0  0  0  0  0  0  0
  122.6849  105.0036  107.1490 C   0  0  0  0  0  0  0  0  0  0  0  0
  120.4860  104.3914  106.4902 C   0  0  0  0  0  0  0  0  0  0  0  0
  119.9941  105.5683  107.0068 C   0  0  0  0  0  0  0  0  0  0  0  0
  120.8180  106.4979  107.6073 C   0  0  0  0  0  0  0  0  0  0  0  0
  118.3458  104.4399  106.1752 C   0  0  0  0  0  0  0  0  0  0  0  0
  124.1462  104.7129  107.2343 C   0  0  0  0  0  0  0  0  0  0  0  0
  127.2454  106.7493  107.2453 C   0  0  0  0  0  0  0  0  0  0  0  0
  126.2257  105.6741  109.2809 C   0  0  0  0  0  0  0  0  0  0  0  0
  126.2796  105.6818  107.7545 C   0  0  0  0  0  0  0  0  0  0  0  0
  124.9449  105.9113  107.2024 N   0  0  0  0  0  0  0  0  0  0  0  0
  119.5082  103.6178  105.9449 O   0  0  0  0  0  0  0  0  0  0  0  0
  118.6469  105.6790  106.8493 O   0  0  0  0  0  0  0  0  0  0  0  0
  126.7956  108.0324  107.6661 O   0  0  0  0  0  0  0  0  0  0  0  0
  127.5364  105.8676  109.8006 O   0  0  0  0  0  0  0  0  0  0  0  0
  120.1487  108.1115  108.3159 Br  0  0  0  0  0  0  0  0  0  0  0  0
  122.2033  103.1477  106.1353 H   0  0  0  0  0  0  0  0  0  0  0  0
  122.8697  106.9106  108.1412 H   0  0  0  0  0  0  0  0  0  0  0  0
  117.8802  104.6694  105.2099 H   0  0  0  0  0  0  0  0  0  0  0  0
  117.6316  103.8745  106.7848 H   0  0  0  0  0  0  0  0  0  0  0  0
  124.3891  104.1783  108.1629 H   0  0  0  0  0  0  0  0  0  0  0  0
  124.4783  104.0750  106.4042 H   0  0  0  0  0  0  0  0  0  0  0  0
  127.2806  106.7510  106.1509 H   0  0  0  0  0  0  0  0  0  0  0  0
  128.2580  106.5917  107.6327 H   0  0  0  0  0  0  0  0  0  0  0  0
  125.8359  104.7251  109.6649 H   0  0  0  0  0  0  0  0  0  0  0  0
  125.5970  106.4906  109.6508 H   0  0  0  0  0  0  0  0  0  0  0  0
  126.5783  104.6938  107.3845 H   0  0  0  0  0  0  0  0  0  0  0  0
  125.0453  106.2414  106.2372 H   0  0  0  0  0  0  0  0  0  0  0  0
  127.4343  108.6773  107.3231 H   0  0  0  0  0  0  0  0  0  0  0  0
  127.4568  105.8560  110.7676 H   0  0  0  0  0  0  0  0  0  0  0  0
  1  3  1  0  0  0  0
  1  4  2  0  0  0  0
  2  3  2  0  0  0  0
  2  6  1  0  0  0  0
  3  8  1  0  0  0  0
  4  5  1  0  0  0  0
  4 13  1  0  0  0  0
  5  6  2  0  0  0  0
  5 14  1  0  0  0  0
  6 17  1  0  0  0  0
  7 13  1  0  0  0  0
  7 14  1  0  0  0  0
  8 12  1  0  0  0  0
  9 11  1  0  0  0  0
  9 15  1  0  0  0  0
 10 11  1  0  0  0  0
 10 16  1  0  0  0  0
 11 12  1  0  0  0  0
  1 18  1  0  0  0  0
  2 19  1  0  0  0  0
  7 20  1  0  0  0  0
  7 21  1  0  0  0  0
  8 22  1  0  0  0  0
  8 23  1  0  0  0  0
  9 24  1  0  0  0  0
  9 25  1  0  0  0  0
 10 26  1  0  0  0  0
 10 27  1  0  0  0  0
 11 28  1  0  0  0  0
 12 29  1  0  0  0  0
 15 30  1  0  0  0  0
 16 31  1  0  0  0  0
M  END
> <FRED Chemgauss4 score>
-8.933823

$$$$
C87869111	P137439811
  -OEChem-05122015313D

 32 33  0     1  0  0  0  0  0999 V2000
  118.8128  107.3447  107.1543 C   0  0  0  0  0  0  0  0  0  0  0  0
  119.8357  106.4285  107.0184 C   0  0  0  0  0  0  0  0  0  0  0  0
  121.0602  106.8224  107.5182 C   0  0  0  0  0  0  0  0  0  0  0  0
  120.2038  108.8214  108.1797 C   0  0  0  0  0  0  0  0  0  0  0  0
  125.5918  104.9245  108.5238 C   0  0  0  0  0  0  0  0  0  0  0  0
  126.3796  106.1976  108.8124 C   0  0  0  0  0  0  0  0  0  0  0  0
  125.1348  106.1383  106.4498 C   0  0  0  0  0  0  0  0  0  0  0  0
  124.4710  105.2893  107.5395 C   0  0  2  0  0  0  0  0  0  0  0  0
  123.3202  106.0311  108.2196 C   0  0  0  0  0  0  0  0  0  0  0  0
  118.9621  108.5548  107.7318 N   0  0  0  0  0  0  0  0  0  0  0  0
  121.2807  108.0161  108.1071 N   0  0  0  0  0  0  0  0  0  0  0  0
  119.3382  110.8664  109.1751 N   0  0  0  0  0  0  0  0  0  0  0  0
  122.1437  105.9488  107.4173 N   0  0  0  0  0  0  0  0  0  0  0  0
  120.3974  110.0796  108.7904 N   0  0  0  0  0  0  0  0  0  0  0  0
  127.6689  106.8457  106.6072 O   0  0  0  0  0  0  0  0  0  0  0  0
  125.9057  108.4334  107.5027 O   0  0  0  0  0  0  0  0  0  0  0  0
  126.4049  107.0943  107.2690 S   0  0  0  0  0  0  0  0  0  0  0  0
  119.5106  104.7647  106.1932 Br  0  0  0  0  0  0  0  0  0  0  0  0
  117.8086  107.1389  106.7966 H   0  0  0  0  0  0  0  0  0  0  0  0
  126.2479  104.1368  108.1226 H   0  0  0  0  0  0  0  0  0  0  0  0
  125.1599  104.5356  109.4612 H   0  0  0  0  0  0  0  0  0  0  0  0
  125.9177  106.8097  109.5898 H   0  0  0  0  0  0  0  0  0  0  0  0
  127.4137  105.9649  109.0833 H   0  0  0  0  0  0  0  0  0  0  0  0
  125.5888  105.5243  105.6632 H   0  0  0  0  0  0  0  0  0  0  0  0
  124.4273  106.8454  105.9970 H   0  0  0  0  0  0  0  0  0  0  0  0
  124.0813  104.3690  107.0894 H   0  0  0  0  0  0  0  0  0  0  0  0
  123.5939  107.0729  108.3415 H   0  0  0  0  0  0  0  0  0  0  0  0
  123.1229  105.5787  109.1845 H   0  0  0  0  0  0  0  0  0  0  0  0
  119.5376  111.8266  108.8985 H   0  0  0  0  0  0  0  0  0  0  0  0
  119.2912  110.8712  110.1932 H   0  0  0  0  0  0  0  0  0  0  0  0
  122.0736  105.2079  106.7165 H   0  0  0  0  0  0  0  0  0  0  0  0
  121.3201  110.3019  109.1340 H   0  0  0  0  0  0  0  0  0  0  0  0
  1  2  1  0  0  0  0
  1 10  2  0  0  0  0
  2  3  2  0  0  0  0
  2 18  1  0  0  0  0
  3 11  1  0  0  0  0
  3 13  1  0  0  0  0
  4 10  1  0  0  0  0
  4 11  2  0  0  0  0
  4 14  1  0  0  0  0
  5  6  1  0  0  0  0
  5  8  1  0  0  0  0
  6 17  1  0  0  0  0
  7  8  1  0  0  0  0
  7 17  1  0  0  0  0
  8  9  1  0  0  0  0
  9 13  1  0  0  0  0
 12 14  1  0  0  0  0
 15 17  2  0  0  0  0
 16 17  2  0  0  0  0
  1 19  1  0  0  0  0
  5 20  1  0  0  0  0
  5 21  1  0  0  0  0
  6 22  1  0  0  0  0
  6 23  1  0  0  0  0
  7 24  1  0  0  0  0
  7 25  1  0  0  0  0
  8 26  1  0  0  0  0
  9 27  1  0  0  0  0
  9 28  1  0  0  0  0
 12 29  1  0  0  0  0
 12 30  1  0  0  0  0
 13 31  1  0  0  0  0
 14 32  1  0  0  0  0
M  END
> <FRED Chemgauss4 score>
-8.922659

$$$$
C88001803	P137647695
  -OEChem-05122015313D

 26 26  0     1  0  0  0  0  0999 V2000
  124.9565  105.3572  108.2899 C   0  0  0  0  0  0  0  0  0  0  0  0
  124.9455  107.4393  108.4387 C   0  0  0  0  0  0  0  0  0  0  0  0
  125.3206  103.4072  106.7566 C   0  0  0  0  0  0  0  0  0  0  0  0
  123.3081  109.4523  111.7763 C   0  0  0  0  0  0  0  0  0  0  0  0
  124.5335  103.9972  107.9359 C   0  0  0  0  0  0  0  0  0  0  0  0
  124.5266  109.5510  109.7693 C   0  0  0  0  0  0  0  0  0  0  0  0
  124.6595  108.9243  108.3788 C   0  0  1  0  0  0  0  0  0  0  0  0
  124.2302  106.4588  107.9382 N   0  0  0  0  0  0  0  0  0  0  0  0
  126.0761  105.5944  108.9767 N   0  0  0  0  0  0  0  0  0  0  0  0
  126.0455  106.9333  109.0583 N   0  0  0  0  0  0  0  0  0  0  0  0
  125.6706  109.6108  107.6033 N   0  0  0  0  0  0  0  0  0  0  0  0
  123.4797  108.8981  110.4800 O   0  0  0  0  0  0  0  0  0  0  0  0
  125.2512  104.0614  105.8809 H   0  0  0  0  0  0  0  0  0  0  0  0
  124.9413  102.4203  106.4735 H   0  0  0  0  0  0  0  0  0  0  0  0
  126.3800  103.3022  107.0143 H   0  0  0  0  0  0  0  0  0  0  0  0
  122.4993  108.9296  112.2927 H   0  0  0  0  0  0  0  0  0  0  0  0
  123.0724  110.5160  111.6905 H   0  0  0  0  0  0  0  0  0  0  0  0
  124.2359  109.3311  112.3404 H   0  0  0  0  0  0  0  0  0  0  0  0
  124.6332  103.3021  108.7960 H   0  0  0  0  0  0  0  0  0  0  0  0
  123.4537  103.9596  107.6798 H   0  0  0  0  0  0  0  0  0  0  0  0
  125.4490  109.4224  110.3462 H   0  0  0  0  0  0  0  0  0  0  0  0
  124.2918  110.6197  109.7164 H   0  0  0  0  0  0  0  0  0  0  0  0
  123.7232  109.0939  107.8321 H   0  0  0  0  0  0  0  0  0  0  0  0
  126.7935  107.4170  109.5413 H   0  0  0  0  0  0  0  0  0  0  0  0
  125.7969  110.5964  107.7408 H   0  0  0  0  0  0  0  0  0  0  0  0
  126.0743  109.1409  106.8142 H   0  0  0  0  0  0  0  0  0  0  0  0
  1  5  1  0  0  0  0
  1  8  1  0  0  0  0
  1  9  2  0  0  0  0
  2  7  1  0  0  0  0
  2  8  2  0  0  0  0
  2 10  1  0  0  0  0
  3  5  1  0  0  0  0
  4 12  1  0  0  0  0
  6  7  1  0  0  0  0
  6 12  1  0  0  0  0
  7 11  1  0  0  0  0
  9 10  1  0  0  0  0
  3 13  1  0  0  0  0
  3 14  1  0  0  0  0
  3 15  1  0  0  0  0
  4 16  1  0  0  0  0
  4 17  1  0  0  0  0
  4 18  1  0  0  0  0
  5 19  1  0  0  0  0
  5 20  1  0  0  0  0
  6 21  1  0  0  0  0
  6 22  1  0  0  0  0
  7 23  1  0  0  0  0
 10 24  1  0  0  0  0
 11 25  1  0  0  0  0
 11 26  1  0  0  0  0
M  END
> <FRED Chemgauss4 score>
-8.922155

$$$$
C87441208	P136788672
  -OEChem-05122015313D

 17 17  0     0  0  0  0  0  0999 V2000
  121.0957  103.8332  105.9185 C   0  0  0  0  0  0  0  0  0  0  0  0
  121.6710  104.8685  105.7221 C   0  0  0  0  0  0  0  0  0  0  0  0
  127.5007  106.9319  107.9441 C   0  0  0  0  0  0  0  0  0  0  0  0
  125.6071  107.2444  107.1231 C   0  0  0  0  0  0  0  0  0  0  0  0
  124.4073  107.3192  106.2502 C   0  0  0  0  0  0  0  0  0  0  0  0
  122.3688  106.1335  105.4791 C   0  0  0  0  0  0  0  0  0  0  0  0
  126.7821  106.7589  106.7959 N   0  0  0  0  0  0  0  0  0  0  0  0
  125.6358  107.6838  108.4100 N   0  0  0  0  0  0  0  0  0  0  0  0
  126.8442  107.4939  108.9612 N   0  0  0  0  0  0  0  0  0  0  0  0
  123.5628  106.2212  106.2888 N   0  0  0  0  0  0  0  0  0  0  0  0
  124.2397  108.3103  105.5444 O   0  0  0  0  0  0  0  0  0  0  0  0
  120.5854  102.9150  106.0934 H   0  0  0  0  0  0  0  0  0  0  0  0
  128.5372  106.6331  108.0264 H   0  0  0  0  0  0  0  0  0  0  0  0
  121.7151  106.9795  105.7128 H   0  0  0  0  0  0  0  0  0  0  0  0
  122.6441  106.2136  104.4226 H   0  0  0  0  0  0  0  0  0  0  0  0
  127.0646  107.7547  109.9184 H   0  0  0  0  0  0  0  0  0  0  0  0
  123.7999  105.4102  106.8508 H   0  0  0  0  0  0  0  0  0  0  0  0
  1  2  3  0  0  0  0
  2  6  1  0  0  0  0
  3  7  2  0  0  0  0
  3  9  1  0  0  0  0
  4  5  1  0  0  0  0
  4  7  1  0  0  0  0
  4  8  2  0  0  0  0
  5 10  1  0  0  0  0
  5 11  2  0  0  0  0
  6 10  1  0  0  0  0
  8  9  1  0  0  0  0
  1 12  1  0  0  0  0
  3 13  1  0  0  0  0
  6 14  1  0  0  0  0
  6 15  1  0  0  0  0
  9 16  1  0  0  0  0
 10 17  1  0  0  0  0
M  END
> <FRED Chemgauss4 score>
-8.917673

$$$$
C40366541	P61281403
  -OEChem-05122015313D

 21 20  0     1  0  0  0  0  0999 V2000
  124.8969  103.9757  107.6138 C   0  0  0  0  0  0  0  0  0  0  0  0
  123.0860  104.9981  106.1353 C   0  0  0  0  0  0  0  0  0  0  0  0
  124.3053  105.2586  107.0278 C   0  0  2  0  0  0  0  0  0  0  0  0
  125.6799  108.1846  107.5859 C   0  0  0  0  0  0  0  0  0  0  0  0
  125.3383  105.9911  106.2950 N   0  5  0  0  0  0  0  0  0  0  0  0
  122.0005  104.3089  106.8768 N   0  3  0  0  0  0  0  0  0  0  0  0
  123.5344  107.8416  106.2531 O   0  0  0  0  0  0  0  0  0  0  0  0
  125.6516  108.2262  105.0380 O   0  0  0  0  0  0  0  0  0  0  0  0
  125.4742  109.5247  107.6599 F   0  0  0  0  0  0  0  0  0  0  0  0
  125.1204  107.6436  108.6976 F   0  0  0  0  0  0  0  0  0  0  0  0
  124.9514  107.5219  106.1081 S   0  0  0  0  0  0  0  0  0  0  0  0
  125.2624  103.3194  106.8152 H   0  0  0  0  0  0  0  0  0  0  0  0
  124.1404  103.4215  108.1797 H   0  0  0  0  0  0  0  0  0  0  0  0
  125.7444  104.1752  108.2791 H   0  0  0  0  0  0  0  0  0  0  0  0
  123.3407  104.3538  105.2877 H   0  0  0  0  0  0  0  0  0  0  0  0
  122.6565  105.9313  105.7552 H   0  0  0  0  0  0  0  0  0  0  0  0
  123.9596  105.8689  107.8728 H   0  0  0  0  0  0  0  0  0  0  0  0
  126.7561  107.9933  107.5900 H   0  0  0  0  0  0  0  0  0  0  0  0
  121.9468  103.3199  106.6119 H   0  0  0  0  0  0  0  0  0  0  0  0
  121.0914  104.7398  106.6781 H   0  0  0  0  0  0  0  0  0  0  0  0
  122.1600  104.3577  107.8885 H   0  0  0  0  0  0  0  0  0  0  0  0
  1  3  1  0  0  0  0
  2  3  1  0  0  0  0
  2  6  1  0  0  0  0
  3  5  1  0  0  0  0
  4  9  1  0  0  0  0
  4 10  1  0  0  0  0
  4 11  1  0  0  0  0
  5 11  1  0  0  0  0
  7 11  2  0  0  0  0
  8 11  2  0  0  0  0
  1 12  1  0  0  0  0
  1 13  1  0  0  0  0
  1 14  1  0  0  0  0
  2 15  1  0  0  0  0
  2 16  1  0  0  0  0
  3 17  1  0  0  0  0
  4 18  1  0  0  0  0
  6 19  1  0  0  0  0
  6 20  1  0  0  0  0
  6 21  1  0  0  0  0
M  CHG  2   5  -1   6   1
M  END
> <FRED Chemgauss4 score>
-8.913494

$$$$
C70062489	P107994538
  -OEChem-05122015313D

 29 30  0     1  0  0  0  0  0999 V2000
  120.7834  104.4895  106.6271 C   0  0  0  0  0  0  0  0  0  0  0  0
  124.9681  107.4338  106.4970 C   0  0  0  0  0  0  0  0  0  0  0  0
  121.5434  105.0043  105.4207 C   0  0  0  0  0  0  0  0  0  0  0  0
  122.6774  105.9619  105.7505 C   0  0  0  0  0  0  0  0  0  0  0  0
  126.7915  106.8214  107.9074 C   0  0  0  0  0  0  0  0  0  0  0  0
  125.6000  105.9343  108.2144 C   0  0  0  0  0  0  0  0  0  0  0  0
  122.7038  105.1726  108.0974 C   0  0  0  0  0  0  0  0  0  0  0  0
  126.1653  108.0279  107.2147 C   0  0  1  0  0  0  0  0  0  0  0  0
  123.5518  105.3723  106.8509 C   0  0  2  0  0  0  0  0  0  0  0  0
  121.4534  104.4868  107.8302 N   0  0  0  0  0  0  0  0  0  0  0  0
  124.6870  106.2238  107.1326 N   0  0  0  0  0  0  0  0  0  0  0  0
  127.0401  108.6633  106.2771 N   0  0  0  0  0  0  0  0  0  0  0  0
  119.6494  104.0236  106.5015 O   0  0  0  0  0  0  0  0  0  0  0  0
  124.3574  107.9604  105.5787 O   0  0  0  0  0  0  0  0  0  0  0  0
  121.9442  104.1436  104.8760 H   0  0  0  0  0  0  0  0  0  0  0  0
  120.8139  105.4972  104.7690 H   0  0  0  0  0  0  0  0  0  0  0  0
  123.2836  106.1254  104.8579 H   0  0  0  0  0  0  0  0  0  0  0  0
  122.2667  106.9240  106.0568 H   0  0  0  0  0  0  0  0  0  0  0  0
  127.3627  107.0903  108.8011 H   0  0  0  0  0  0  0  0  0  0  0  0
  127.4714  106.2894  107.2284 H   0  0  0  0  0  0  0  0  0  0  0  0
  125.8668  104.8739  108.2210 H   0  0  0  0  0  0  0  0  0  0  0  0
  125.1172  106.2065  109.1581 H   0  0  0  0  0  0  0  0  0  0  0  0
  123.2420  104.5538  108.8222 H   0  0  0  0  0  0  0  0  0  0  0  0
  122.4618  106.1243  108.5788 H   0  0  0  0  0  0  0  0  0  0  0  0
  125.7885  108.7477  107.9558 H   0  0  0  0  0  0  0  0  0  0  0  0
  123.9610  104.4166  106.5324 H   0  0  0  0  0  0  0  0  0  0  0  0
  121.0379  103.9619  108.5920 H   0  0  0  0  0  0  0  0  0  0  0  0
  128.0003  108.7894  106.5298 H   0  0  0  0  0  0  0  0  0  0  0  0
  126.6363  109.1405  105.4953 H   0  0  0  0  0  0  0  0  0  0  0  0
  1  3  1  0  0  0  0
  1 10  1  0  0  0  0
  1 13  2  0  0  0  0
  2  8  1  0  0  0  0
  2 11  1  0  0  0  0
  2 14  2  0  0  0  0
  3  4  1  0  0  0  0
  4  9  1  0  0  0  0
  5  6  1  0  0  0  0
  5  8  1  0  0  0  0
  6 11  1  0  0  0  0
  7  9  1  0  0  0  0
  7 10  1  0  0  0  0
  8 12  1  0  0  0  0
  9 11  1  0  0  0  0
  3 15  1  0  0  0  0
  3 16  1  0  0  0  0
  4 17  1  0  0  0  0
  4 18  1  0  0  0  0
  5 19  1  0  0  0  0
  5 20  1  0  0  0  0
  6 21  1  0  0  0  0
  6 22  1  0  0  0  0
  7 23  1  0  0  0  0
  7 24  1  0  0  0  0
  8 25  1  0  0  0  0
  9 26  1  0  0  0  0
 10 27  1  0  0  0  0
 12 28  1  0  0  0  0
 12 29  1  0  0  0  0
M  END
> <FRED Chemgauss4 score>
-8.910075

$$$$
C34977828	P51916462
  -OEChem-05122015313D

 29 29  0     0  0  0  0  0  0999 V2000
  123.5180  109.9959  110.8953 C   0  0  0  0  0  0  0  0  0  0  0  0
  123.1316  109.2196  112.0905 C   0  0  0  0  0  0  0  0  0  0  0  0
  126.6106  107.1261  107.3890 C   0  0  0  0  0  0  0  0  0  0  0  0
  124.9220  107.1656  109.2057 C   0  0  0  0  0  0  0  0  0  0  0  0
  125.4147  109.2352  107.8655 C   0  0  0  0  0  0  0  0  0  0  0  0
  123.6510  107.8334  109.7206 C   0  0  0  0  0  0  0  0  0  0  0  0
  124.1438  109.8781  108.4212 C   0  0  0  0  0  0  0  0  0  0  0  0
  125.3038  107.7102  107.8285 C   0  0  0  0  0  0  0  0  0  0  0  0
  123.7775  109.2938  109.7206 N   0  0  0  0  0  0  0  0  0  0  0  0
  127.6552  107.4018  108.2394 N   0  0  0  0  0  0  0  0  0  0  0  0
  124.0135  108.1074  113.9885 N   0  0  0  0  0  0  0  0  0  0  0  0
  124.2226  108.8416  112.8380 N   0  0  0  0  0  0  0  0  0  0  0  0
  123.5922  111.2204  111.0118 O   0  0  0  0  0  0  0  0  0  0  0  0
  121.9535  108.9824  112.3187 O   0  0  0  0  0  0  0  0  0  0  0  0
  126.7135  106.4511  106.3677 O   0  0  0  0  0  0  0  0  0  0  0  0
  125.7294  107.3142  109.9213 H   0  0  0  0  0  0  0  0  0  0  0  0
  124.7425  106.0932  109.1166 H   0  0  0  0  0  0  0  0  0  0  0  0
  125.5696  109.5967  106.8455 H   0  0  0  0  0  0  0  0  0  0  0  0
  126.2724  109.5485  108.4632 H   0  0  0  0  0  0  0  0  0  0  0  0
  122.7944  107.5284  109.1030 H   0  0  0  0  0  0  0  0  0  0  0  0
  123.4290  107.5193  110.7514 H   0  0  0  0  0  0  0  0  0  0  0  0
  124.2827  110.9568  108.5750 H   0  0  0  0  0  0  0  0  0  0  0  0
  123.3313  109.7674  107.6945 H   0  0  0  0  0  0  0  0  0  0  0  0
  124.5684  107.4173  107.1006 H   0  0  0  0  0  0  0  0  0  0  0  0
  127.4743  107.9577  109.0688 H   0  0  0  0  0  0  0  0  0  0  0  0
  128.6000  107.0718  108.0708 H   0  0  0  0  0  0  0  0  0  0  0  0
  124.8076  107.4756  114.0844 H   0  0  0  0  0  0  0  0  0  0  0  0
  123.2017  107.5153  113.8177 H   0  0  0  0  0  0  0  0  0  0  0  0
  125.1793  109.0730  112.5882 H   0  0  0  0  0  0  0  0  0  0  0  0
  1  2  1  0  0  0  0
  1  9  1  0  0  0  0
  1 13  2  0  0  0  0
  2 12  1  0  0  0  0
  2 14  2  0  0  0  0
  3  8  1  0  0  0  0
  3 10  1  0  0  0  0
  3 15  2  0  0  0  0
  4  6  1  0  0  0  0
  4  8  1  0  0  0  0
  5  7  1  0  0  0  0
  5  8  1  0  0  0  0
  6  9  1  0  0  0  0
  7  9  1  0  0  0  0
 11 12  1  0  0  0  0
  4 16  1  0  0  0  0
  4 17  1  0  0  0  0
  5 18  1  0  0  0  0
  5 19  1  0  0  0  0
  6 20  1  0  0  0  0
  6 21  1  0  0  0  0
  7 22  1  0  0  0  0
  7 23  1  0  0  0  0
  8 24  1  0  0  0  0
 10 25  1  0  0  0  0
 10 26  1  0  0  0  0
 11 27  1  0  0  0  0
 11 28  1  0  0  0  0
 12 29  1  0  0  0  0
M  END
> <FRED Chemgauss4 score>
-8.909971

$$$$
C70646602	P108984036
  -OEChem-05122015313D

 23 23  0     0  0  0  0  0  0999 V2000
  127.3423  106.8992  107.5182 C   0  0  0  0  0  0  0  0  0  0  0  0
  125.7928  105.5018  107.4583 C   0  0  0  0  0  0  0  0  0  0  0  0
  121.1285  104.4528  106.0830 C   0  0  0  0  0  0  0  0  0  0  0  0
  124.7384  104.5038  107.0468 C   0  0  0  0  0  0  0  0  0  0  0  0
  120.2811  103.2350  105.8165 C   0  0  0  0  0  0  0  0  0  0  0  0
  123.3263  105.0833  107.0761 C   0  0  0  0  0  0  0  0  0  0  0  0
  126.6119  106.1366  106.6524 N   0  0  0  0  0  0  0  0  0  0  0  0
  126.0331  105.8768  108.7434 N   0  0  0  0  0  0  0  0  0  0  0  0
  127.0266  106.7762  108.8092 N   0  0  0  0  0  0  0  0  0  0  0  0
  118.8590  103.6066  105.8504 N   0  0  0  0  0  0  0  0  0  0  0  0
  122.3209  104.1133  106.7059 N   0  0  0  0  0  0  0  0  0  0  0  0
  120.7888  105.5927  105.7769 O   0  0  0  0  0  0  0  0  0  0  0  0
  128.1280  107.5621  107.1804 H   0  0  0  0  0  0  0  0  0  0  0  0
  124.7911  103.6425  107.7247 H   0  0  0  0  0  0  0  0  0  0  0  0
  124.9662  104.1147  106.0461 H   0  0  0  0  0  0  0  0  0  0  0  0
  120.5231  102.8262  104.8310 H   0  0  0  0  0  0  0  0  0  0  0  0
  120.4722  102.4758  106.5805 H   0  0  0  0  0  0  0  0  0  0  0  0
  123.0823  105.4200  108.0887 H   0  0  0  0  0  0  0  0  0  0  0  0
  123.2260  105.9378  106.3988 H   0  0  0  0  0  0  0  0  0  0  0  0
  127.3539  107.1783  109.6833 H   0  0  0  0  0  0  0  0  0  0  0  0
  118.2016  102.8897  106.0465 H   0  0  0  0  0  0  0  0  0  0  0  0
  118.6071  104.4927  105.4811 H   0  0  0  0  0  0  0  0  0  0  0  0
  122.4960  103.1340  106.9120 H   0  0  0  0  0  0  0  0  0  0  0  0
  1  7  2  0  0  0  0
  1  9  1  0  0  0  0
  2  4  1  0  0  0  0
  2  7  1  0  0  0  0
  2  8  2  0  0  0  0
  3  5  1  0  0  0  0
  3 11  1  0  0  0  0
  3 12  2  0  0  0  0
  4  6  1  0  0  0  0
  5 10  1  0  0  0  0
  6 11  1  0  0  0  0
  8  9  1  0  0  0  0
  1 13  1  0  0  0  0
  4 14  1  0  0  0  0
  4 15  1  0  0  0  0
  5 16  1  0  0  0  0
  5 17  1  0  0  0  0
  6 18  1  0  0  0  0
  6 19  1  0  0  0  0
  9 20  1  0  0  0  0
 10 21  1  0  0  0  0
 10 22  1  0  0  0  0
 11 23  1  0  0  0  0
M  END
> <FRED Chemgauss4 score>
-8.907587

$$$$
C50242200	P137988432
  -OEChem-05122015313D

 32 33  0     1  0  0  0  0  0999 V2000
  122.9822  106.8650  105.5159 C   0  0  0  0  0  0  0  0  0  0  0  0
  124.0646  106.3511  106.2870 C   0  0  0  0  0  0  0  0  0  0  0  0
  121.9203  105.9889  105.4664 C   0  0  0  0  0  0  0  0  0  0  0  0
  123.7886  105.1017  106.7977 C   0  0  0  0  0  0  0  0  0  0  0  0
  120.6664  106.1396  104.8022 C   0  0  0  0  0  0  0  0  0  0  0  0
  124.0074  108.2823  109.9985 C   0  0  0  0  0  0  0  0  0  0  0  0
  124.8439  107.3227  109.1637 C   0  0  0  0  0  0  0  0  0  0  0  0
  124.2348  109.2596  107.8361 C   0  0  0  0  0  0  0  0  0  0  0  0
  123.2123  109.0573  108.9558 C   0  0  1  0  0  0  0  0  0  0  0  0
  118.5521  105.0792  104.3508 C   0  0  0  0  0  0  0  0  0  0  0  0
  125.1854  108.1102  107.9466 N   0  0  2  0  0  0  0  0  0  0  0  0
  122.0731  108.2776  108.4738 N   0  0  0  0  0  0  0  0  0  0  0  0
  120.3153  107.1368  104.1280 O   0  0  0  0  0  0  0  0  0  0  0  0
  126.6118  106.2841  106.8166 O   0  0  0  0  0  0  0  0  0  0  0  0
  125.7072  108.1794  105.4247 O   0  0  0  0  0  0  0  0  0  0  0  0
  119.8415  105.0483  104.9721 O   0  0  0  0  0  0  0  0  0  0  0  0
  122.2301  104.5534  106.3472 S   0  0  0  0  0  0  0  0  0  0  0  0
  125.5666  107.2507  106.5317 S   0  0  0  0  0  0  0  0  0  0  0  0
  124.9572  104.0576  107.8797 Br  0  0  0  0  0  0  0  0  0  0  0  0
  122.9800  107.8289  105.0217 H   0  0  0  0  0  0  0  0  0  0  0  0
  123.3377  107.7127  110.6648 H   0  0  0  0  0  0  0  0  0  0  0  0
  124.6279  108.9327  110.6329 H   0  0  0  0  0  0  0  0  0  0  0  0
  125.7567  107.0437  109.7014 H   0  0  0  0  0  0  0  0  0  0  0  0
  124.2838  106.4226  108.8985 H   0  0  0  0  0  0  0  0  0  0  0  0
  123.7746  109.2155  106.8387 H   0  0  0  0  0  0  0  0  0  0  0  0
  124.7424  110.2282  107.9328 H   0  0  0  0  0  0  0  0  0  0  0  0
  122.8779  109.9940  109.3438 H   0  0  0  0  0  0  0  0  0  0  0  0
  118.0174  104.1525  104.5730 H   0  0  0  0  0  0  0  0  0  0  0  0
  118.6699  105.1944  103.2703 H   0  0  0  0  0  0  0  0  0  0  0  0
  117.9873  105.9268  104.7461 H   0  0  0  0  0  0  0  0  0  0  0  0
  121.7272  108.4590  107.5528 H   0  0  0  0  0  0  0  0  0  0  0  0
  121.5496  107.7400  109.1357 H   0  0  0  0  0  0  0  0  0  0  0  0
  1  2  1  0  0  0  0
  1  3  2  0  0  0  0
  2  4  2  0  0  0  0
  2 18  1  0  0  0  0
  3  5  1  0  0  0  0
  3 17  1  0  0  0  0
  4 17  1  0  0  0  0
  4 19  1  0  0  0  0
  5 13  2  0  0  0  0
  5 16  1  0  0  0  0
  6  7  1  0  0  0  0
  6  9  1  0  0  0  0
  7 11  1  0  0  0  0
  8  9  1  0  0  0  0
  8 11  1  0  0  0  0
  9 12  1  0  0  0  0
 10 16  1  0  0  0  0
 11 18  1  0  0  0  0
 14 18  2  0  0  0  0
 15 18  2  0  0  0  0
  1 20  1  0  0  0  0
  6 21  1  0  0  0  0
  6 22  1  0  0  0  0
  7 23  1  0  0  0  0
  7 24  1  0  0  0  0
  8 25  1  0  0  0  0
  8 26  1  0  0  0  0
  9 27  1  0  0  0  0
 10 28  1  0  0  0  0
 10 29  1  0  0  0  0
 10 30  1  0  0  0  0
 12 31  1  0  0  0  0
 12 32  1  0  0  0  0
M  END
> <FRED Chemgauss4 score>
-8.904614

$$$$
C87446092	P136813147
  -OEChem-05122015313D

 26 26  0     0  0  0  0  0  0999 V2000
  124.3457  109.0427  108.7005 C   0  0  0  0  0  0  0  0  0  0  0  0
  124.7429  108.1214  106.8321 C   0  0  0  0  0  0  0  0  0  0  0  0
  123.9262  109.2561  110.1096 C   0  0  0  0  0  0  0  0  0  0  0  0
  124.8468  107.1256  105.7681 C   0  0  0  0  0  0  0  0  0  0  0  0
  123.2227  111.6839  112.2277 C   0  0  0  0  0  0  0  0  0  0  0  0
  122.4272  110.5311  111.6208 C   0  0  0  0  0  0  0  0  0  0  0  0
  122.7231  112.0630  113.6162 C   0  0  0  0  0  0  0  0  0  0  0  0
  125.1143  109.4100  106.7003 N   0  5  0  0  0  0  0  0  0  0  0  0
  124.2648  107.8698  108.0581 N   0  0  0  0  0  0  0  0  0  0  0  0
  124.8581  110.0061  107.9098 N   0  0  0  0  0  0  0  0  0  0  0  0
  122.9251  110.1949  110.3081 N   0  0  0  0  0  0  0  0  0  0  0  0
  122.8931  110.9030  114.5251 N   0  3  0  0  0  0  0  0  0  0  0  0
  124.4837  108.6250  111.0038 O   0  0  0  0  0  0  0  0  0  0  0  0
  125.8239  106.6038  105.7857 H   0  0  0  0  0  0  0  0  0  0  0  0
  124.0628  106.3439  105.8343 H   0  0  0  0  0  0  0  0  0  0  0  0
  124.7347  107.5660  104.7562 H   0  0  0  0  0  0  0  0  0  0  0  0
  123.1785  112.5572  111.5646 H   0  0  0  0  0  0  0  0  0  0  0  0
  124.2764  111.3845  112.2902 H   0  0  0  0  0  0  0  0  0  0  0  0
  122.5126  109.6491  112.2638 H   0  0  0  0  0  0  0  0  0  0  0  0
  121.3651  110.7900  111.5555 H   0  0  0  0  0  0  0  0  0  0  0  0
  123.2922  112.8890  114.0522 H   0  0  0  0  0  0  0  0  0  0  0  0
  121.6573  112.3101  113.6143 H   0  0  0  0  0  0  0  0  0  0  0  0
  122.5556  110.7229  109.5233 H   0  0  0  0  0  0  0  0  0  0  0  0
  122.7144  111.1705  115.4989 H   0  0  0  0  0  0  0  0  0  0  0  0
  123.8474  110.5309  114.4697 H   0  0  0  0  0  0  0  0  0  0  0  0
  122.2443  110.1471  114.2807 H   0  0  0  0  0  0  0  0  0  0  0  0
  1  3  1  0  0  0  0
  1  9  1  0  0  0  0
  1 10  2  0  0  0  0
  2  4  1  0  0  0  0
  2  8  1  0  0  0  0
  2  9  2  0  0  0  0
  3 11  1  0  0  0  0
  3 13  2  0  0  0  0
  5  6  1  0  0  0  0
  5  7  1  0  0  0  0
  6 11  1  0  0  0  0
  7 12  1  0  0  0  0
  8 10  1  0  0  0  0
  4 14  1  0  0  0  0
  4 15  1  0  0  0  0
  4 16  1  0  0  0  0
  5 17  1  0  0  0  0
  5 18  1  0  0  0  0
  6 19  1  0  0  0  0
  6 20  1  0  0  0  0
  7 21  1  0  0  0  0
  7 22  1  0  0  0  0
 11 23  1  0  0  0  0
 12 24  1  0  0  0  0
 12 25  1  0  0  0  0
 12 26  1  0  0  0  0
M  CHG  2   8  -1  12   1
M  END
> <FRED Chemgauss4 score>
-8.892519

$$$$
C42040419	P63626314
  -OEChem-05122015313D

 18 18  0     1  0  0  0  0  0999 V2000
  125.9943  107.0060  108.0693 C   0  0  0  0  0  0  0  0  0  0  0  0
  125.4986  108.3382  106.4780 C   0  0  0  0  0  0  0  0  0  0  0  0
  125.3028  104.6152  108.3678 C   0  0  0  0  0  0  0  0  0  0  0  0
  126.0850  105.7902  108.9345 C   0  0  1  0  0  0  0  0  0  0  0  0
  125.2788  107.0531  106.9705 N   0  0  0  0  0  0  0  0  0  0  0  0
  126.6781  108.1527  108.3426 N   0  0  0  0  0  0  0  0  0  0  0  0
  126.3656  109.0019  107.3327 N   0  0  0  0  0  0  0  0  0  0  0  0
  127.4892  105.5129  109.0525 N   0  0  0  0  0  0  0  0  0  0  0  0
  125.0091  108.8062  105.4575 O   0  0  0  0  0  0  0  0  0  0  0  0
  125.4108  103.4801  109.2190 O   0  0  0  0  0  0  0  0  0  0  0  0
  124.2419  104.8689  108.2710 H   0  0  0  0  0  0  0  0  0  0  0  0
  125.6913  104.3366  107.3826 H   0  0  0  0  0  0  0  0  0  0  0  0
  125.7141  106.0484  109.9313 H   0  0  0  0  0  0  0  0  0  0  0  0
  127.3180  108.3789  109.0909 H   0  0  0  0  0  0  0  0  0  0  0  0
  126.7039  109.9484  107.2227 H   0  0  0  0  0  0  0  0  0  0  0  0
  127.7878  104.5952  109.3453 H   0  0  0  0  0  0  0  0  0  0  0  0
  128.1456  106.2787  109.0424 H   0  0  0  0  0  0  0  0  0  0  0  0
  124.8940  102.7710  108.8045 H   0  0  0  0  0  0  0  0  0  0  0  0
  1  4  1  0  0  0  0
  1  5  2  0  0  0  0
  1  6  1  0  0  0  0
  2  5  1  0  0  0  0
  2  7  1  0  0  0  0
  2  9  2  0  0  0  0
  3  4  1  0  0  0  0
  3 10  1  0  0  0  0
  4  8  1  0  0  0  0
  6  7  1  0  0  0  0
  3 11  1  0  0  0  0
  3 12  1  0  0  0  0
  4 13  1  0  0  0  0
  6 14  1  0  0  0  0
  7 15  1  0  0  0  0
  8 16  1  0  0  0  0
  8 17  1  0  0  0  0
 10 18  1  0  0  0  0
M  END
> <FRED Chemgauss4 score>
-8.890254

$$$$
C41058632	P62326118
  -OEChem-05122015313D

 31 31  0     1  0  0  0  0  0999 V2000
  124.2399  108.9562  109.2871 C   0  0  0  0  0  0  0  0  0  0  0  0
  125.2077  108.0393  107.6809 C   0  0  0  0  0  0  0  0  0  0  0  0
  123.0809  110.5644  112.6000 C   0  0  0  0  0  0  0  0  0  0  0  0
  125.0047  104.9774  107.8313 C   0  0  0  0  0  0  0  0  0  0  0  0
  123.6194  105.9967  106.0239 C   0  0  0  0  0  0  0  0  0  0  0  0
  123.4900  109.1124  110.5389 C   0  0  0  0  0  0  0  0  0  0  0  0
  123.8870  110.3831  111.3236 C   0  0  0  0  0  0  0  0  0  0  0  0
  125.8236  107.0960  106.6631 C   0  0  1  0  0  0  0  0  0  0  0  0
  125.0554  105.7583  106.5119 C   0  0  0  0  0  0  0  0  0  0  0  0
  124.5547  107.7294  108.7768 N   0  0  0  0  0  0  0  0  0  0  0  0
  124.6570  110.0058  108.5758 N   0  0  0  0  0  0  0  0  0  0  0  0
  125.2728  109.3919  107.5540 N   0  0  0  0  0  0  0  0  0  0  0  0
  125.9161  107.8070  105.4059 N   0  0  0  0  0  0  0  0  0  0  0  0
  122.0091  110.6139  112.3832 H   0  0  0  0  0  0  0  0  0  0  0  0
  123.2540  109.7358  113.2941 H   0  0  0  0  0  0  0  0  0  0  0  0
  123.3691  111.4935  113.1016 H   0  0  0  0  0  0  0  0  0  0  0  0
  124.5158  105.5615  108.6185 H   0  0  0  0  0  0  0  0  0  0  0  0
  124.4456  104.0434  107.7081 H   0  0  0  0  0  0  0  0  0  0  0  0
  126.0072  104.7088  108.1782 H   0  0  0  0  0  0  0  0  0  0  0  0
  123.0606  106.6233  106.7274 H   0  0  0  0  0  0  0  0  0  0  0  0
  123.0829  105.0476  105.9176 H   0  0  0  0  0  0  0  0  0  0  0  0
  123.6068  106.4876  105.0457 H   0  0  0  0  0  0  0  0  0  0  0  0
  122.3932  109.1491  110.3590 H   0  0  0  0  0  0  0  0  0  0  0  0
  123.6263  108.2376  111.2117 H   0  0  0  0  0  0  0  0  0  0  0  0
  124.9534  110.3375  111.5760 H   0  0  0  0  0  0  0  0  0  0  0  0
  123.7502  111.2640  110.6846 H   0  0  0  0  0  0  0  0  0  0  0  0
  126.8608  106.8731  106.9456 H   0  0  0  0  0  0  0  0  0  0  0  0
  125.5531  105.1275  105.7637 H   0  0  0  0  0  0  0  0  0  0  0  0
  125.7031  109.9515  106.8271 H   0  0  0  0  0  0  0  0  0  0  0  0
  126.0041  107.2780  104.5581 H   0  0  0  0  0  0  0  0  0  0  0  0
  126.0946  108.7941  105.4223 H   0  0  0  0  0  0  0  0  0  0  0  0
  1  6  1  0  0  0  0
  1 10  1  0  0  0  0
  1 11  2  0  0  0  0
  2  8  1  0  0  0  0
  2 10  2  0  0  0  0
  2 12  1  0  0  0  0
  3  7  1  0  0  0  0
  4  9  1  0  0  0  0
  5  9  1  0  0  0  0
  6  7  1  0  0  0  0
  8  9  1  0  0  0  0
  8 13  1  0  0  0  0
 11 12  1  0  0  0  0
  3 14  1  0  0  0  0
  3 15  1  0  0  0  0
  3 16  1  0  0  0  0
  4 17  1  0  0  0  0
  4 18  1  0  0  0  0
  4 19  1  0  0  0  0
  5 20  1  0  0  0  0
  5 21  1  0  0  0  0
  5 22  1  0  0  0  0
  6 23  1  0  0  0  0
  6 24  1  0  0  0  0
  7 25  1  0  0  0  0
  7 26  1  0  0  0  0
  8 27  1  0  0  0  0
  9 28  1  0  0  0  0
 12 29  1  0  0  0  0
 13 30  1  0  0  0  0
 13 31  1  0  0  0  0
M  END
> <FRED Chemgauss4 score>
-8.886225

$$$$
C61707657	P94524272
  -OEChem-05122015313D

 29 29  0     1  0  0  0  0  0999 V2000
  124.1814  109.2009  109.3551 C   0  0  0  0  0  0  0  0  0  0  0  0
  124.3280  107.7720  108.9833 C   0  0  0  0  0  0  0  0  0  0  0  0
  123.4394  110.4309  112.7507 C   0  0  0  0  0  0  0  0  0  0  0  0
  123.5552  110.7383  111.2671 C   0  0  0  0  0  0  0  0  0  0  0  0
  123.4803  108.3544  111.5763 C   0  0  0  0  0  0  0  0  0  0  0  0
  122.8202  109.0358  112.7670 C   0  0  1  0  0  0  0  0  0  0  0  0
  125.8325  105.5808  107.4959 C   0  0  0  0  0  0  0  0  0  0  0  0
  125.9740  105.9252  108.9690 C   0  0  0  0  0  0  0  0  0  0  0  0
  123.7692  109.4352  110.6472 N   0  0  0  0  0  0  0  0  0  0  0  0
  126.6688  106.4033  106.6636 N   0  0  0  0  0  0  0  0  0  0  0  0
  125.5918  107.2916  109.2448 N   0  0  0  0  0  0  0  0  0  0  0  0
  124.4446  110.0221  108.4882 O   0  0  0  0  0  0  0  0  0  0  0  0
  123.3846  107.1602  108.5062 O   0  0  0  0  0  0  0  0  0  0  0  0
  123.1130  108.3542  113.9697 O   0  0  0  0  0  0  0  0  0  0  0  0
  124.4108  110.4846  113.2514 H   0  0  0  0  0  0  0  0  0  0  0  0
  122.7537  111.1446  113.2237 H   0  0  0  0  0  0  0  0  0  0  0  0
  122.6666  111.2217  110.8537 H   0  0  0  0  0  0  0  0  0  0  0  0
  124.4308  111.3571  111.0470 H   0  0  0  0  0  0  0  0  0  0  0  0
  124.4018  107.8186  111.8313 H   0  0  0  0  0  0  0  0  0  0  0  0
  122.7859  107.6695  111.0740 H   0  0  0  0  0  0  0  0  0  0  0  0
  121.7156  109.0743  112.6579 H   0  0  0  0  0  0  0  0  0  0  0  0
  124.8012  105.7103  107.1527 H   0  0  0  0  0  0  0  0  0  0  0  0
  126.1296  104.5418  107.3226 H   0  0  0  0  0  0  0  0  0  0  0  0
  125.3256  105.2823  109.5723 H   0  0  0  0  0  0  0  0  0  0  0  0
  127.0059  105.7966  109.3114 H   0  0  0  0  0  0  0  0  0  0  0  0
  126.7702  107.3813  106.8832 H   0  0  0  0  0  0  0  0  0  0  0  0
  126.9731  106.0490  105.7708 H   0  0  0  0  0  0  0  0  0  0  0  0
  126.2810  107.9208  109.6463 H   0  0  0  0  0  0  0  0  0  0  0  0
  122.7425  108.8890  114.6896 H   0  0  0  0  0  0  0  0  0  0  0  0
  1  2  1  0  0  0  0
  1  9  1  0  0  0  0
  1 12  2  0  0  0  0
  2 11  1  0  0  0  0
  2 13  2  0  0  0  0
  3  4  1  0  0  0  0
  3  6  1  0  0  0  0
  4  9  1  0  0  0  0
  5  6  1  0  0  0  0
  5  9  1  0  0  0  0
  6 14  1  0  0  0  0
  7  8  1  0  0  0  0
  7 10  1  0  0  0  0
  8 11  1  0  0  0  0
  3 15  1  0  0  0  0
  3 16  1  0  0  0  0
  4 17  1  0  0  0  0
  4 18  1  0  0  0  0
  5 19  1  0  0  0  0
  5 20  1  0  0  0  0
  6 21  1  0  0  0  0
  7 22  1  0  0  0  0
  7 23  1  0  0  0  0
  8 24  1  0  0  0  0
  8 25  1  0  0  0  0
 10 26  1  0  0  0  0
 10 27  1  0  0  0  0
 11 28  1  0  0  0  0
 14 29  1  0  0  0  0
M  END
> <FRED Chemgauss4 score>
-8.885702

$$$$
C36872229	P120860510
  -OEChem-05122015313D

 24 25  0     1  0  0  0  0  0999 V2000
  118.2840  103.7864  106.3251 C   0  0  0  0  0  0  0  0  0  0  0  0
  119.6823  103.5880  106.4184 C   0  0  0  0  0  0  0  0  0  0  0  0
  122.3371  106.2117  105.9351 C   0  0  0  0  0  0  0  0  0  0  0  0
  118.0955  105.1467  106.2490 C   0  0  0  0  0  0  0  0  0  0  0  0
  121.6222  105.1611  106.4601 C   0  0  0  0  0  0  0  0  0  0  0  0
  120.2485  104.8413  106.3924 C   0  0  0  0  0  0  0  0  0  0  0  0
  123.7609  105.0165  106.9718 C   0  0  0  0  0  0  0  0  0  0  0  0
  125.3233  103.0300  107.0798 C   0  0  0  0  0  0  0  0  0  0  0  0
  125.0164  104.4374  107.5874 C   0  0  1  0  0  0  0  0  0  0  0  0
  123.6678  106.1158  106.2570 N   0  0  0  0  0  0  0  0  0  0  0  0
  122.5478  104.4037  107.1210 N   0  0  0  0  0  0  0  0  0  0  0  0
  126.1555  105.3009  107.3757 N   0  0  0  0  0  0  0  0  0  0  0  0
  119.2880  105.7970  106.2893 O   0  0  0  0  0  0  0  0  0  0  0  0
  117.5108  103.0319  106.3147 H   0  0  0  0  0  0  0  0  0  0  0  0
  120.2042  102.6440  106.4951 H   0  0  0  0  0  0  0  0  0  0  0  0
  121.9660  107.0358  105.3421 H   0  0  0  0  0  0  0  0  0  0  0  0
  117.2225  105.7776  106.1666 H   0  0  0  0  0  0  0  0  0  0  0  0
  125.4604  103.0237  105.9929 H   0  0  0  0  0  0  0  0  0  0  0  0
  126.2414  102.6476  107.5398 H   0  0  0  0  0  0  0  0  0  0  0  0
  124.5226  102.3226  107.3235 H   0  0  0  0  0  0  0  0  0  0  0  0
  124.8901  104.3806  108.6756 H   0  0  0  0  0  0  0  0  0  0  0  0
  122.3698  103.5482  107.6313 H   0  0  0  0  0  0  0  0  0  0  0  0
  127.0781  104.9083  107.4318 H   0  0  0  0  0  0  0  0  0  0  0  0
  126.0167  106.2956  107.3809 H   0  0  0  0  0  0  0  0  0  0  0  0
  1  2  1  0  0  0  0
  1  4  2  0  0  0  0
  2  6  2  0  0  0  0
  3  5  2  0  0  0  0
  3 10  1  0  0  0  0
  4 13  1  0  0  0  0
  5  6  1  0  0  0  0
  5 11  1  0  0  0  0
  6 13  1  0  0  0  0
  7  9  1  0  0  0  0
  7 10  2  0  0  0  0
  7 11  1  0  0  0  0
  8  9  1  0  0  0  0
  9 12  1  0  0  0  0
  1 14  1  0  0  0  0
  2 15  1  0  0  0  0
  3 16  1  0  0  0  0
  4 17  1  0  0  0  0
  8 18  1  0  0  0  0
  8 19  1  0  0  0  0
  8 20  1  0  0  0  0
  9 21  1  0  0  0  0
 11 22  1  0  0  0  0
 12 23  1  0  0  0  0
 12 24  1  0  0  0  0
M  END
> <FRED Chemgauss4 score>
-8.883236

$$$$
C86434335	P135332703
  -OEChem-05122015313D

 28 27  0     0  0  0  0  0  0999 V2000
  126.1498  107.7522  107.4695 C   0  0  0  0  0  0  0  0  0  0  0  0
  123.5053  105.7410  107.5294 C   0  0  0  0  0  0  0  0  0  0  0  0
  125.6172  104.6092  106.9554 C   0  0  0  0  0  0  0  0  0  0  0  0
  125.7318  106.6178  108.3764 C   0  0  0  0  0  0  0  0  0  0  0  0
  122.8184  104.6716  106.7064 C   0  0  0  0  0  0  0  0  0  0  0  0
  119.2325  104.1400  106.0721 C   0  0  0  0  0  0  0  0  0  0  0  0
  120.7254  103.8785  105.9902 C   0  0  0  0  0  0  0  0  0  0  0  0
  126.9313  108.6824  108.1205 N   0  0  0  0  0  0  0  0  0  0  0  0
  118.5078  103.1423  105.2523 N   0  0  0  0  0  0  0  0  0  0  0  0
  124.8950  105.6773  107.6355 N   0  0  0  0  0  0  0  0  0  0  0  0
  125.8654  107.8163  106.2766 O   0  0  0  0  0  0  0  0  0  0  0  0
  122.8130  106.6086  108.0705 O   0  0  0  0  0  0  0  0  0  0  0  0
  121.4205  104.8621  106.7514 O   0  0  0  0  0  0  0  0  0  0  0  0
  125.8941  104.9262  105.9465 H   0  0  0  0  0  0  0  0  0  0  0  0
  124.9913  103.7155  106.8841 H   0  0  0  0  0  0  0  0  0  0  0  0
  126.5267  104.3570  107.5071 H   0  0  0  0  0  0  0  0  0  0  0  0
  125.1525  106.9901  109.2258 H   0  0  0  0  0  0  0  0  0  0  0  0
  126.6196  106.0888  108.7333 H   0  0  0  0  0  0  0  0  0  0  0  0
  123.1691  104.6835  105.6711 H   0  0  0  0  0  0  0  0  0  0  0  0
  123.0553  103.6851  107.1184 H   0  0  0  0  0  0  0  0  0  0  0  0
  118.8723  104.0637  107.1029 H   0  0  0  0  0  0  0  0  0  0  0  0
  118.9984  105.1357  105.6835 H   0  0  0  0  0  0  0  0  0  0  0  0
  121.0627  103.9544  104.9518 H   0  0  0  0  0  0  0  0  0  0  0  0
  120.9823  102.8871  106.3774 H   0  0  0  0  0  0  0  0  0  0  0  0
  127.1699  108.5690  109.1000 H   0  0  0  0  0  0  0  0  0  0  0  0
  127.2968  109.5069  107.6547 H   0  0  0  0  0  0  0  0  0  0  0  0
  117.6168  103.4013  104.9144 H   0  0  0  0  0  0  0  0  0  0  0  0
  118.8555  102.2179  105.2597 H   0  0  0  0  0  0  0  0  0  0  0  0
  1  4  1  0  0  0  0
  1  8  1  0  0  0  0
  1 11  2  0  0  0  0
  2  5  1  0  0  0  0
  2 10  1  0  0  0  0
  2 12  2  0  0  0  0
  3 10  1  0  0  0  0
  4 10  1  0  0  0  0
  5 13  1  0  0  0  0
  6  7  1  0  0  0  0
  6  9  1  0  0  0  0
  7 13  1  0  0  0  0
  3 14  1  0  0  0  0
  3 15  1  0  0  0  0
  3 16  1  0  0  0  0
  4 17  1  0  0  0  0
  4 18  1  0  0  0  0
  5 19  1  0  0  0  0
  5 20  1  0  0  0  0
  6 21  1  0  0  0  0
  6 22  1  0  0  0  0
  7 23  1  0  0  0  0
  7 24  1  0  0  0  0
  8 25  1  0  0  0  0
  8 26  1  0  0  0  0
  9 27  1  0  0  0  0
  9 28  1  0  0  0  0
M  END
> <FRED Chemgauss4 score>
-8.873646

$$$$
C54009804	P81226696
  -OEChem-05122015313D

 14 14  0     0  0  0  0  0  0999 V2000
  125.2272  105.5025  108.0090 C   0  0  0  0  0  0  0  0  0  0  0  0
  126.0228  106.1085  108.8959 C   0  0  0  0  0  0  0  0  0  0  0  0
  126.2750  108.0579  107.5552 C   0  0  0  0  0  0  0  0  0  0  0  0
  125.5015  107.6475  106.5269 C   0  0  0  0  0  0  0  0  0  0  0  0
  124.9120  106.2462  106.7481 C   0  0  0  0  0  0  0  0  0  0  0  0
  126.5424  107.3508  108.6940 N   0  0  0  0  0  0  0  0  0  0  0  0
  124.1466  105.6758  105.8820 N   0  3  0  0  0  0  0  0  0  0  0  0
  125.2056  108.2326  105.4488 O   0  5  0  0  0  0  0  0  0  0  0  0
  124.8211  104.5127  108.1788 H   0  0  0  0  0  0  0  0  0  0  0  0
  126.3080  105.6488  109.8337 H   0  0  0  0  0  0  0  0  0  0  0  0
  126.7654  109.0265  107.5513 H   0  0  0  0  0  0  0  0  0  0  0  0
  127.1395  107.7602  109.4009 H   0  0  0  0  0  0  0  0  0  0  0  0
  123.7565  104.7378  106.0386 H   0  0  0  0  0  0  0  0  0  0  0  0
  123.8935  106.1344  104.9976 H   0  0  0  0  0  0  0  0  0  0  0  0
  1  2  2  0  0  0  0
  1  5  1  0  0  0  0
  2  6  1  0  0  0  0
  3  4  2  0  0  0  0
  3  6  1  0  0  0  0
  4  5  1  0  0  0  0
  4  8  1  0  0  0  0
  5  7  2  0  0  0  0
  1  9  1  0  0  0  0
  2 10  1  0  0  0  0
  3 11  1  0  0  0  0
  6 12  1  0  0  0  0
  7 13  1  0  0  0  0
  7 14  1  0  0  0  0
M  CHG  2   7   1   8  -1
M  END
> <FRED Chemgauss4 score>
-8.870695

$$$$
C41096691	P62370126
  -OEChem-05122015313D

 33 34  0     1  0  0  0  0  0999 V2000
  120.2943  104.2788  106.1083 C   0  0  0  0  0  0  0  0  0  0  0  0
  119.0775  103.6210  106.2881 C   0  0  0  0  0  0  0  0  0  0  0  0
  120.3131  105.6039  105.6729 C   0  0  0  0  0  0  0  0  0  0  0  0
  117.8795  104.2882  106.0325 C   0  0  0  0  0  0  0  0  0  0  0  0
  119.1151  106.2711  105.4173 C   0  0  0  0  0  0  0  0  0  0  0  0
  117.8983  105.6133  105.5971 C   0  0  0  0  0  0  0  0  0  0  0  0
  124.3604  106.9501  108.6603 C   0  0  0  0  0  0  0  0  0  0  0  0
  122.8371  106.9077  108.7241 C   0  0  0  0  0  0  0  0  0  0  0  0
  124.8496  106.7917  107.2224 C   0  0  0  0  0  0  0  0  0  0  0  0
  122.2890  105.6490  108.0661 C   0  0  0  0  0  0  0  0  0  0  0  0
  124.2735  105.5533  106.5280 C   0  0  1  0  0  0  0  0  0  0  0  0
  124.8718  104.2440  107.0390 C   0  0  0  0  0  0  0  0  0  0  0  0
  122.7799  105.5239  106.6624 N   0  0  2  0  0  0  0  0  0  0  0  0
  122.3970  106.0053  104.1664 O   0  0  0  0  0  0  0  0  0  0  0  0
  121.7734  107.7515  105.8721 O   0  0  0  0  0  0  0  0  0  0  0  0
  121.8890  106.3694  105.4686 S   0  0  0  0  0  0  0  0  0  0  0  0
  116.4118  103.4050  106.2790 Cl  0  0  0  0  0  0  0  0  0  0  0  0
  119.1628  107.9220  104.8754 Cl  0  0  0  0  0  0  0  0  0  0  0  0
  116.3980  106.4361  105.2812 Cl  0  0  0  0  0  0  0  0  0  0  0  0
  121.2200  103.7467  106.3112 H   0  0  0  0  0  0  0  0  0  0  0  0
  119.0824  102.5883  106.6280 H   0  0  0  0  0  0  0  0  0  0  0  0
  124.7218  107.9029  109.0697 H   0  0  0  0  0  0  0  0  0  0  0  0
  124.7809  106.1533  109.2863 H   0  0  0  0  0  0  0  0  0  0  0  0
  122.5169  106.9447  109.7743 H   0  0  0  0  0  0  0  0  0  0  0  0
  122.4222  107.7955  108.2311 H   0  0  0  0  0  0  0  0  0  0  0  0
  124.5869  107.6992  106.6553 H   0  0  0  0  0  0  0  0  0  0  0  0
  125.9518  106.7403  107.2283 H   0  0  0  0  0  0  0  0  0  0  0  0
  122.6209  104.7779  108.6497 H   0  0  0  0  0  0  0  0  0  0  0  0
  121.1885  105.6566  108.0727 H   0  0  0  0  0  0  0  0  0  0  0  0
  124.4951  105.6192  105.4257 H   0  0  0  0  0  0  0  0  0  0  0  0
  124.6785  104.1418  108.1055 H   0  0  0  0  0  0  0  0  0  0  0  0
  125.9470  104.2390  106.8690 H   0  0  0  0  0  0  0  0  0  0  0  0
  124.4230  103.4034  106.5126 H   0  0  0  0  0  0  0  0  0  0  0  0
  1  2  2  0  0  0  0
  1  3  1  0  0  0  0
  2  4  1  0  0  0  0
  3  5  2  0  0  0  0
  3 16  1  0  0  0  0
  4  6  2  0  0  0  0
  4 17  1  0  0  0  0
  5  6  1  0  0  0  0
  5 18  1  0  0  0  0
  6 19  1  0  0  0  0
  7  8  1  0  0  0  0
  7  9  1  0  0  0  0
  8 10  1  0  0  0  0
  9 11  1  0  0  0  0
 10 13  1  0  0  0  0
 11 12  1  0  0  0  0
 11 13  1  0  0  0  0
 13 16  1  0  0  0  0
 14 16  2  0  0  0  0
 15 16  2  0  0  0  0
  1 20  1  0  0  0  0
  2 21  1  0  0  0  0
  7 22  1  0  0  0  0
  7 23  1  0  0  0  0
  8 24  1  0  0  0  0
  8 25  1  0  0  0  0
  9 26  1  0  0  0  0
  9 27  1  0  0  0  0
 10 28  1  0  0  0  0
 10 29  1  0  0  0  0
 11 30  1  0  0  0  0
 12 31  1  0  0  0  0
 12 32  1  0  0  0  0
 12 33  1  0  0  0  0
M  END
> <FRED Chemgauss4 score>
-8.870119

$$$$
C70841683	P109362130
  -OEChem-05122015313D

 27 28  0     0  0  0  0  0  0999 V2000
  125.6311  105.4303  107.6270 C   0  0  0  0  0  0  0  0  0  0  0  0
  125.9318  107.6739  107.8456 C   0  0  0  0  0  0  0  0  0  0  0  0
  126.5996  105.6109  108.7746 C   0  0  0  0  0  0  0  0  0  0  0  0
  120.6221  107.2902  105.8561 C   0  0  0  0  0  0  0  0  0  0  0  0
  121.6938  105.9055  104.7199 C   0  0  0  0  0  0  0  0  0  0  0  0
  120.2142  106.3399  104.7119 C   0  0  0  0  0  0  0  0  0  0  0  0
  124.3808  106.9016  106.0364 C   0  0  0  0  0  0  0  0  0  0  0  0
  122.9339  106.9830  106.4931 C   0  0  0  0  0  0  0  0  0  0  0  0
  126.7108  107.0424  108.8183 N   0  0  0  0  0  0  0  0  0  0  0  0
  125.2840  106.6752  107.1326 N   0  0  0  0  0  0  0  0  0  0  0  0
  122.0194  107.1921  105.3763 N   0  0  0  0  0  0  0  0  0  0  0  0
  125.2418  104.3401  107.2299 O   0  0  0  0  0  0  0  0  0  0  0  0
  125.8507  108.8831  107.6738 O   0  0  0  0  0  0  0  0  0  0  0  0
  119.7440  106.9625  103.5010 O   0  0  0  0  0  0  0  0  0  0  0  0
  126.1801  105.2451  109.7130 H   0  0  0  0  0  0  0  0  0  0  0  0
  127.5730  105.1720  108.5497 H   0  0  0  0  0  0  0  0  0  0  0  0
  120.1565  108.2837  105.7971 H   0  0  0  0  0  0  0  0  0  0  0  0
  120.4641  106.8934  106.8648 H   0  0  0  0  0  0  0  0  0  0  0  0
  121.9127  105.0215  105.3288 H   0  0  0  0  0  0  0  0  0  0  0  0
  122.1173  105.7502  103.7178 H   0  0  0  0  0  0  0  0  0  0  0  0
  119.5254  105.5463  105.0320 H   0  0  0  0  0  0  0  0  0  0  0  0
  124.6951  107.8247  105.5390 H   0  0  0  0  0  0  0  0  0  0  0  0
  124.5082  106.0687  105.3380 H   0  0  0  0  0  0  0  0  0  0  0  0
  122.6374  106.0492  106.9806 H   0  0  0  0  0  0  0  0  0  0  0  0
  122.7843  107.8060  107.1993 H   0  0  0  0  0  0  0  0  0  0  0  0
  127.2925  107.5413  109.4842 H   0  0  0  0  0  0  0  0  0  0  0  0
  119.5335  106.2390  102.8956 H   0  0  0  0  0  0  0  0  0  0  0  0
  1  3  1  0  0  0  0
  1 10  1  0  0  0  0
  1 12  2  0  0  0  0
  2  9  1  0  0  0  0
  2 10  1  0  0  0  0
  2 13  2  0  0  0  0
  3  9  1  0  0  0  0
  4  6  1  0  0  0  0
  4 11  1  0  0  0  0
  5  6  1  0  0  0  0
  5 11  1  0  0  0  0
  6 14  1  0  0  0  0
  7  8  1  0  0  0  0
  7 10  1  0  0  0  0
  8 11  1  0  0  0  0
  3 15  1  0  0  0  0
  3 16  1  0  0  0  0
  4 17  1  0  0  0  0
  4 18  1  0  0  0  0
  5 19  1  0  0  0  0
  5 20  1  0  0  0  0
  6 21  1  0  0  0  0
  7 22  1  0  0  0  0
  7 23  1  0  0  0  0
  8 24  1  0  0  0  0
  8 25  1  0  0  0  0
  9 26  1  0  0  0  0
 14 27  1  0  0  0  0
M  END
> <FRED Chemgauss4 score>
-8.868568

$$$$
C38038649	P57193787
  -OEChem-05122015313D

 24 24  0     0  0  0  0  0  0999 V2000
  124.8767  107.5943  105.7035 C   0  0  0  0  0  0  0  0  0  0  0  0
  126.1927  108.0620  107.2549 C   0  0  0  0  0  0  0  0  0  0  0  0
  122.5732  105.5603  105.7890 C   0  0  0  0  0  0  0  0  0  0  0  0
  123.8927  105.3527  106.5012 C   0  0  0  0  0  0  0  0  0  0  0  0
  120.2238  104.7441  105.8197 C   0  0  0  0  0  0  0  0  0  0  0  0
  119.3946  103.7487  106.6104 C   0  0  0  0  0  0  0  0  0  0  0  0
  125.7724  108.5425  106.1078 N   0  0  0  0  0  0  0  0  0  0  0  0
  125.5692  106.8810  107.5124 N   0  0  0  0  0  0  0  0  0  0  0  0
  124.7164  106.5574  106.5284 N   0  0  0  0  0  0  0  0  0  0  0  0
  127.1120  108.7065  108.0095 N   0  0  0  0  0  0  0  0  0  0  0  0
  121.5801  104.7482  106.3170 N   0  0  0  0  0  0  0  0  0  0  0  0
  122.4218  106.3508  104.8615 O   0  0  0  0  0  0  0  0  0  0  0  0
  118.0525  103.7740  106.1412 O   0  0  0  0  0  0  0  0  0  0  0  0
  124.3319  107.6810  104.7719 H   0  0  0  0  0  0  0  0  0  0  0  0
  124.4629  104.5614  106.0016 H   0  0  0  0  0  0  0  0  0  0  0  0
  123.7117  105.0419  107.5364 H   0  0  0  0  0  0  0  0  0  0  0  0
  120.2490  104.4839  104.7568 H   0  0  0  0  0  0  0  0  0  0  0  0
  119.8163  105.7534  105.9318 H   0  0  0  0  0  0  0  0  0  0  0  0
  119.3874  104.0246  107.6695 H   0  0  0  0  0  0  0  0  0  0  0  0
  119.7838  102.7304  106.5093 H   0  0  0  0  0  0  0  0  0  0  0  0
  127.5592  109.5793  107.6971 H   0  0  0  0  0  0  0  0  0  0  0  0
  127.4759  108.3064  108.8853 H   0  0  0  0  0  0  0  0  0  0  0  0
  121.8123  104.0999  107.0637 H   0  0  0  0  0  0  0  0  0  0  0  0
  117.5592  103.1268  106.6704 H   0  0  0  0  0  0  0  0  0  0  0  0
  1  7  2  0  0  0  0
  1  9  1  0  0  0  0
  2  7  1  0  0  0  0
  2  8  2  0  0  0  0
  2 10  1  0  0  0  0
  3  4  1  0  0  0  0
  3 11  1  0  0  0  0
  3 12  2  0  0  0  0
  4  9  1  0  0  0  0
  5  6  1  0  0  0  0
  5 11  1  0  0  0  0
  6 13  1  0  0  0  0
  8  9  1  0  0  0  0
  1 14  1  0  0  0  0
  4 15  1  0  0  0  0
  4 16  1  0  0  0  0
  5 17  1  0  0  0  0
  5 18  1  0  0  0  0
  6 19  1  0  0  0  0
  6 20  1  0  0  0  0
 10 21  1  0  0  0  0
 10 22  1  0  0  0  0
 11 23  1  0  0  0  0
 13 24  1  0  0  0  0
M  END
> <FRED Chemgauss4 score>
-8.862164

$$$$
C89646623	P140145016
  -OEChem-05122015313D

 37 38  0     0  0  0  0  0  0999 V2000
  122.4406  106.6256  107.6462 C   0  0  0  0  0  0  0  0  0  0  0  0
  121.2196  107.1213  107.3249 C   0  0  0  0  0  0  0  0  0  0  0  0
  122.6677  105.1512  107.6544 C   0  0  0  0  0  0  0  0  0  0  0  0
  120.3097  104.8483  106.9879 C   0  0  0  0  0  0  0  0  0  0  0  0
  124.2446  108.3379  107.2551 C   0  0  0  0  0  0  0  0  0  0  0  0
  124.4461  107.2292  109.0439 C   0  0  0  0  0  0  0  0  0  0  0  0
  125.1651  108.4795  108.4887 C   0  0  0  0  0  0  0  0  0  0  0  0
  124.9494  109.7543  109.2936 C   0  0  0  0  0  0  0  0  0  0  0  0
  117.6141  108.4193  103.5867 C   0  0  0  0  0  0  0  0  0  0  0  0
  118.8642  106.8155  106.6584 C   0  0  0  0  0  0  0  0  0  0  0  0
  118.9057  107.3704  105.2463 C   0  0  0  0  0  0  0  0  0  0  0  0
  121.5738  104.3837  107.3226 N   0  0  0  0  0  0  0  0  0  0  0  0
  123.5434  107.3649  107.9804 N   0  0  0  0  0  0  0  0  0  0  0  0
  120.1685  106.2441  107.0001 N   0  0  0  0  0  0  0  0  0  0  0  0
  121.0294  108.4897  107.3215 N   0  0  0  0  0  0  0  0  0  0  0  0
  123.7623  104.6695  107.9392 O   0  0  0  0  0  0  0  0  0  0  0  0
  119.4065  104.0563  106.7066 O   0  0  0  0  0  0  0  0  0  0  0  0
  126.5715  108.3092  108.2157 O   0  0  0  0  0  0  0  0  0  0  0  0
  117.6274  107.8921  104.9062 O   0  0  0  0  0  0  0  0  0  0  0  0
  123.6395  109.2119  106.9985 H   0  0  0  0  0  0  0  0  0  0  0  0
  124.7214  107.9346  106.3562 H   0  0  0  0  0  0  0  0  0  0  0  0
  125.0198  106.2982  108.9971 H   0  0  0  0  0  0  0  0  0  0  0  0
  123.9814  107.3350  110.0282 H   0  0  0  0  0  0  0  0  0  0  0  0
  125.6326  109.7799  110.1427 H   0  0  0  0  0  0  0  0  0  0  0  0
  123.9246  109.7933  109.6635 H   0  0  0  0  0  0  0  0  0  0  0  0
  125.1322  110.6272  108.6665 H   0  0  0  0  0  0  0  0  0  0  0  0
  116.6192  108.8103  103.3598 H   0  0  0  0  0  0  0  0  0  0  0  0
  117.8786  107.6321  102.8762 H   0  0  0  0  0  0  0  0  0  0  0  0
  118.3451  109.2285  103.5198 H   0  0  0  0  0  0  0  0  0  0  0  0
  118.6320  107.5995  107.3862 H   0  0  0  0  0  0  0  0  0  0  0  0
  118.1139  106.0227  106.7342 H   0  0  0  0  0  0  0  0  0  0  0  0
  119.1445  106.5720  104.5368 H   0  0  0  0  0  0  0  0  0  0  0  0
  119.6490  108.1684  105.1490 H   0  0  0  0  0  0  0  0  0  0  0  0
  121.7043  103.3759  107.3214 H   0  0  0  0  0  0  0  0  0  0  0  0
  121.8007  109.0618  107.5565 H   0  0  0  0  0  0  0  0  0  0  0  0
  120.1317  108.8289  107.0844 H   0  0  0  0  0  0  0  0  0  0  0  0
  127.0154  108.4230  109.0648 H   0  0  0  0  0  0  0  0  0  0  0  0
  1  2  2  0  0  0  0
  1  3  1  0  0  0  0
  1 13  1  0  0  0  0
  2 14  1  0  0  0  0
  2 15  1  0  0  0  0
  3 12  1  0  0  0  0
  3 16  2  0  0  0  0
  4 12  1  0  0  0  0
  4 14  1  0  0  0  0
  4 17  2  0  0  0  0
  5  7  1  0  0  0  0
  5 13  1  0  0  0  0
  6  7  1  0  0  0  0
  6 13  1  0  0  0  0
  7  8  1  0  0  0  0
  7 18  1  0  0  0  0
  9 19  1  0  0  0  0
 10 11  1  0  0  0  0
 10 14  1  0  0  0  0
 11 19  1  0  0  0  0
  5 20  1  0  0  0  0
  5 21  1  0  0  0  0
  6 22  1  0  0  0  0
  6 23  1  0  0  0  0
  8 24  1  0  0  0  0
  8 25  1  0  0  0  0
  8 26  1  0  0  0  0
  9 27  1  0  0  0  0
  9 28  1  0  0  0  0
  9 29  1  0  0  0  0
 10 30  1  0  0  0  0
 10 31  1  0  0  0  0
 11 32  1  0  0  0  0
 11 33  1  0  0  0  0
 12 34  1  0  0  0  0
 15 35  1  0  0  0  0
 15 36  1  0  0  0  0
 18 37  1  0  0  0  0
M  END
> <FRED Chemgauss4 score>
-8.858612

$$$$
C55166662	P83101249
  -OEChem-05122015313D

 26 26  0     0  0  0  0  0  0999 V2000
  124.4629  106.8374  106.3011 C   0  0  0  0  0  0  0  0  0  0  0  0
  126.0391  108.0010  107.0213 C   0  0  0  0  0  0  0  0  0  0  0  0
  123.4878  105.7237  106.1746 C   0  0  0  0  0  0  0  0  0  0  0  0
  117.7507  105.1799  103.2210 C   0  0  0  0  0  0  0  0  0  0  0  0
  121.5559  104.8398  104.8930 C   0  0  0  0  0  0  0  0  0  0  0  0
  120.3159  105.4413  104.2599 C   0  0  0  0  0  0  0  0  0  0  0  0
  125.4166  106.8740  107.2777 N   0  0  0  0  0  0  0  0  0  0  0  0
  124.4562  107.8708  105.4565 N   0  0  0  0  0  0  0  0  0  0  0  0
  125.4737  108.6002  105.9391 N   0  0  0  0  0  0  0  0  0  0  0  0
  127.0811  108.5960  107.6384 N   0  0  0  0  0  0  0  0  0  0  0  0
  122.5758  105.8246  105.1305 N   0  0  0  0  0  0  0  0  0  0  0  0
  123.5193  104.8034  106.9874 O   0  0  0  0  0  0  0  0  0  0  0  0
  119.5798  103.3429  102.8859 O   0  0  0  0  0  0  0  0  0  0  0  0
  118.6109  103.6922  105.1905 O   0  0  0  0  0  0  0  0  0  0  0  0
  119.0781  104.2279  103.9233 S   0  0  0  0  0  0  0  0  0  0  0  0
  116.9309  104.5017  102.9791 H   0  0  0  0  0  0  0  0  0  0  0  0
  117.4307  105.9195  103.9565 H   0  0  0  0  0  0  0  0  0  0  0  0
  118.1191  105.6715  102.3193 H   0  0  0  0  0  0  0  0  0  0  0  0
  121.3270  104.3635  105.8514 H   0  0  0  0  0  0  0  0  0  0  0  0
  121.9900  104.0866  104.2284 H   0  0  0  0  0  0  0  0  0  0  0  0
  120.5638  105.9002  103.2981 H   0  0  0  0  0  0  0  0  0  0  0  0
  119.8567  106.1973  104.9039 H   0  0  0  0  0  0  0  0  0  0  0  0
  125.7170  109.4739  105.4877 H   0  0  0  0  0  0  0  0  0  0  0  0
  127.5117  108.2041  108.4894 H   0  0  0  0  0  0  0  0  0  0  0  0
  127.4378  109.5184  107.3466 H   0  0  0  0  0  0  0  0  0  0  0  0
  122.5761  106.6524  104.5374 H   0  0  0  0  0  0  0  0  0  0  0  0
  1  3  1  0  0  0  0
  1  7  1  0  0  0  0
  1  8  2  0  0  0  0
  2  7  2  0  0  0  0
  2  9  1  0  0  0  0
  2 10  1  0  0  0  0
  3 11  1  0  0  0  0
  3 12  2  0  0  0  0
  4 15  1  0  0  0  0
  5  6  1  0  0  0  0
  5 11  1  0  0  0  0
  6 15  1  0  0  0  0
  8  9  1  0  0  0  0
 13 15  2  0  0  0  0
 14 15  2  0  0  0  0
  4 16  1  0  0  0  0
  4 17  1  0  0  0  0
  4 18  1  0  0  0  0
  5 19  1  0  0  0  0
  5 20  1  0  0  0  0
  6 21  1  0  0  0  0
  6 22  1  0  0  0  0
  9 23  1  0  0  0  0
 10 24  1  0  0  0  0
 10 25  1  0  0  0  0
 11 26  1  0  0  0  0
M  END
> <FRED Chemgauss4 score>
-8.856964

$$$$
C00308122	P06630034
  -OEChem-05122015313D

 35 38  0     0  0  0  0  0  0999 V2000
  118.2199  106.3601  106.4706 C   0  0  0  0  0  0  0  0  0  0  0  0
  117.4571  107.7678  104.6613 C   0  0  0  0  0  0  0  0  0  0  0  0
  119.2976  105.9413  105.6905 C   0  0  0  0  0  0  0  0  0  0  0  0
  118.5349  107.3490  103.8811 C   0  0  0  0  0  0  0  0  0  0  0  0
  116.3264  108.8167  107.5664 C   0  0  0  0  0  0  0  0  0  0  0  0
  112.3579  106.4625  107.4142 C   0  0  0  0  0  0  0  0  0  0  0  0
  114.8840  107.1219  106.8579 C   0  0  0  0  0  0  0  0  0  0  0  0
  117.2996  107.2734  105.9560 C   0  0  0  0  0  0  0  0  0  0  0  0
  116.1861  107.7065  106.7622 C   0  0  0  0  0  0  0  0  0  0  0  0
  119.4551  106.4357  104.3957 C   0  0  0  0  0  0  0  0  0  0  0  0
  114.2904  106.0129  106.2466 C   0  0  0  0  0  0  0  0  0  0  0  0
  114.0874  107.8318  107.7469 C   0  0  0  0  0  0  0  0  0  0  0  0
  116.6079  103.7358  104.4147 C   0  0  0  0  0  0  0  0  0  0  0  0
  115.6675  104.1719  103.3096 C   0  0  0  0  0  0  0  0  0  0  0  0
  115.8101  104.0438  105.6767 C   0  0  0  0  0  0  0  0  0  0  0  0
  115.0480  105.4437  103.8774 C   0  0  0  0  0  0  0  0  0  0  0  0
  113.0123  105.6831  106.5312 N   0  0  0  0  0  0  0  0  0  0  0  0
  112.8097  107.5482  108.0671 N   0  0  0  0  0  0  0  0  0  0  0  0
  115.0026  105.2191  105.3274 N   0  0  0  0  0  0  0  0  0  0  0  0
  114.8964  109.1626  108.4389 S   0  0  0  0  0  0  0  0  0  0  0  0
  120.7838  105.9186  103.4319 Cl  0  0  0  0  0  0  0  0  0  0  0  0
  118.1119  105.9650  107.4782 H   0  0  0  0  0  0  0  0  0  0  0  0
  116.7482  108.4802  104.2459 H   0  0  0  0  0  0  0  0  0  0  0  0
  120.0069  105.2292  106.1044 H   0  0  0  0  0  0  0  0  0  0  0  0
  118.6442  107.7417  102.8735 H   0  0  0  0  0  0  0  0  0  0  0  0
  117.1959  109.4483  107.6906 H   0  0  0  0  0  0  0  0  0  0  0  0
  111.3333  106.1767  107.6252 H   0  0  0  0  0  0  0  0  0  0  0  0
  116.8908  102.6819  104.3450 H   0  0  0  0  0  0  0  0  0  0  0  0
  117.5227  104.3402  104.3898 H   0  0  0  0  0  0  0  0  0  0  0  0
  116.1774  104.3440  102.3577 H   0  0  0  0  0  0  0  0  0  0  0  0
  114.8929  103.4115  103.1531 H   0  0  0  0  0  0  0  0  0  0  0  0
  115.1500  103.2083  105.9355 H   0  0  0  0  0  0  0  0  0  0  0  0
  116.4754  104.2457  106.5228 H   0  0  0  0  0  0  0  0  0  0  0  0
  115.6761  106.3150  103.6602 H   0  0  0  0  0  0  0  0  0  0  0  0
  114.0492  105.6140  103.4617 H   0  0  0  0  0  0  0  0  0  0  0  0
  1  3  1  0  0  0  0
  1  8  2  0  0  0  0
  2  4  2  0  0  0  0
  2  8  1  0  0  0  0
  3 10  2  0  0  0  0
  4 10  1  0  0  0  0
  5  9  2  0  0  0  0
  5 20  1  0  0  0  0
  6 17  2  0  0  0  0
  6 18  1  0  0  0  0
  7  9  1  0  0  0  0
  7 11  2  0  0  0  0
  7 12  1  0  0  0  0
  8  9  1  0  0  0  0
 10 21  1  0  0  0  0
 11 17  1  0  0  0  0
 11 19  1  0  0  0  0
 12 18  2  0  0  0  0
 12 20  1  0  0  0  0
 13 14  1  0  0  0  0
 13 15  1  0  0  0  0
 14 16  1  0  0  0  0
 15 19  1  0  0  0  0
 16 19  1  0  0  0  0
  1 22  1  0  0  0  0
  2 23  1  0  0  0  0
  3 24  1  0  0  0  0
  4 25  1  0  0  0  0
  5 26  1  0  0  0  0
  6 27  1  0  0  0  0
 13 28  1  0  0  0  0
 13 29  1  0  0  0  0
 14 30  1  0  0  0  0
 14 31  1  0  0  0  0
 15 32  1  0  0  0  0
 15 33  1  0  0  0  0
 16 34  1  0  0  0  0
 16 35  1  0  0  0  0
M  END
> <FRED Chemgauss4 score>
-8.856606

$$$$
C83746155	P131018728
  -OEChem-05122015313D

 31 31  0     1  0  0  0  0  0999 V2000
  125.6874  105.0077  108.1111 C   0  0  0  0  0  0  0  0  0  0  0  0
  125.2585  107.0130  108.5009 C   0  0  0  0  0  0  0  0  0  0  0  0
  122.1742  109.5483  112.2297 C   0  0  0  0  0  0  0  0  0  0  0  0
  124.2672  110.9116  112.2186 C   0  0  0  0  0  0  0  0  0  0  0  0
  122.1445  111.8913  111.3371 C   0  0  0  0  0  0  0  0  0  0  0  0
  124.2988  108.8463  110.0206 C   0  0  0  0  0  0  0  0  0  0  0  0
  123.3693  110.0723  110.0361 C   0  0  0  0  0  0  0  0  0  0  0  0
  124.6931  108.4190  108.5877 C   0  0  1  0  0  0  0  0  0  0  0  0
  122.9724  110.5999  111.4417 C   0  0  0  0  0  0  0  0  0  0  0  0
  124.7897  105.9942  107.8184 N   0  0  0  0  0  0  0  0  0  0  0  0
  126.6821  105.3520  108.9317 N   0  0  0  0  0  0  0  0  0  0  0  0
  126.3843  106.6391  109.1661 N   0  0  0  0  0  0  0  0  0  0  0  0
  125.6413  109.3879  108.0213 N   0  0  0  0  0  0  0  0  0  0  0  0
  125.6143  104.0063  107.7138 H   0  0  0  0  0  0  0  0  0  0  0  0
  121.2412  109.2943  111.7132 H   0  0  0  0  0  0  0  0  0  0  0  0
  122.7369  108.6173  112.3518 H   0  0  0  0  0  0  0  0  0  0  0  0
  121.9111  109.9178  113.2271 H   0  0  0  0  0  0  0  0  0  0  0  0
  124.8731  111.6595  111.6946 H   0  0  0  0  0  0  0  0  0  0  0  0
  124.0471  111.3039  113.2179 H   0  0  0  0  0  0  0  0  0  0  0  0
  124.8802  110.0118  112.3428 H   0  0  0  0  0  0  0  0  0  0  0  0
  122.6878  112.6628  110.7793 H   0  0  0  0  0  0  0  0  0  0  0  0
  121.1964  111.7117  110.8181 H   0  0  0  0  0  0  0  0  0  0  0  0
  121.9156  112.3083  112.3231 H   0  0  0  0  0  0  0  0  0  0  0  0
  123.8256  108.0108  110.5484 H   0  0  0  0  0  0  0  0  0  0  0  0
  125.2155  109.0883  110.5718 H   0  0  0  0  0  0  0  0  0  0  0  0
  122.4505  109.8318  109.4862 H   0  0  0  0  0  0  0  0  0  0  0  0
  123.8565  110.8828  109.4774 H   0  0  0  0  0  0  0  0  0  0  0  0
  123.7888  108.4708  107.9678 H   0  0  0  0  0  0  0  0  0  0  0  0
  126.9835  107.1825  109.7765 H   0  0  0  0  0  0  0  0  0  0  0  0
  125.5469  110.3377  108.2944 H   0  0  0  0  0  0  0  0  0  0  0  0
  126.1922  109.0949  107.2491 H   0  0  0  0  0  0  0  0  0  0  0  0
  1 10  1  0  0  0  0
  1 11  2  0  0  0  0
  2  8  1  0  0  0  0
  2 10  2  0  0  0  0
  2 12  1  0  0  0  0
  3  9  1  0  0  0  0
  4  9  1  0  0  0  0
  5  9  1  0  0  0  0
  6  7  1  0  0  0  0
  6  8  1  0  0  0  0
  7  9  1  0  0  0  0
  8 13  1  0  0  0  0
 11 12  1  0  0  0  0
  1 14  1  0  0  0  0
  3 15  1  0  0  0  0
  3 16  1  0  0  0  0
  3 17  1  0  0  0  0
  4 18  1  0  0  0  0
  4 19  1  0  0  0  0
  4 20  1  0  0  0  0
  5 21  1  0  0  0  0
  5 22  1  0  0  0  0
  5 23  1  0  0  0  0
  6 24  1  0  0  0  0
  6 25  1  0  0  0  0
  7 26  1  0  0  0  0
  7 27  1  0  0  0  0
  8 28  1  0  0  0  0
 12 29  1  0  0  0  0
 13 30  1  0  0  0  0
 13 31  1  0  0  0  0
M  END
> <FRED Chemgauss4 score>
-8.851064

$$$$
acivicin	P10000037
  -OEChem-05122015313D

 18 18  0     1  0  0  0  0  0999 V2000
  125.0298  104.2603  107.5342 C   0  0  0  0  0  0  0  0  0  0  0  0
  126.4933  108.1625  107.2795 C   0  0  0  0  0  0  0  0  0  0  0  0
  126.0490  104.5294  108.5663 C   0  0  0  0  0  0  0  0  0  0  0  0
  125.9077  106.0349  108.6074 C   0  0  1  0  0  0  0  0  0  0  0  0
  126.9260  106.7627  107.7398 C   0  0  2  0  0  0  0  0  0  0  0  0
  124.2043  105.2167  107.2782 N   0  0  0  0  0  0  0  0  0  0  0  0
  128.2189  106.7822  108.4914 N   0  3  0  0  0  0  0  0  0  0  0  0
  126.2192  108.9952  108.1873 O   0  5  0  0  0  0  0  0  0  0  0  0
  126.4574  108.3100  106.0232 O   0  0  0  0  0  0  0  0  0  0  0  0
  124.5869  106.3028  108.1063 O   0  0  0  0  0  0  0  0  0  0  0  0
  124.9491  102.7512  106.7739 Cl  0  0  0  0  0  0  0  0  0  0  0  0
  125.7256  104.0659  109.5034 H   0  0  0  0  0  0  0  0  0  0  0  0
  127.0457  104.1750  108.2964 H   0  0  0  0  0  0  0  0  0  0  0  0
  125.9745  106.4055  109.6357 H   0  0  0  0  0  0  0  0  0  0  0  0
  127.1202  106.1624  106.8437 H   0  0  0  0  0  0  0  0  0  0  0  0
  128.1779  106.1402  109.2847 H   0  0  0  0  0  0  0  0  0  0  0  0
  128.4105  107.7221  108.8424 H   0  0  0  0  0  0  0  0  0  0  0  0
  128.9879  106.4987  107.8819 H   0  0  0  0  0  0  0  0  0  0  0  0
  1  3  1  0  0  0  0
  1  6  2  0  0  0  0
  1 11  1  0  0  0  0
  2  5  1  0  0  0  0
  2  8  1  0  0  0  0
  2  9  2  0  0  0  0
  3  4  1  0  0  0  0
  4  5  1  0  0  0  0
  4 10  1  0  0  0  0
  5  7  1  0  0  0  0
  6 10  1  0  0  0  0
  3 12  1  0  0  0  0
  3 13  1  0  0  0  0
  4 14  1  0  0  0  0
  5 15  1  0  0  0  0
  7 16  1  0  0  0  0
  7 17  1  0  0  0  0
  7 18  1  0  0  0  0
M  CHG  2   7   1   8  -1
M  END
> <FRED Chemgauss4 score>
-8.847694

$$$$
C38007993	P120930287
  -OEChem-05122015313D

 26 27  0     1  0  0  0  0  0999 V2000
  125.9177  107.7262  107.1826 C   0  0  0  0  0  0  0  0  0  0  0  0
  124.5810  106.1036  107.7206 C   0  0  0  0  0  0  0  0  0  0  0  0
  120.9483  106.1048  104.9535 C   0  0  0  0  0  0  0  0  0  0  0  0
  120.6693  104.3881  106.3036 C   0  0  0  0  0  0  0  0  0  0  0  0
  122.3341  105.8752  105.5415 C   0  0  0  0  0  0  0  0  0  0  0  0
  122.0877  104.7923  106.5709 C   0  0  1  0  0  0  0  0  0  0  0  0
  124.7430  107.9919  109.3784 C   0  0  0  0  0  0  0  0  0  0  0  0
  123.5954  105.2844  108.5006 C   0  0  0  0  0  0  0  0  0  0  0  0
  125.9592  106.8422  106.2115 N   0  0  0  0  0  0  0  0  0  0  0  0
  125.1088  105.8098  106.5538 N   0  0  0  0  0  0  0  0  0  0  0  0
  120.0830  105.2374  105.3942 N   0  0  0  0  0  0  0  0  0  0  0  0
  125.0625  107.3017  108.1537 N   0  0  0  0  0  0  0  0  0  0  0  0
  122.2165  105.3414  107.9405 N   0  3  0  0  0  0  0  0  0  0  0  0
  120.7825  107.0324  104.1388 O   0  5  0  0  0  0  0  0  0  0  0  0
  120.1144  103.4524  106.8663 O   0  0  0  0  0  0  0  0  0  0  0  0
  126.4659  108.6562  107.2314 H   0  0  0  0  0  0  0  0  0  0  0  0
  123.0002  105.5132  104.7489 H   0  0  0  0  0  0  0  0  0  0  0  0
  122.7526  106.7979  105.9584 H   0  0  0  0  0  0  0  0  0  0  0  0
  122.7780  103.9500  106.4781 H   0  0  0  0  0  0  0  0  0  0  0  0
  123.8835  108.6395  109.1862 H   0  0  0  0  0  0  0  0  0  0  0  0
  124.5050  107.2615  110.1566 H   0  0  0  0  0  0  0  0  0  0  0  0
  125.6060  108.5842  109.6950 H   0  0  0  0  0  0  0  0  0  0  0  0
  123.8844  104.2280  108.5179 H   0  0  0  0  0  0  0  0  0  0  0  0
  123.5280  105.6290  109.5381 H   0  0  0  0  0  0  0  0  0  0  0  0
  121.8942  106.3208  107.9490 H   0  0  0  0  0  0  0  0  0  0  0  0
  121.5788  104.8359  108.5739 H   0  0  0  0  0  0  0  0  0  0  0  0
  1  9  2  0  0  0  0
  1 12  1  0  0  0  0
  2  8  1  0  0  0  0
  2 10  2  0  0  0  0
  2 12  1  0  0  0  0
  3  5  1  0  0  0  0
  3 11  2  0  0  0  0
  3 14  1  0  0  0  0
  4  6  1  0  0  0  0
  4 11  1  0  0  0  0
  4 15  2  0  0  0  0
  5  6  1  0  0  0  0
  6 13  1  0  0  0  0
  7 12  1  0  0  0  0
  8 13  1  0  0  0  0
  9 10  1  0  0  0  0
  1 16  1  0  0  0  0
  5 17  1  0  0  0  0
  5 18  1  0  0  0  0
  6 19  1  0  0  0  0
  7 20  1  0  0  0  0
  7 21  1  0  0  0  0
  7 22  1  0  0  0  0
  8 23  1  0  0  0  0
  8 24  1  0  0  0  0
 13 25  1  0  0  0  0
 13 26  1  0  0  0  0
M  CHG  2  13   1  14  -1
M  END
> <FRED Chemgauss4 score>
-8.846401

$$$$
C70368618	P108497256
  -OEChem-05122015313D

 39 40  0     1  0  0  0  0  0999 V2000
  119.1347  105.7582  106.7547 C   0  0  0  0  0  0  0  0  0  0  0  0
  119.2042  104.4724  106.2607 C   0  0  0  0  0  0  0  0  0  0  0  0
  121.1367  105.2337  107.4808 C   0  0  0  0  0  0  0  0  0  0  0  0
  123.7196  105.1494  107.2279 C   0  0  0  0  0  0  0  0  0  0  0  0
  122.6566  106.7312  108.8502 C   0  0  0  0  0  0  0  0  0  0  0  0
  125.0673  105.3054  107.9450 C   0  0  0  0  0  0  0  0  0  0  0  0
  124.1117  107.2178  108.9629 C   0  0  1  0  0  0  0  0  0  0  0  0
  122.5061  105.3378  108.1697 C   0  0  1  0  0  0  0  0  0  0  0  0
  117.9957  106.6868  106.6039 C   0  0  0  0  0  0  0  0  0  0  0  0
  118.2170  103.6978  105.4821 C   0  0  0  0  0  0  0  0  0  0  0  0
  123.5991  110.3252  111.2113 C   0  0  0  0  0  0  0  0  0  0  0  0
  124.2956  108.1517  110.1512 C   0  0  0  0  0  0  0  0  0  0  0  0
  123.4362  109.4052  110.0119 C   0  0  0  0  0  0  0  0  0  0  0  0
  120.2418  106.1963  107.4550 N   0  0  0  0  0  0  0  0  0  0  0  0
  122.6213  104.2847  109.2009 N   0  0  0  0  0  0  0  0  0  0  0  0
  124.9935  106.1111  109.1203 O   0  0  0  0  0  0  0  0  0  0  0  0
  120.7131  103.7748  106.6824 S   0  0  0  0  0  0  0  0  0  0  0  0
  123.6781  105.8649  106.3872 H   0  0  0  0  0  0  0  0  0  0  0  0
  123.6867  104.1396  106.7789 H   0  0  0  0  0  0  0  0  0  0  0  0
  122.2246  106.6767  109.8684 H   0  0  0  0  0  0  0  0  0  0  0  0
  122.0587  107.4872  108.3069 H   0  0  0  0  0  0  0  0  0  0  0  0
  125.4309  104.3084  108.2548 H   0  0  0  0  0  0  0  0  0  0  0  0
  125.8469  105.7117  107.2709 H   0  0  0  0  0  0  0  0  0  0  0  0
  124.4020  107.7677  108.0485 H   0  0  0  0  0  0  0  0  0  0  0  0
  117.2830  106.5780  107.4371 H   0  0  0  0  0  0  0  0  0  0  0  0
  118.3227  107.7398  106.5765 H   0  0  0  0  0  0  0  0  0  0  0  0
  117.4439  106.5136  105.6646 H   0  0  0  0  0  0  0  0  0  0  0  0
  118.3601  103.8474  104.3996 H   0  0  0  0  0  0  0  0  0  0  0  0
  118.2890  102.6156  105.6838 H   0  0  0  0  0  0  0  0  0  0  0  0
  117.1804  103.9855  105.7267 H   0  0  0  0  0  0  0  0  0  0  0  0
  123.3294  109.8112  112.1394 H   0  0  0  0  0  0  0  0  0  0  0  0
  122.9516  111.2016  111.1075 H   0  0  0  0  0  0  0  0  0  0  0  0
  124.6325  110.6751  111.2999 H   0  0  0  0  0  0  0  0  0  0  0  0
  124.0317  107.6166  111.0697 H   0  0  0  0  0  0  0  0  0  0  0  0
  125.3526  108.4286  110.2271 H   0  0  0  0  0  0  0  0  0  0  0  0
  123.7135  109.9491  109.1012 H   0  0  0  0  0  0  0  0  0  0  0  0
  122.3808  109.1255  109.9137 H   0  0  0  0  0  0  0  0  0  0  0  0
  122.9030  103.3759  108.9089 H   0  0  0  0  0  0  0  0  0  0  0  0
  122.2233  104.4638  110.0955 H   0  0  0  0  0  0  0  0  0  0  0  0
  1  2  2  0  0  0  0
  1  9  1  0  0  0  0
  1 14  1  0  0  0  0
  2 10  1  0  0  0  0
  2 17  1  0  0  0  0
  3  8  1  0  0  0  0
  3 14  2  0  0  0  0
  3 17  1  0  0  0  0
  4  6  1  0  0  0  0
  4  8  1  0  0  0  0
  5  7  1  0  0  0  0
  5  8  1  0  0  0  0
  6 16  1  0  0  0  0
  7 12  1  0  0  0  0
  7 16  1  0  0  0  0
  8 15  1  0  0  0  0
 11 13  1  0  0  0  0
 12 13  1  0  0  0  0
  4 18  1  0  0  0  0
  4 19  1  0  0  0  0
  5 20  1  0  0  0  0
  5 21  1  0  0  0  0
  6 22  1  0  0  0  0
  6 23  1  0  0  0  0
  7 24  1  0  0  0  0
  9 25  1  0  0  0  0
  9 26  1  0  0  0  0
  9 27  1  0  0  0  0
 10 28  1  0  0  0  0
 10 29  1  0  0  0  0
 10 30  1  0  0  0  0
 11 31  1  0  0  0  0
 11 32  1  0  0  0  0
 11 33  1  0  0  0  0
 12 34  1  0  0  0  0
 12 35  1  0  0  0  0
 13 36  1  0  0  0  0
 13 37  1  0  0  0  0
 15 38  1  0  0  0  0
 15 39  1  0  0  0  0
M  END
> <FRED Chemgauss4 score>
-8.842899

$$$$
C79518003	P124270678
  -OEChem-05122015313D

 44 45  0     1  0  0  0  0  0999 V2000
  121.6577  106.2011  105.5126 C   0  0  0  0  0  0  0  0  0  0  0  0
  125.0038  106.1472  106.7595 C   0  0  0  0  0  0  0  0  0  0  0  0
  118.9546  103.7310  105.6311 C   0  0  0  0  0  0  0  0  0  0  0  0
  124.8288  105.7167  108.2166 C   0  0  0  0  0  0  0  0  0  0  0  0
  120.1691  104.3437  106.3075 C   0  0  0  0  0  0  0  0  0  0  0  0
  123.9913  105.4542  105.8529 C   0  0  0  0  0  0  0  0  0  0  0  0
  122.4046  105.1954  107.7273 C   0  0  0  0  0  0  0  0  0  0  0  0
  119.0404  104.2736  104.2234 C   0  0  0  0  0  0  0  0  0  0  0  0
  123.3789  105.8698  108.7053 C   0  0  2  0  0  0  0  0  0  0  0  0
  120.2406  105.7698  105.7507 C   0  0  1  0  0  0  0  0  0  0  0  0
  119.5126  106.7849  106.6277 C   0  0  0  0  0  0  0  0  0  0  0  0
  123.0086  107.3390  108.9283 C   0  0  0  0  0  0  0  0  0  0  0  0
  123.9130  107.9458  109.8903 N   0  5  0  0  0  0  0  0  0  0  0  0
  122.6278  105.6483  106.3478 N   0  0  0  0  0  0  0  0  0  0  0  0
  124.5466  110.2233  108.9323 N   0  0  0  0  0  0  0  0  0  0  0  0
  119.5170  105.6814  104.4182 N   0  3  0  0  0  0  0  0  0  0  0  0
  121.8985  107.0089  104.6118 O   0  0  0  0  0  0  0  0  0  0  0  0
  122.2033  109.8784  109.8124 O   0  0  0  0  0  0  0  0  0  0  0  0
  124.0787  110.0266  111.4072 O   0  0  0  0  0  0  0  0  0  0  0  0
  123.5654  109.4782  110.1547 S   0  0  0  0  0  0  0  0  0  0  0  0
  124.8954  107.2343  106.6777 H   0  0  0  0  0  0  0  0  0  0  0  0
  126.0201  105.8963  106.4307 H   0  0  0  0  0  0  0  0  0  0  0  0
  119.0256  102.6369  105.6271 H   0  0  0  0  0  0  0  0  0  0  0  0
  118.0185  104.0070  106.1251 H   0  0  0  0  0  0  0  0  0  0  0  0
  125.1540  104.6693  108.3282 H   0  0  0  0  0  0  0  0  0  0  0  0
  125.5027  106.3157  108.8529 H   0  0  0  0  0  0  0  0  0  0  0  0
  120.0187  104.3566  107.3972 H   0  0  0  0  0  0  0  0  0  0  0  0
  121.0758  103.7573  106.1072 H   0  0  0  0  0  0  0  0  0  0  0  0
  124.0344  105.8713  104.8391 H   0  0  0  0  0  0  0  0  0  0  0  0
  124.2321  104.3887  105.7774 H   0  0  0  0  0  0  0  0  0  0  0  0
  122.4922  104.1072  107.8140 H   0  0  0  0  0  0  0  0  0  0  0  0
  121.3641  105.4469  107.9814 H   0  0  0  0  0  0  0  0  0  0  0  0
  119.7529  103.7470  103.5867 H   0  0  0  0  0  0  0  0  0  0  0  0
  118.0597  104.3339  103.7446 H   0  0  0  0  0  0  0  0  0  0  0  0
  123.2953  105.3491  109.6783 H   0  0  0  0  0  0  0  0  0  0  0  0
  118.4833  106.4652  106.7968 H   0  0  0  0  0  0  0  0  0  0  0  0
  119.5020  107.7615  106.1417 H   0  0  0  0  0  0  0  0  0  0  0  0
  120.0151  106.8770  107.5916 H   0  0  0  0  0  0  0  0  0  0  0  0
  121.9715  107.3884  109.2738 H   0  0  0  0  0  0  0  0  0  0  0  0
  123.0479  107.8582  107.9658 H   0  0  0  0  0  0  0  0  0  0  0  0
  124.0389  110.6817  108.1648 H   0  0  0  0  0  0  0  0  0  0  0  0
  125.3381  110.7855  109.2709 H   0  0  0  0  0  0  0  0  0  0  0  0
  120.1396  105.9568  103.6464 H   0  0  0  0  0  0  0  0  0  0  0  0
  118.7187  106.3297  104.3806 H   0  0  0  0  0  0  0  0  0  0  0  0
  1 10  1  0  0  0  0
  1 14  1  0  0  0  0
  1 17  2  0  0  0  0
  2  4  1  0  0  0  0
  2  6  1  0  0  0  0
  3  5  1  0  0  0  0
  3  8  1  0  0  0  0
  4  9  1  0  0  0  0
  5 10  1  0  0  0  0
  6 14  1  0  0  0  0
  7  9  1  0  0  0  0
  7 14  1  0  0  0  0
  8 16  1  0  0  0  0
  9 12  1  0  0  0  0
 10 11  1  0  0  0  0
 10 16  1  0  0  0  0
 12 13  1  0  0  0  0
 13 20  1  0  0  0  0
 15 20  1  0  0  0  0
 18 20  2  0  0  0  0
 19 20  2  0  0  0  0
  2 21  1  0  0  0  0
  2 22  1  0  0  0  0
  3 23  1  0  0  0  0
  3 24  1  0  0  0  0
  4 25  1  0  0  0  0
  4 26  1  0  0  0  0
  5 27  1  0  0  0  0
  5 28  1  0  0  0  0
  6 29  1  0  0  0  0
  6 30  1  0  0  0  0
  7 31  1  0  0  0  0
  7 32  1  0  0  0  0
  8 33  1  0  0  0  0
  8 34  1  0  0  0  0
  9 35  1  0  0  0  0
 11 36  1  0  0  0  0
 11 37  1  0  0  0  0
 11 38  1  0  0  0  0
 12 39  1  0  0  0  0
 12 40  1  0  0  0  0
 15 41  1  0  0  0  0
 15 42  1  0  0  0  0
 16 43  1  0  0  0  0
 16 44  1  0  0  0  0
M  CHG  2  13  -1  16   1
M  END
> <FRED Chemgauss4 score>
-8.838175

$$$$
C35429059	P52567788
  -OEChem-05122015313D

 37 40  0     1  0  0  0  0  0999 V2000
  117.0780  103.7409  104.8385 C   0  0  0  0  0  0  0  0  0  0  0  0
  117.8806  103.8685  105.9645 C   0  0  0  0  0  0  0  0  0  0  0  0
  116.7709  104.8667  104.0808 C   0  0  0  0  0  0  0  0  0  0  0  0
  118.3804  105.1208  106.3294 C   0  0  0  0  0  0  0  0  0  0  0  0
  117.2749  106.1305  104.4347 C   0  0  0  0  0  0  0  0  0  0  0  0
  118.0995  106.2774  105.5737 C   0  0  0  0  0  0  0  0  0  0  0  0
  119.8627  108.4475  107.9218 C   0  0  0  0  0  0  0  0  0  0  0  0
  119.7977  107.7972  106.7002 C   0  0  0  0  0  0  0  0  0  0  0  0
  121.8363  107.8129  107.2086 C   0  0  0  0  0  0  0  0  0  0  0  0
  121.9886  108.8940  109.2506 C   0  0  0  0  0  0  0  0  0  0  0  0
  123.2824  108.6086  109.0253 C   0  0  0  0  0  0  0  0  0  0  0  0
  116.8741  107.3142  103.5922 C   0  0  0  0  0  0  0  0  0  0  0  0
  117.7193  108.5426  103.8978 C   0  0  0  0  0  0  0  0  0  0  0  0
  117.9219  108.7339  105.4053 C   0  0  1  0  0  0  0  0  0  0  0  0
  116.6119  109.0058  106.1537 C   0  0  0  0  0  0  0  0  0  0  0  0
  118.8305  109.0444  108.7868 C   0  0  0  0  0  0  0  0  0  0  0  0
  121.0459  107.4000  106.2571 N   0  0  0  0  0  0  0  0  0  0  0  0
  121.1893  108.4438  108.2270 N   0  0  0  0  0  0  0  0  0  0  0  0
  118.6136  107.5460  105.9596 N   0  0  0  0  0  0  0  0  0  0  0  0
  123.5480  107.7511  107.4965 S   0  0  0  0  0  0  0  0  0  0  0  0
  118.8545  110.8260  108.6877 Cl  0  0  0  0  0  0  0  0  0  0  0  0
  116.6850  102.7691  104.5552 H   0  0  0  0  0  0  0  0  0  0  0  0
  118.1180  102.9950  106.5649 H   0  0  0  0  0  0  0  0  0  0  0  0
  116.1303  104.7589  103.2085 H   0  0  0  0  0  0  0  0  0  0  0  0
  119.0001  105.1758  107.2219 H   0  0  0  0  0  0  0  0  0  0  0  0
  121.5756  109.4072  110.1056 H   0  0  0  0  0  0  0  0  0  0  0  0
  124.1008  108.8602  109.6850 H   0  0  0  0  0  0  0  0  0  0  0  0
  116.9747  107.0694  102.5280 H   0  0  0  0  0  0  0  0  0  0  0  0
  115.8166  107.5344  103.7817 H   0  0  0  0  0  0  0  0  0  0  0  0
  118.7021  108.4278  103.4202 H   0  0  0  0  0  0  0  0  0  0  0  0
  117.2559  109.4315  103.4540 H   0  0  0  0  0  0  0  0  0  0  0  0
  118.5567  109.6144  105.5300 H   0  0  0  0  0  0  0  0  0  0  0  0
  115.9489  108.1494  106.0539 H   0  0  0  0  0  0  0  0  0  0  0  0
  116.1277  109.8855  105.7358 H   0  0  0  0  0  0  0  0  0  0  0  0
  116.8213  109.1773  107.2073 H   0  0  0  0  0  0  0  0  0  0  0  0
  118.9650  108.7746  109.8498 H   0  0  0  0  0  0  0  0  0  0  0  0
  117.8114  108.7158  108.5141 H   0  0  0  0  0  0  0  0  0  0  0  0
  1  2  1  0  0  0  0
  1  3  2  0  0  0  0
  2  4  2  0  0  0  0
  3  5  1  0  0  0  0
  4  6  1  0  0  0  0
  5  6  2  0  0  0  0
  5 12  1  0  0  0  0
  6 19  1  0  0  0  0
  7  8  2  0  0  0  0
  7 16  1  0  0  0  0
  7 18  1  0  0  0  0
  8 17  1  0  0  0  0
  8 19  1  0  0  0  0
  9 17  2  0  0  0  0
  9 18  1  0  0  0  0
  9 20  1  0  0  0  0
 10 11  2  0  0  0  0
 10 18  1  0  0  0  0
 11 20  1  0  0  0  0
 12 13  1  0  0  0  0
 13 14  1  0  0  0  0
 14 15  1  0  0  0  0
 14 19  1  0  0  0  0
 16 21  1  0  0  0  0
  1 22  1  0  0  0  0
  2 23  1  0  0  0  0
  3 24  1  0  0  0  0
  4 25  1  0  0  0  0
 10 26  1  0  0  0  0
 11 27  1  0  0  0  0
 12 28  1  0  0  0  0
 12 29  1  0  0  0  0
 13 30  1  0  0  0  0
 13 31  1  0  0  0  0
 14 32  1  0  0  0  0
 15 33  1  0  0  0  0
 15 34  1  0  0  0  0
 15 35  1  0  0  0  0
 16 36  1  0  0  0  0
 16 37  1  0  0  0  0
M  END
> <FRED Chemgauss4 score>
-8.832699

$$$$
C95868194	P150889557
  -OEChem-05122015313D

 28 29  0     1  0  0  0  0  0999 V2000
  123.3867  105.8425  107.2181 C   0  0  0  0  0  0  0  0  0  0  0  0
  122.0807  105.6352  106.8484 C   0  0  0  0  0  0  0  0  0  0  0  0
  121.8494  106.5779  105.8164 C   0  0  0  0  0  0  0  0  0  0  0  0
  125.7852  107.4089  107.8240 C   0  0  0  0  0  0  0  0  0  0  0  0
  121.0516  104.6988  107.3645 C   0  0  0  0  0  0  0  0  0  0  0  0
  119.8509  104.6062  106.4049 C   0  0  0  0  0  0  0  0  0  0  0  0
  119.4270  105.9891  105.8684 C   0  0  0  0  0  0  0  0  0  0  0  0
  120.5533  106.7131  105.0905 C   0  0  2  0  0  0  0  0  0  0  0  0
  125.1630  107.4323  106.4470 C   0  0  0  0  0  0  0  0  0  0  0  0
  122.9232  107.3302  105.5581 N   0  0  0  0  0  0  0  0  0  0  0  0
  123.8403  106.8556  106.4220 N   0  0  0  0  0  0  0  0  0  0  0  0
  126.6442  108.4687  108.0242 N   0  0  0  0  0  0  0  0  0  0  0  0
  120.6964  106.1393  103.7515 N   0  0  0  0  0  0  0  0  0  0  0  0
  125.5580  106.5473  108.6685 O   0  0  0  0  0  0  0  0  0  0  0  0
  124.0153  105.3714  107.9615 H   0  0  0  0  0  0  0  0  0  0  0  0
  121.5031  103.7039  107.4773 H   0  0  0  0  0  0  0  0  0  0  0  0
  120.7055  105.0131  108.3572 H   0  0  0  0  0  0  0  0  0  0  0  0
  120.1048  103.9445  105.5674 H   0  0  0  0  0  0  0  0  0  0  0  0
  118.9977  104.1488  106.9247 H   0  0  0  0  0  0  0  0  0  0  0  0
  118.5424  105.8508  105.2220 H   0  0  0  0  0  0  0  0  0  0  0  0
  119.0944  106.6214  106.7079 H   0  0  0  0  0  0  0  0  0  0  0  0
  120.3106  107.7735  105.0062 H   0  0  0  0  0  0  0  0  0  0  0  0
  125.7934  106.8723  105.7472 H   0  0  0  0  0  0  0  0  0  0  0  0
  125.0897  108.4652  106.0881 H   0  0  0  0  0  0  0  0  0  0  0  0
  126.8180  109.1688  107.3101 H   0  0  0  0  0  0  0  0  0  0  0  0
  127.1350  108.5835  108.9048 H   0  0  0  0  0  0  0  0  0  0  0  0
  121.5729  106.2429  103.2888 H   0  0  0  0  0  0  0  0  0  0  0  0
  119.8698  105.8519  103.2744 H   0  0  0  0  0  0  0  0  0  0  0  0
  1  2  2  0  0  0  0
  1 11  1  0  0  0  0
  2  3  1  0  0  0  0
  2  5  1  0  0  0  0
  3  8  1  0  0  0  0
  3 10  2  0  0  0  0
  4  9  1  0  0  0  0
  4 12  1  0  0  0  0
  4 14  2  0  0  0  0
  5  6  1  0  0  0  0
  6  7  1  0  0  0  0
  7  8  1  0  0  0  0
  8 13  1  0  0  0  0
  9 11  1  0  0  0  0
 10 11  1  0  0  0  0
  1 15  1  0  0  0  0
  5 16  1  0  0  0  0
  5 17  1  0  0  0  0
  6 18  1  0  0  0  0
  6 19  1  0  0  0  0
  7 20  1  0  0  0  0
  7 21  1  0  0  0  0
  8 22  1  0  0  0  0
  9 23  1  0  0  0  0
  9 24  1  0  0  0  0
 12 25  1  0  0  0  0
 12 26  1  0  0  0  0
 13 27  1  0  0  0  0
 13 28  1  0  0  0  0
M  END
> <FRED Chemgauss4 score>
-8.831957

$$$$
C85379802	P133639336
  -OEChem-05122015313D

 29 29  0     1  0  0  0  0  0999 V2000
  118.2922  104.2660  105.3650 C   0  0  0  0  0  0  0  0  0  0  0  0
  122.7950  105.0888  106.7626 C   0  0  0  0  0  0  0  0  0  0  0  0
  125.0156  104.0749  107.1784 C   0  0  0  0  0  0  0  0  0  0  0  0
  125.5261  106.3452  107.4101 C   0  0  0  0  0  0  0  0  0  0  0  0
  123.8176  104.7595  107.8141 C   0  0  1  0  0  0  0  0  0  0  0  0
  124.4582  105.9906  108.4294 C   0  0  2  0  0  0  0  0  0  0  0  0
  124.2738  108.2422  109.2411 C   0  0  0  0  0  0  0  0  0  0  0  0
  119.4051  104.1595  106.3201 C   0  0  0  0  0  0  0  0  0  0  0  0
  120.7610  104.2222  105.6248 C   0  0  0  0  0  0  0  0  0  0  0  0
  117.4125  104.3497  104.6130 N   0  0  0  0  0  0  0  0  0  0  0  0
  121.8372  104.1090  106.5829 N   0  0  0  0  0  0  0  0  0  0  0  0
  123.5525  107.0879  108.7173 N   0  0  0  0  0  0  0  0  0  0  0  0
  122.8689  106.1534  106.1603 O   0  0  0  0  0  0  0  0  0  0  0  0
  125.9590  105.1044  106.8314 O   0  0  0  0  0  0  0  0  0  0  0  0
  125.5106  103.4099  107.8943 H   0  0  0  0  0  0  0  0  0  0  0  0
  124.7722  103.4987  106.2804 H   0  0  0  0  0  0  0  0  0  0  0  0
  125.1387  106.9703  106.5973 H   0  0  0  0  0  0  0  0  0  0  0  0
  126.3823  106.8583  107.8586 H   0  0  0  0  0  0  0  0  0  0  0  0
  123.3236  104.1229  108.5554 H   0  0  0  0  0  0  0  0  0  0  0  0
  124.9545  105.6891  109.3614 H   0  0  0  0  0  0  0  0  0  0  0  0
  125.0197  108.5796  108.5167 H   0  0  0  0  0  0  0  0  0  0  0  0
  124.7819  107.9794  110.1729 H   0  0  0  0  0  0  0  0  0  0  0  0
  123.5797  109.0633  109.4399 H   0  0  0  0  0  0  0  0  0  0  0  0
  119.3239  103.2057  106.8543 H   0  0  0  0  0  0  0  0  0  0  0  0
  119.3249  104.9554  107.0699 H   0  0  0  0  0  0  0  0  0  0  0  0
  120.8446  103.3972  104.9097 H   0  0  0  0  0  0  0  0  0  0  0  0
  120.8702  105.1580  105.0656 H   0  0  0  0  0  0  0  0  0  0  0  0
  121.8921  103.2693  107.1514 H   0  0  0  0  0  0  0  0  0  0  0  0
  122.8612  106.7873  109.4064 H   0  0  0  0  0  0  0  0  0  0  0  0
  1  8  1  0  0  0  0
  1 10  3  0  0  0  0
  2  5  1  0  0  0  0
  2 11  1  0  0  0  0
  2 13  2  0  0  0  0
  3  5  1  0  0  0  0
  3 14  1  0  0  0  0
  4  6  1  0  0  0  0
  4 14  1  0  0  0  0
  5  6  1  0  0  0  0
  6 12  1  0  0  0  0
  7 12  1  0  0  0  0
  8  9  1  0  0  0  0
  9 11  1  0  0  0  0
  3 15  1  0  0  0  0
  3 16  1  0  0  0  0
  4 17  1  0  0  0  0
  4 18  1  0  0  0  0
  5 19  1  0  0  0  0
  6 20  1  0  0  0  0
  7 21  1  0  0  0  0
  7 22  1  0  0  0  0
  7 23  1  0  0  0  0
  8 24  1  0  0  0  0
  8 25  1  0  0  0  0
  9 26  1  0  0  0  0
  9 27  1  0  0  0  0
 11 28  1  0  0  0  0
 12 29  1  0  0  0  0
M  END
> <FRED Chemgauss4 score>
-8.826222

$$$$
C04403143	P05907347
  -OEChem-05122015313D

 30 30  0     1  0  0  0  0  0999 V2000
  125.1527  105.9398  107.3965 C   0  0  0  0  0  0  0  0  0  0  0  0
  126.5768  106.3862  107.1861 C   0  0  2  0  0  0  0  0  0  0  0  0
  126.4442  107.8922  107.2836 C   0  0  2  0  0  0  0  0  0  0  0  0
  125.3701  108.0187  108.3522 C   0  0  1  0  0  0  0  0  0  0  0  0
  121.4407  108.7268  109.0385 C   0  0  0  0  0  0  0  0  0  0  0  0
  124.5681  109.3127  108.3318 C   0  0  2  0  0  0  0  0  0  0  0  0
  122.6759  108.5420  109.9192 C   0  0  1  0  0  0  0  0  0  0  0  0
  123.7703  109.5780  109.6203 C   0  0  2  0  0  0  0  0  0  0  0  0
  124.6613  104.8893  107.0169 O   0  0  0  0  0  0  0  0  0  0  0  0
  124.4850  106.9090  108.1012 O   0  0  0  0  0  0  0  0  0  0  0  0
  127.1259  105.9646  105.9670 O   0  0  0  0  0  0  0  0  0  0  0  0
  126.0017  108.4127  106.0338 O   0  0  0  0  0  0  0  0  0  0  0  0
  120.9198  110.0355  109.2487 O   0  0  0  0  0  0  0  0  0  0  0  0
  123.6465  109.2430  107.2387 O   0  0  0  0  0  0  0  0  0  0  0  0
  122.2804  108.6635  111.2868 O   0  0  0  0  0  0  0  0  0  0  0  0
  123.1560  110.8664  109.4974 O   0  0  0  0  0  0  0  0  0  0  0  0
  127.1782  105.9946  108.0150 H   0  0  0  0  0  0  0  0  0  0  0  0
  127.3846  108.3860  107.5458 H   0  0  0  0  0  0  0  0  0  0  0  0
  125.7993  107.8689  109.3508 H   0  0  0  0  0  0  0  0  0  0  0  0
  121.6954  108.6290  107.9788 H   0  0  0  0  0  0  0  0  0  0  0  0
  120.6531  108.0116  109.2965 H   0  0  0  0  0  0  0  0  0  0  0  0
  125.2325  110.1563  108.1150 H   0  0  0  0  0  0  0  0  0  0  0  0
  123.0693  107.5279  109.7876 H   0  0  0  0  0  0  0  0  0  0  0  0
  124.4525  109.6407  110.4770 H   0  0  0  0  0  0  0  0  0  0  0  0
  127.1069  104.9883  105.9518 H   0  0  0  0  0  0  0  0  0  0  0  0
  125.9316  109.3740  106.1432 H   0  0  0  0  0  0  0  0  0  0  0  0
  120.1404  110.1187  108.6772 H   0  0  0  0  0  0  0  0  0  0  0  0
  123.1518  110.0750  107.2493 H   0  0  0  0  0  0  0  0  0  0  0  0
  121.6258  107.9669  111.4442 H   0  0  0  0  0  0  0  0  0  0  0  0
  123.8792  111.4993  109.3845 H   0  0  0  0  0  0  0  0  0  0  0  0
  1  2  1  0  0  0  0
  1  9  2  0  0  0  0
  1 10  1  0  0  0  0
  2  3  1  0  0  0  0
  2 11  1  0  0  0  0
  3  4  1  0  0  0  0
  3 12  1  0  0  0  0
  4  6  1  0  0  0  0
  4 10  1  0  0  0  0
  5  7  1  0  0  0  0
  5 13  1  0  0  0  0
  6  8  1  0  0  0  0
  6 14  1  0  0  0  0
  7  8  1  0  0  0  0
  7 15  1  0  0  0  0
  8 16  1  0  0  0  0
  2 17  1  0  0  0  0
  3 18  1  0  0  0  0
  4 19  1  0  0  0  0
  5 20  1  0  0  0  0
  5 21  1  0  0  0  0
  6 22  1  0  0  0  0
  7 23  1  0  0  0  0
  8 24  1  0  0  0  0
 11 25  1  0  0  0  0
 12 26  1  0  0  0  0
 13 27  1  0  0  0  0
 14 28  1  0  0  0  0
 15 29  1  0  0  0  0
 16 30  1  0  0  0  0
M  END
> <FRED Chemgauss4 score>
-8.823181

$$$$
C72200928	P112162344
  -OEChem-05122015313D

 27 27  0     1  0  0  0  0  0999 V2000
  124.1071  104.7839  107.0652 C   0  0  0  0  0  0  0  0  0  0  0  0
  125.3495  106.3103  108.4665 C   0  0  0  0  0  0  0  0  0  0  0  0
  123.2992  105.8365  106.6350 C   0  0  0  0  0  0  0  0  0  0  0  0
  124.5416  107.3629  108.0362 C   0  0  0  0  0  0  0  0  0  0  0  0
  123.5165  107.1259  107.1205 C   0  0  0  0  0  0  0  0  0  0  0  0
  125.1322  105.0208  107.9810 C   0  0  0  0  0  0  0  0  0  0  0  0
  122.2145  105.5193  105.6499 C   0  0  0  0  0  0  0  0  0  0  0  0
  124.0314  108.9962  109.8804 C   0  0  0  0  0  0  0  0  0  0  0  0
  124.8281  108.7397  108.5992 C   0  0  2  0  0  0  0  0  0  0  0  0
  124.5751  109.7584  107.6038 N   0  0  0  0  0  0  0  0  0  0  0  0
  122.6282  109.3404  109.5347 N   0  3  0  0  0  0  0  0  0  0  0  0
  122.7724  108.0955  106.7244 O   0  5  0  0  0  0  0  0  0  0  0  0
  121.3299  104.5681  106.2232 O   0  0  0  0  0  0  0  0  0  0  0  0
  126.1289  103.7217  108.5121 Cl  0  0  0  0  0  0  0  0  0  0  0  0
  123.9351  103.7791  106.6850 H   0  0  0  0  0  0  0  0  0  0  0  0
  126.1479  106.4982  109.1811 H   0  0  0  0  0  0  0  0  0  0  0  0
  121.6476  106.4192  105.3861 H   0  0  0  0  0  0  0  0  0  0  0  0
  122.6360  105.1058  104.7268 H   0  0  0  0  0  0  0  0  0  0  0  0
  123.9823  108.1184  110.5329 H   0  0  0  0  0  0  0  0  0  0  0  0
  124.4280  109.8451  110.4468 H   0  0  0  0  0  0  0  0  0  0  0  0
  125.8988  108.8180  108.8272 H   0  0  0  0  0  0  0  0  0  0  0  0
  124.7666  109.5508  106.6409 H   0  0  0  0  0  0  0  0  0  0  0  0
  124.4127  110.7009  107.9081 H   0  0  0  0  0  0  0  0  0  0  0  0
  122.2740  110.0839  110.1447 H   0  0  0  0  0  0  0  0  0  0  0  0
  122.0165  108.5247  109.6401 H   0  0  0  0  0  0  0  0  0  0  0  0
  122.5605  109.6655  108.5651 H   0  0  0  0  0  0  0  0  0  0  0  0
  120.6432  104.3870  105.5605 H   0  0  0  0  0  0  0  0  0  0  0  0
  1  3  2  0  0  0  0
  1  6  1  0  0  0  0
  2  4  1  0  0  0  0
  2  6  2  0  0  0  0
  3  5  1  0  0  0  0
  3  7  1  0  0  0  0
  4  5  2  0  0  0  0
  4  9  1  0  0  0  0
  5 12  1  0  0  0  0
  6 14  1  0  0  0  0
  7 13  1  0  0  0  0
  8  9  1  0  0  0  0
  8 11  1  0  0  0  0
  9 10  1  0  0  0  0
  1 15  1  0  0  0  0
  2 16  1  0  0  0  0
  7 17  1  0  0  0  0
  7 18  1  0  0  0  0
  8 19  1  0  0  0  0
  8 20  1  0  0  0  0
  9 21  1  0  0  0  0
 10 22  1  0  0  0  0
 10 23  1  0  0  0  0
 11 24  1  0  0  0  0
 11 25  1  0  0  0  0
 11 26  1  0  0  0  0
 13 27  1  0  0  0  0
M  CHG  2  11   1  12  -1
M  END
> <FRED Chemgauss4 score>
-8.818127

$$$$
C81988202	P127905425
  -OEChem-05122015313D

 45 46  0     1  0  0  0  0  0999 V2000
  124.9759  104.0889  107.2581 C   0  0  0  0  0  0  0  0  0  0  0  0
  125.5778  105.4844  107.4290 C   0  0  0  0  0  0  0  0  0  0  0  0
  118.4325  104.7963  105.1205 C   0  0  0  0  0  0  0  0  0  0  0  0
  119.6084  104.0031  105.6911 C   0  0  0  0  0  0  0  0  0  0  0  0
  123.5401  104.2969  106.7842 C   0  0  0  0  0  0  0  0  0  0  0  0
  124.4374  106.4629  107.1815 C   0  0  0  0  0  0  0  0  0  0  0  0
  120.0485  106.4901  104.1516 C   0  0  0  0  0  0  0  0  0  0  0  0
  118.7681  106.2855  104.9762 C   0  0  1  0  0  0  0  0  0  0  0  0
  120.9025  104.1881  104.8855 C   0  0  2  0  0  0  0  0  0  0  0  0
  123.5239  105.7116  106.2283 C   0  0  0  0  0  0  0  0  0  0  0  0
  121.2378  105.6736  104.6725 C   0  0  2  0  0  0  0  0  0  0  0  0
  116.3389  106.8815  105.1934 C   0  0  0  0  0  0  0  0  0  0  0  0
  117.9460  108.5163  104.1697 C   0  0  0  0  0  0  0  0  0  0  0  0
  117.5982  107.0404  104.3455 C   0  0  0  0  0  0  0  0  0  0  0  0
  120.7616  103.5271  103.5831 N   0  0  0  0  0  0  0  0  0  0  0  0
  122.0371  107.8214  105.9298 O   0  0  0  0  0  0  0  0  0  0  0  0
  121.1526  105.8786  107.2770 O   0  0  0  0  0  0  0  0  0  0  0  0
  121.9078  106.3960  106.1540 S   0  0  0  0  0  0  0  0  0  0  0  0
  125.5461  103.4856  106.5444 H   0  0  0  0  0  0  0  0  0  0  0  0
  124.9897  103.5581  108.2170 H   0  0  0  0  0  0  0  0  0  0  0  0
  125.9691  105.5981  108.4449 H   0  0  0  0  0  0  0  0  0  0  0  0
  126.4065  105.6555  106.7368 H   0  0  0  0  0  0  0  0  0  0  0  0
  118.1434  104.3803  104.1472 H   0  0  0  0  0  0  0  0  0  0  0  0
  117.5653  104.6742  105.7810 H   0  0  0  0  0  0  0  0  0  0  0  0
  119.7785  104.3160  106.7286 H   0  0  0  0  0  0  0  0  0  0  0  0
  119.3392  102.9403  105.7395 H   0  0  0  0  0  0  0  0  0  0  0  0
  123.3209  103.5842  105.9816 H   0  0  0  0  0  0  0  0  0  0  0  0
  122.8181  104.1333  107.5878 H   0  0  0  0  0  0  0  0  0  0  0  0
  123.9508  106.7668  108.1071 H   0  0  0  0  0  0  0  0  0  0  0  0
  124.8299  107.3545  106.6873 H   0  0  0  0  0  0  0  0  0  0  0  0
  119.8539  106.2037  103.1096 H   0  0  0  0  0  0  0  0  0  0  0  0
  120.3055  107.5567  104.1345 H   0  0  0  0  0  0  0  0  0  0  0  0
  118.9247  106.7021  105.9790 H   0  0  0  0  0  0  0  0  0  0  0  0
  121.7216  103.6936  105.4217 H   0  0  0  0  0  0  0  0  0  0  0  0
  123.9164  105.7384  105.1960 H   0  0  0  0  0  0  0  0  0  0  0  0
  122.0632  105.7658  103.9538 H   0  0  0  0  0  0  0  0  0  0  0  0
  116.4787  107.2972  106.1973 H   0  0  0  0  0  0  0  0  0  0  0  0
  116.0715  105.8248  105.2989 H   0  0  0  0  0  0  0  0  0  0  0  0
  115.4913  107.3964  104.7288 H   0  0  0  0  0  0  0  0  0  0  0  0
  118.1487  108.9961  105.1334 H   0  0  0  0  0  0  0  0  0  0  0  0
  117.1215  109.0545  103.6902 H   0  0  0  0  0  0  0  0  0  0  0  0
  118.8338  108.6345  103.5395 H   0  0  0  0  0  0  0  0  0  0  0  0
  117.4055  106.6102  103.3557 H   0  0  0  0  0  0  0  0  0  0  0  0
  120.2260  102.6910  103.5448 H   0  0  0  0  0  0  0  0  0  0  0  0
  121.3634  103.8204  102.8487 H   0  0  0  0  0  0  0  0  0  0  0  0
  1  2  1  0  0  0  0
  1  5  1  0  0  0  0
  2  6  1  0  0  0  0
  3  4  1  0  0  0  0
  3  8  1  0  0  0  0
  4  9  1  0  0  0  0
  5 10  1  0  0  0  0
  6 10  1  0  0  0  0
  7  8  1  0  0  0  0
  7 11  1  0  0  0  0
  8 14  1  0  0  0  0
  9 11  1  0  0  0  0
  9 15  1  0  0  0  0
 10 18  1  0  0  0  0
 11 18  1  0  0  0  0
 12 14  1  0  0  0  0
 13 14  1  0  0  0  0
 16 18  2  0  0  0  0
 17 18  2  0  0  0  0
  1 19  1  0  0  0  0
  1 20  1  0  0  0  0
  2 21  1  0  0  0  0
  2 22  1  0  0  0  0
  3 23  1  0  0  0  0
  3 24  1  0  0  0  0
  4 25  1  0  0  0  0
  4 26  1  0  0  0  0
  5 27  1  0  0  0  0
  5 28  1  0  0  0  0
  6 29  1  0  0  0  0
  6 30  1  0  0  0  0
  7 31  1  0  0  0  0
  7 32  1  0  0  0  0
  8 33  1  0  0  0  0
  9 34  1  0  0  0  0
 10 35  1  0  0  0  0
 11 36  1  0  0  0  0
 12 37  1  0  0  0  0
 12 38  1  0  0  0  0
 12 39  1  0  0  0  0
 13 40  1  0  0  0  0
 13 41  1  0  0  0  0
 13 42  1  0  0  0  0
 14 43  1  0  0  0  0
 15 44  1  0  0  0  0
 15 45  1  0  0  0  0
M  END
> <FRED Chemgauss4 score>
-8.817208

$$$$
C44170752	P130288104
  -OEChem-05122015313D

 35 36  0     1  0  0  0  0  0999 V2000
  123.7095  112.4551  112.4938 C   0  0  0  0  0  0  0  0  0  0  0  0
  123.8342  111.3465  112.0506 C   0  0  0  0  0  0  0  0  0  0  0  0
  122.6692  104.7897  106.6743 C   0  0  0  0  0  0  0  0  0  0  0  0
  123.0896  105.8996  107.2781 C   0  0  0  0  0  0  0  0  0  0  0  0
  121.2036  104.6709  106.4582 C   0  0  0  0  0  0  0  0  0  0  0  0
  120.8335  106.7537  107.4677 C   0  0  0  0  0  0  0  0  0  0  0  0
  124.6261  108.8379  109.5697 C   0  0  1  0  0  0  0  0  0  0  0  0
  123.6148  107.7113  109.5496 C   0  0  2  0  0  0  0  0  0  0  0  0
  124.8858  109.0599  108.0859 C   0  0  1  0  0  0  0  0  0  0  0  0
  122.7743  108.0638  108.3345 C   0  0  2  0  0  0  0  0  0  0  0  0
  123.9858  109.9941  111.5128 C   0  0  0  0  0  0  0  0  0  0  0  0
  125.9775  108.1589  107.5244 C   0  0  0  0  0  0  0  0  0  0  0  0
  120.3756  105.6070  106.8414 N   0  0  0  0  0  0  0  0  0  0  0  0
  122.2263  106.9036  107.6916 N   0  0  0  0  0  0  0  0  0  0  0  0
  120.7280  103.5392  105.8375 N   0  0  0  0  0  0  0  0  0  0  0  0
  120.0383  107.6257  107.8227 O   0  0  0  0  0  0  0  0  0  0  0  0
  123.6477  108.7387  107.4146 O   0  0  0  0  0  0  0  0  0  0  0  0
  122.8538  107.6523  110.7385 O   0  0  0  0  0  0  0  0  0  0  0  0
  125.8259  108.0855  106.1177 O   0  0  0  0  0  0  0  0  0  0  0  0
  124.0337  110.0255  110.0950 O   0  0  0  0  0  0  0  0  0  0  0  0
  123.5989  113.4387  112.8870 H   0  0  0  0  0  0  0  0  0  0  0  0
  123.3377  104.0037  106.3498 H   0  0  0  0  0  0  0  0  0  0  0  0
  124.1427  106.0671  107.4750 H   0  0  0  0  0  0  0  0  0  0  0  0
  125.5196  108.6169  110.1594 H   0  0  0  0  0  0  0  0  0  0  0  0
  124.1268  106.7514  109.4157 H   0  0  0  0  0  0  0  0  0  0  0  0
  125.1218  110.1060  107.8617 H   0  0  0  0  0  0  0  0  0  0  0  0
  121.9387  108.7294  108.5805 H   0  0  0  0  0  0  0  0  0  0  0  0
  123.1563  109.3488  111.8178 H   0  0  0  0  0  0  0  0  0  0  0  0
  124.9149  109.5397  111.8697 H   0  0  0  0  0  0  0  0  0  0  0  0
  125.8906  107.1569  107.9471 H   0  0  0  0  0  0  0  0  0  0  0  0
  126.9604  108.5705  107.7582 H   0  0  0  0  0  0  0  0  0  0  0  0
  121.3838  102.8495  105.5600 H   0  0  0  0  0  0  0  0  0  0  0  0
  119.7500  103.4622  105.6945 H   0  0  0  0  0  0  0  0  0  0  0  0
  122.2328  106.9085  110.6468 H   0  0  0  0  0  0  0  0  0  0  0  0
  126.5325  107.5065  105.7850 H   0  0  0  0  0  0  0  0  0  0  0  0
  1  2  3  0  0  0  0
  2 11  1  0  0  0  0
  3  4  2  0  0  0  0
  3  5  1  0  0  0  0
  4 14  1  0  0  0  0
  5 13  2  0  0  0  0
  5 15  1  0  0  0  0
  6 13  1  0  0  0  0
  6 14  1  0  0  0  0
  6 16  2  0  0  0  0
  7  8  1  0  0  0  0
  7  9  1  0  0  0  0
  7 20  1  0  0  0  0
  8 10  1  0  0  0  0
  8 18  1  0  0  0  0
  9 12  1  0  0  0  0
  9 17  1  0  0  0  0
 10 14  1  0  0  0  0
 10 17  1  0  0  0  0
 11 20  1  0  0  0  0
 12 19  1  0  0  0  0
  1 21  1  0  0  0  0
  3 22  1  0  0  0  0
  4 23  1  0  0  0  0
  7 24  1  0  0  0  0
  8 25  1  0  0  0  0
  9 26  1  0  0  0  0
 10 27  1  0  0  0  0
 11 28  1  0  0  0  0
 11 29  1  0  0  0  0
 12 30  1  0  0  0  0
 12 31  1  0  0  0  0
 15 32  1  0  0  0  0
 15 33  1  0  0  0  0
 18 34  1  0  0  0  0
 19 35  1  0  0  0  0
M  END
> <FRED Chemgauss4 score>
-8.810045

$$$$
C90312751	P141186425
  -OEChem-05122015313D

 36 37  0     1  0  0  0  0  0999 V2000
  122.9090  105.1009  107.2957 C   0  0  0  0  0  0  0  0  0  0  0  0
  123.8693  105.9375  106.7776 C   0  0  0  0  0  0  0  0  0  0  0  0
  124.8409  104.0657  107.0655 C   0  0  0  0  0  0  0  0  0  0  0  0
  125.9636  109.3693  110.0661 C   0  0  0  0  0  0  0  0  0  0  0  0
  125.8648  109.0925  108.5529 C   0  0  2  0  0  0  0  0  0  0  0  0
  124.5815  108.2786  108.8438 C   0  0  1  0  0  0  0  0  0  0  0  0
  124.4356  109.1241  110.1403 C   0  0  2  0  0  0  0  0  0  0  0  0
  125.8088  102.9550  107.1273 C   0  0  0  0  0  0  0  0  0  0  0  0
  122.6784  112.2014  111.1474 C   0  0  0  0  0  0  0  0  0  0  0  0
  123.5528  110.9740  111.2900 C   0  0  0  0  0  0  0  0  0  0  0  0
  125.0695  105.2870  106.6364 N   0  0  0  0  0  0  0  0  0  0  0  0
  123.5462  103.9053  107.4745 N   0  0  0  0  0  0  0  0  0  0  0  0
  126.9325  108.1814  108.1639 N   0  0  0  0  0  0  0  0  0  0  0  0
  123.4768  108.3799  107.8349 N   0  0  0  0  0  0  0  0  0  0  0  0
  124.8872  108.0873  105.7041 O   0  0  0  0  0  0  0  0  0  0  0  0
  122.3992  107.7310  105.6176 O   0  0  0  0  0  0  0  0  0  0  0  0
  123.6101  110.3023  110.0472 O   0  0  0  0  0  0  0  0  0  0  0  0
  123.6592  107.6345  106.3294 S   0  0  0  0  0  0  0  0  0  0  0  0
  121.8668  105.2380  107.5460 H   0  0  0  0  0  0  0  0  0  0  0  0
  126.5417  108.6486  110.6578 H   0  0  0  0  0  0  0  0  0  0  0  0
  126.2915  110.3792  110.3302 H   0  0  0  0  0  0  0  0  0  0  0  0
  125.7395  109.9786  107.9227 H   0  0  0  0  0  0  0  0  0  0  0  0
  124.7555  107.2183  109.0775 H   0  0  0  0  0  0  0  0  0  0  0  0
  124.1344  108.5343  111.0135 H   0  0  0  0  0  0  0  0  0  0  0  0
  126.3363  102.9392  108.0957 H   0  0  0  0  0  0  0  0  0  0  0  0
  125.3226  101.9726  106.9960 H   0  0  0  0  0  0  0  0  0  0  0  0
  126.5718  103.0245  106.3324 H   0  0  0  0  0  0  0  0  0  0  0  0
  123.0865  112.8864  110.3991 H   0  0  0  0  0  0  0  0  0  0  0  0
  121.6625  111.9194  110.8519 H   0  0  0  0  0  0  0  0  0  0  0  0
  122.5966  112.7300  112.1029 H   0  0  0  0  0  0  0  0  0  0  0  0
  123.1391  110.2931  112.0399 H   0  0  0  0  0  0  0  0  0  0  0  0
  124.5677  111.2576  111.5845 H   0  0  0  0  0  0  0  0  0  0  0  0
  123.1334  103.0585  107.8428 H   0  0  0  0  0  0  0  0  0  0  0  0
  127.8624  108.3863  108.4652 H   0  0  0  0  0  0  0  0  0  0  0  0
  126.7427  107.5072  107.4517 H   0  0  0  0  0  0  0  0  0  0  0  0
  122.5558  108.5309  108.2330 H   0  0  0  0  0  0  0  0  0  0  0  0
  1  2  2  0  0  0  0
  1 12  1  0  0  0  0
  2 11  1  0  0  0  0
  2 18  1  0  0  0  0
  3  8  1  0  0  0  0
  3 11  2  0  0  0  0
  3 12  1  0  0  0  0
  4  5  1  0  0  0  0
  4  7  1  0  0  0  0
  5  6  1  0  0  0  0
  5 13  1  0  0  0  0
  6  7  1  0  0  0  0
  6 14  1  0  0  0  0
  7 17  1  0  0  0  0
  9 10  1  0  0  0  0
 10 17  1  0  0  0  0
 14 18  1  0  0  0  0
 15 18  2  0  0  0  0
 16 18  2  0  0  0  0
  1 19  1  0  0  0  0
  4 20  1  0  0  0  0
  4 21  1  0  0  0  0
  5 22  1  0  0  0  0
  6 23  1  0  0  0  0
  7 24  1  0  0  0  0
  8 25  1  0  0  0  0
  8 26  1  0  0  0  0
  8 27  1  0  0  0  0
  9 28  1  0  0  0  0
  9 29  1  0  0  0  0
  9 30  1  0  0  0  0
 10 31  1  0  0  0  0
 10 32  1  0  0  0  0
 12 33  1  0  0  0  0
 13 34  1  0  0  0  0
 13 35  1  0  0  0  0
 14 36  1  0  0  0  0
M  END
> <FRED Chemgauss4 score>
-8.808767

$$$$
C87601468	P137040424
  -OEChem-05122015313D

 22 23  0     1  0  0  0  0  0999 V2000
  125.0502  106.9703  107.9774 C   0  0  0  0  0  0  0  0  0  0  0  0
  124.4549  107.3493  106.8006 C   0  0  0  0  0  0  0  0  0  0  0  0
  123.3694  106.6194  106.1106 C   0  0  0  0  0  0  0  0  0  0  0  0
  121.8945  105.1692  105.6424 C   0  0  0  0  0  0  0  0  0  0  0  0
  119.6334  104.1830  105.0840 C   0  0  0  0  0  0  0  0  0  0  0  0
  121.0048  103.9497  105.7128 C   0  0  2  0  0  0  0  0  0  0  0  0
  122.8055  107.0193  104.9541 N   0  5  0  0  0  0  0  0  0  0  0  0
  125.0164  108.5140  106.3559 N   0  0  0  0  0  0  0  0  0  0  0  0
  122.8243  105.4794  106.5558 N   0  0  0  0  0  0  0  0  0  0  0  0
  121.8503  106.0812  104.6513 N   0  0  0  0  0  0  0  0  0  0  0  0
  125.9524  108.8746  107.2271 N   0  0  0  0  0  0  0  0  0  0  0  0
  125.9712  107.9476  108.1985 N   0  0  0  0  0  0  0  0  0  0  0  0
  120.7801  103.4705  107.1114 N   0  3  0  0  0  0  0  0  0  0  0  0
  124.9137  106.1355  108.6499 H   0  0  0  0  0  0  0  0  0  0  0  0
  119.1005  105.0160  105.5560 H   0  0  0  0  0  0  0  0  0  0  0  0
  119.7279  104.4115  104.0165 H   0  0  0  0  0  0  0  0  0  0  0  0
  119.0049  103.2904  105.1794 H   0  0  0  0  0  0  0  0  0  0  0  0
  121.4865  103.1083  105.2010 H   0  0  0  0  0  0  0  0  0  0  0  0
  126.6265  108.0481  108.9642 H   0  0  0  0  0  0  0  0  0  0  0  0
  120.1287  102.6838  107.1169 H   0  0  0  0  0  0  0  0  0  0  0  0
  120.3898  104.2205  107.6847 H   0  0  0  0  0  0  0  0  0  0  0  0
  121.6616  103.1666  107.5285 H   0  0  0  0  0  0  0  0  0  0  0  0
  1  2  2  0  0  0  0
  1 12  1  0  0  0  0
  2  3  1  0  0  0  0
  2  8  1  0  0  0  0
  3  7  1  0  0  0  0
  3  9  2  0  0  0  0
  4  6  1  0  0  0  0
  4  9  1  0  0  0  0
  4 10  2  0  0  0  0
  5  6  1  0  0  0  0
  6 13  1  0  0  0  0
  7 10  1  0  0  0  0
  8 11  2  0  0  0  0
 11 12  1  0  0  0  0
  1 14  1  0  0  0  0
  5 15  1  0  0  0  0
  5 16  1  0  0  0  0
  5 17  1  0  0  0  0
  6 18  1  0  0  0  0
 12 19  1  0  0  0  0
 13 20  1  0  0  0  0
 13 21  1  0  0  0  0
 13 22  1  0  0  0  0
M  CHG  2   7  -1  13   1
M  END
> <FRED Chemgauss4 score>
-8.805536

$$$$
C40605671	P61647454
  -OEChem-05122015313D

 24 24  0     0  0  0  0  0  0999 V2000
  126.6872  107.9310  107.5621 C   0  0  0  0  0  0  0  0  0  0  0  0
  126.1796  106.6775  107.8102 C   0  0  0  0  0  0  0  0  0  0  0  0
  125.2153  107.6055  106.0594 C   0  0  0  0  0  0  0  0  0  0  0  0
  123.0446  105.6112  106.0882 C   0  0  0  0  0  0  0  0  0  0  0  0
  124.4072  105.2952  106.6668 C   0  0  0  0  0  0  0  0  0  0  0  0
  119.8641  103.6899  106.7764 C   0  0  0  0  0  0  0  0  0  0  0  0
  120.6979  104.7880  106.1380 C   0  0  0  0  0  0  0  0  0  0  0  0
  126.0826  108.5035  106.4711 N   0  0  0  0  0  0  0  0  0  0  0  0
  125.2375  106.4831  106.8398 N   0  0  0  0  0  0  0  0  0  0  0  0
  118.4871  103.7451  106.3645 N   0  0  0  0  0  0  0  0  0  0  0  0
  122.0842  104.7168  106.5381 N   0  0  0  0  0  0  0  0  0  0  0  0
  122.8363  106.5443  105.3175 O   0  0  0  0  0  0  0  0  0  0  0  0
  127.4573  108.4504  108.1135 H   0  0  0  0  0  0  0  0  0  0  0  0
  126.3994  105.9356  108.5652 H   0  0  0  0  0  0  0  0  0  0  0  0
  124.5514  107.7107  105.2122 H   0  0  0  0  0  0  0  0  0  0  0  0
  124.9387  104.6015  106.0057 H   0  0  0  0  0  0  0  0  0  0  0  0
  124.2935  104.8153  107.6454 H   0  0  0  0  0  0  0  0  0  0  0  0
  119.8817  103.7589  107.8687 H   0  0  0  0  0  0  0  0  0  0  0  0
  120.2478  102.7078  106.4830 H   0  0  0  0  0  0  0  0  0  0  0  0
  120.6731  104.6972  105.0477 H   0  0  0  0  0  0  0  0  0  0  0  0
  120.3269  105.7809  106.4121 H   0  0  0  0  0  0  0  0  0  0  0  0
  118.0395  104.6423  106.2664 H   0  0  0  0  0  0  0  0  0  0  0  0
  117.9364  102.9015  106.3779 H   0  0  0  0  0  0  0  0  0  0  0  0
  122.3618  103.9545  107.1493 H   0  0  0  0  0  0  0  0  0  0  0  0
  1  2  2  0  0  0  0
  1  8  1  0  0  0  0
  2  9  1  0  0  0  0
  3  8  2  0  0  0  0
  3  9  1  0  0  0  0
  4  5  1  0  0  0  0
  4 11  1  0  0  0  0
  4 12  2  0  0  0  0
  5  9  1  0  0  0  0
  6  7  1  0  0  0  0
  6 10  1  0  0  0  0
  7 11  1  0  0  0  0
  1 13  1  0  0  0  0
  2 14  1  0  0  0  0
  3 15  1  0  0  0  0
  5 16  1  0  0  0  0
  5 17  1  0  0  0  0
  6 18  1  0  0  0  0
  6 19  1  0  0  0  0
  7 20  1  0  0  0  0
  7 21  1  0  0  0  0
 10 22  1  0  0  0  0
 10 23  1  0  0  0  0
 11 24  1  0  0  0  0
M  END
> <FRED Chemgauss4 score>
-8.798795

$$$$
C05131842	P07583908
  -OEChem-05122015313D

 29 29  0     1  0  0  0  0  0999 V2000
  122.8177  110.4532  110.7475 C   0  0  0  0  0  0  0  0  0  0  0  0
  124.3772  109.0061  109.7275 C   0  0  1  0  0  0  0  0  0  0  0  0
  123.2734  108.1709  110.3941 C   0  0  1  0  0  0  0  0  0  0  0  0
  124.4184  106.1866  106.3557 C   0  0  0  0  0  0  0  0  0  0  0  0
  124.7012  108.6468  108.2839 C   0  0  2  0  0  0  0  0  0  0  0  0
  125.7408  106.8520  106.7350 C   0  0  1  0  0  0  0  0  0  0  0  0
  125.6991  107.4854  108.1341 C   0  0  1  0  0  0  0  0  0  0  0  0
  123.8912  110.3666  109.8481 N   0  0  0  0  0  0  0  0  0  0  0  0
  122.4953  109.1416  111.1256 N   0  0  0  0  0  0  0  0  0  0  0  0
  122.2712  111.4776  111.1326 O   0  0  0  0  0  0  0  0  0  0  0  0
  122.4277  107.5424  109.4469 O   0  0  0  0  0  0  0  0  0  0  0  0
  123.5178  107.1879  105.8925 O   0  0  0  0  0  0  0  0  0  0  0  0
  125.2616  109.8049  107.6563 O   0  0  0  0  0  0  0  0  0  0  0  0
  126.7721  105.8637  106.7016 O   0  0  0  0  0  0  0  0  0  0  0  0
  127.0054  107.9881  108.4398 O   0  0  0  0  0  0  0  0  0  0  0  0
  125.2875  108.9635  110.3377 H   0  0  0  0  0  0  0  0  0  0  0  0
  123.6740  107.4178  111.0790 H   0  0  0  0  0  0  0  0  0  0  0  0
  124.5611  105.4596  105.5503 H   0  0  0  0  0  0  0  0  0  0  0  0
  123.9539  105.6965  107.2173 H   0  0  0  0  0  0  0  0  0  0  0  0
  123.7756  108.4256  107.7410 H   0  0  0  0  0  0  0  0  0  0  0  0
  125.9967  107.6087  105.9850 H   0  0  0  0  0  0  0  0  0  0  0  0
  125.4842  106.7086  108.8783 H   0  0  0  0  0  0  0  0  0  0  0  0
  124.2792  111.1583  109.3445 H   0  0  0  0  0  0  0  0  0  0  0  0
  121.8008  108.9045  111.8267 H   0  0  0  0  0  0  0  0  0  0  0  0
  121.7637  107.0392  109.9480 H   0  0  0  0  0  0  0  0  0  0  0  0
  122.6927  106.7331  105.6614 H   0  0  0  0  0  0  0  0  0  0  0  0
  125.4574  109.5491  106.7435 H   0  0  0  0  0  0  0  0  0  0  0  0
  126.7942  105.5233  105.7949 H   0  0  0  0  0  0  0  0  0  0  0  0
  126.9626  108.3112  109.3509 H   0  0  0  0  0  0  0  0  0  0  0  0
  1  8  1  0  0  0  0
  1  9  1  0  0  0  0
  1 10  2  0  0  0  0
  2  3  1  0  0  0  0
  2  5  1  0  0  0  0
  2  8  1  0  0  0  0
  3  9  1  0  0  0  0
  3 11  1  0  0  0  0
  4  6  1  0  0  0  0
  4 12  1  0  0  0  0
  5  7  1  0  0  0  0
  5 13  1  0  0  0  0
  6  7  1  0  0  0  0
  6 14  1  0  0  0  0
  7 15  1  0  0  0  0
  2 16  1  0  0  0  0
  3 17  1  0  0  0  0
  4 18  1  0  0  0  0
  4 19  1  0  0  0  0
  5 20  1  0  0  0  0
  6 21  1  0  0  0  0
  7 22  1  0  0  0  0
  8 23  1  0  0  0  0
  9 24  1  0  0  0  0
 11 25  1  0  0  0  0
 12 26  1  0  0  0  0
 13 27  1  0  0  0  0
 14 28  1  0  0  0  0
 15 29  1  0  0  0  0
M  END
> <FRED Chemgauss4 score>
-8.796896

$$$$
C86062192	P134790942
  -OEChem-05122015313D

 23 23  0     1  0  0  0  0  0999 V2000
  124.3811  108.8464  107.2625 C   0  0  0  0  0  0  0  0  0  0  0  0
  125.2718  107.3032  108.3499 C   0  0  0  0  0  0  0  0  0  0  0  0
  123.1995  104.7193  108.4960 C   0  0  0  0  0  0  0  0  0  0  0  0
  124.2475  104.2193  107.8227 C   0  0  0  0  0  0  0  0  0  0  0  0
  124.1033  103.0205  106.9301 C   0  0  0  0  0  0  0  0  0  0  0  0
  125.6323  104.8142  107.9608 C   0  0  0  0  0  0  0  0  0  0  0  0
  125.7282  105.9879  108.9616 C   0  0  1  0  0  0  0  0  0  0  0  0
  124.3808  107.4882  107.4037 N   0  0  0  0  0  0  0  0  0  0  0  0
  125.2163  109.5134  108.0619 N   0  0  0  0  0  0  0  0  0  0  0  0
  125.7737  108.5033  108.7469 N   0  0  0  0  0  0  0  0  0  0  0  0
  127.0889  106.0278  109.4752 N   0  0  0  0  0  0  0  0  0  0  0  0
  123.7530  109.3665  106.5548 H   0  0  0  0  0  0  0  0  0  0  0  0
  123.3061  105.5784  109.1498 H   0  0  0  0  0  0  0  0  0  0  0  0
  122.2099  104.2837  108.4061 H   0  0  0  0  0  0  0  0  0  0  0  0
  123.8516  103.3247  105.9097 H   0  0  0  0  0  0  0  0  0  0  0  0
  125.0386  102.4520  106.9038 H   0  0  0  0  0  0  0  0  0  0  0  0
  123.3153  102.3429  107.2760 H   0  0  0  0  0  0  0  0  0  0  0  0
  125.9553  105.1563  106.9676 H   0  0  0  0  0  0  0  0  0  0  0  0
  126.3523  104.0314  108.2376 H   0  0  0  0  0  0  0  0  0  0  0  0
  125.0869  105.7577  109.8216 H   0  0  0  0  0  0  0  0  0  0  0  0
  126.4719  108.7092  109.4519 H   0  0  0  0  0  0  0  0  0  0  0  0
  127.5846  105.1655  109.5732 H   0  0  0  0  0  0  0  0  0  0  0  0
  127.4107  106.8732  109.9006 H   0  0  0  0  0  0  0  0  0  0  0  0
  1  8  1  0  0  0  0
  1  9  2  0  0  0  0
  2  7  1  0  0  0  0
  2  8  2  0  0  0  0
  2 10  1  0  0  0  0
  3  4  2  0  0  0  0
  4  5  1  0  0  0  0
  4  6  1  0  0  0  0
  6  7  1  0  0  0  0
  7 11  1  0  0  0  0
  9 10  1  0  0  0  0
  1 12  1  0  0  0  0
  3 13  1  0  0  0  0
  3 14  1  0  0  0  0
  5 15  1  0  0  0  0
  5 16  1  0  0  0  0
  5 17  1  0  0  0  0
  6 18  1  0  0  0  0
  6 19  1  0  0  0  0
  7 20  1  0  0  0  0
 10 21  1  0  0  0  0
 11 22  1  0  0  0  0
 11 23  1  0  0  0  0
M  END
> <FRED Chemgauss4 score>
-8.796336

$$$$
C87047543	P136261645
  -OEChem-05122015313D

 33 33  0     1  0  0  0  0  0999 V2000
  118.8156  106.6164  106.2921 C   0  0  0  0  0  0  0  0  0  0  0  0
  119.4755  105.6633  105.9783 C   0  0  0  0  0  0  0  0  0  0  0  0
  122.4206  105.4928  106.3825 C   0  0  0  0  0  0  0  0  0  0  0  0
  124.4357  104.0780  106.8477 C   0  0  0  0  0  0  0  0  0  0  0  0
  125.8343  104.5503  107.1607 C   0  0  0  0  0  0  0  0  0  0  0  0
  123.5887  105.2598  107.2838 C   0  0  1  0  0  0  0  0  0  0  0  0
  125.7376  106.0266  106.8258 C   0  0  2  0  0  0  0  0  0  0  0  0
  119.4860  103.2082  105.8424 C   0  0  0  0  0  0  0  0  0  0  0  0
  120.6645  104.5873  104.1101 C   0  0  0  0  0  0  0  0  0  0  0  0
  126.7683  106.8789  107.5397 C   0  0  0  0  0  0  0  0  0  0  0  0
  120.2868  104.4909  105.5916 C   0  0  0  0  0  0  0  0  0  0  0  0
  126.6057  106.7681  108.9540 N   0  0  0  0  0  0  0  0  0  0  0  0
  121.4923  104.4692  106.3886 N   0  0  0  0  0  0  0  0  0  0  0  0
  122.3599  106.5264  105.7271 O   0  0  0  0  0  0  0  0  0  0  0  0
  124.4156  106.4274  107.2198 O   0  0  0  0  0  0  0  0  0  0  0  0
  118.2305  107.4615  106.5705 H   0  0  0  0  0  0  0  0  0  0  0  0
  124.3342  103.8846  105.7726 H   0  0  0  0  0  0  0  0  0  0  0  0
  124.1689  103.1562  107.3733 H   0  0  0  0  0  0  0  0  0  0  0  0
  126.0406  104.4018  108.2276 H   0  0  0  0  0  0  0  0  0  0  0  0
  126.6063  104.0315  106.5857 H   0  0  0  0  0  0  0  0  0  0  0  0
  123.2334  105.1469  108.3187 H   0  0  0  0  0  0  0  0  0  0  0  0
  125.8166  106.1783  105.7420 H   0  0  0  0  0  0  0  0  0  0  0  0
  120.0637  102.3189  105.5642 H   0  0  0  0  0  0  0  0  0  0  0  0
  119.2209  103.1049  106.9019 H   0  0  0  0  0  0  0  0  0  0  0  0
  118.5530  103.1979  105.2669 H   0  0  0  0  0  0  0  0  0  0  0  0
  121.2684  103.7291  103.7925 H   0  0  0  0  0  0  0  0  0  0  0  0
  119.7723  104.6161  103.4724 H   0  0  0  0  0  0  0  0  0  0  0  0
  121.2385  105.4987  103.9062 H   0  0  0  0  0  0  0  0  0  0  0  0
  126.6366  107.9171  107.2511 H   0  0  0  0  0  0  0  0  0  0  0  0
  127.7650  106.5418  107.2736 H   0  0  0  0  0  0  0  0  0  0  0  0
  125.6759  106.6915  109.3474 H   0  0  0  0  0  0  0  0  0  0  0  0
  127.3873  106.9693  109.5657 H   0  0  0  0  0  0  0  0  0  0  0  0
  121.6653  103.6631  106.9816 H   0  0  0  0  0  0  0  0  0  0  0  0
  1  2  3  0  0  0  0
  2 11  1  0  0  0  0
  3  6  1  0  0  0  0
  3 13  1  0  0  0  0
  3 14  2  0  0  0  0
  4  5  1  0  0  0  0
  4  6  1  0  0  0  0
  5  7  1  0  0  0  0
  6 15  1  0  0  0  0
  7 10  1  0  0  0  0
  7 15  1  0  0  0  0
  8 11  1  0  0  0  0
  9 11  1  0  0  0  0
 10 12  1  0  0  0  0
 11 13  1  0  0  0  0
  1 16  1  0  0  0  0
  4 17  1  0  0  0  0
  4 18  1  0  0  0  0
  5 19  1  0  0  0  0
  5 20  1  0  0  0  0
  6 21  1  0  0  0  0
  7 22  1  0  0  0  0
  8 23  1  0  0  0  0
  8 24  1  0  0  0  0
  8 25  1  0  0  0  0
  9 26  1  0  0  0  0
  9 27  1  0  0  0  0
  9 28  1  0  0  0  0
 10 29  1  0  0  0  0
 10 30  1  0  0  0  0
 12 31  1  0  0  0  0
 12 32  1  0  0  0  0
 13 33  1  0  0  0  0
M  END
> <FRED Chemgauss4 score>
-8.789991

$$$$
C70947713	P109519860
  -OEChem-05122015313D

 26 27  0     1  0  0  0  0  0999 V2000
  125.5249  105.0171  108.2895 C   0  0  0  0  0  0  0  0  0  0  0  0
  124.4152  105.5248  107.7459 C   0  0  0  0  0  0  0  0  0  0  0  0
  126.3288  105.8511  109.1919 C   0  0  0  0  0  0  0  0  0  0  0  0
  124.6189  107.5279  108.7360 C   0  0  0  0  0  0  0  0  0  0  0  0
  125.7939  103.6185  107.8777 C   0  0  0  0  0  0  0  0  0  0  0  0
  123.7424  104.5275  106.8644 C   0  0  0  0  0  0  0  0  0  0  0  0
  124.8223  103.4483  106.7035 C   0  0  0  0  0  0  0  0  0  0  0  0
  124.0142  109.1407  110.5275 C   0  0  0  0  0  0  0  0  0  0  0  0
  124.1856  108.9334  109.0379 C   0  0  1  0  0  0  0  0  0  0  0  0
  123.9142  106.7811  107.9386 N   0  0  0  0  0  0  0  0  0  0  0  0
  125.7888  107.1191  109.3609 N   0  0  0  0  0  0  0  0  0  0  0  0
  125.2234  109.7576  108.4902 N   0  0  0  0  0  0  0  0  0  0  0  0
  127.3555  105.4420  109.7201 O   0  0  0  0  0  0  0  0  0  0  0  0
  126.8286  103.4625  107.5595 H   0  0  0  0  0  0  0  0  0  0  0  0
  125.5595  102.9245  108.6915 H   0  0  0  0  0  0  0  0  0  0  0  0
  122.8486  104.1244  107.3522 H   0  0  0  0  0  0  0  0  0  0  0  0
  123.4613  104.9479  105.8942 H   0  0  0  0  0  0  0  0  0  0  0  0
  125.3583  103.6032  105.7578 H   0  0  0  0  0  0  0  0  0  0  0  0
  124.3936  102.4413  106.6685 H   0  0  0  0  0  0  0  0  0  0  0  0
  124.9409  108.9326  111.0748 H   0  0  0  0  0  0  0  0  0  0  0  0
  123.7286  110.1760  110.7421 H   0  0  0  0  0  0  0  0  0  0  0  0
  123.2386  108.4794  110.9277 H   0  0  0  0  0  0  0  0  0  0  0  0
  123.2611  109.1415  108.4963 H   0  0  0  0  0  0  0  0  0  0  0  0
  126.2786  107.7673  109.9712 H   0  0  0  0  0  0  0  0  0  0  0  0
  125.3194  110.7107  108.8093 H   0  0  0  0  0  0  0  0  0  0  0  0
  125.7103  109.4542  107.6593 H   0  0  0  0  0  0  0  0  0  0  0  0
  1  2  2  0  0  0  0
  1  3  1  0  0  0  0
  1  5  1  0  0  0  0
  2  6  1  0  0  0  0
  2 10  1  0  0  0  0
  3 11  1  0  0  0  0
  3 13  2  0  0  0  0
  4  9  1  0  0  0  0
  4 10  2  0  0  0  0
  4 11  1  0  0  0  0
  5  7  1  0  0  0  0
  6  7  1  0  0  0  0
  8  9  1  0  0  0  0
  9 12  1  0  0  0  0
  5 14  1  0  0  0  0
  5 15  1  0  0  0  0
  6 16  1  0  0  0  0
  6 17  1  0  0  0  0
  7 18  1  0  0  0  0
  7 19  1  0  0  0  0
  8 20  1  0  0  0  0
  8 21  1  0  0  0  0
  8 22  1  0  0  0  0
  9 23  1  0  0  0  0
 11 24  1  0  0  0  0
 12 25  1  0  0  0  0
 12 26  1  0  0  0  0
M  END
> <FRED Chemgauss4 score>
-8.787955

$$$$
C00143779	P09002034
  -OEChem-05122015313D

 33 34  0     0  0  0  0  0  0999 V2000
  123.2777  105.0184  106.0812 C   0  0  0  0  0  0  0  0  0  0  0  0
  123.4004  107.1452  107.8824 C   0  0  0  0  0  0  0  0  0  0  0  0
  122.2547  105.9660  106.1121 C   0  0  0  0  0  0  0  0  0  0  0  0
  124.3621  105.1341  106.9510 C   0  0  0  0  0  0  0  0  0  0  0  0
  122.3160  107.0294  107.0126 C   0  0  0  0  0  0  0  0  0  0  0  0
  124.4234  106.1975  107.8515 C   0  0  0  0  0  0  0  0  0  0  0  0
  117.4967  105.8938  105.0210 C   0  0  0  0  0  0  0  0  0  0  0  0
  118.3423  103.5176  105.0594 C   0  0  0  0  0  0  0  0  0  0  0  0
  118.4773  106.2355  106.1380 C   0  0  0  0  0  0  0  0  0  0  0  0
  119.3067  103.9041  106.1759 C   0  0  0  0  0  0  0  0  0  0  0  0
  117.0941  104.4123  105.0655 C   0  0  0  0  0  0  0  0  0  0  0  0
  116.1718  104.0652  103.8992 C   0  0  0  0  0  0  0  0  0  0  0  0
  119.6683  105.3447  106.0784 N   0  0  0  0  0  0  0  0  0  0  0  0
  120.6140  107.0654  104.4172 O   0  0  0  0  0  0  0  0  0  0  0  0
  121.1987  104.6303  104.1410 O   0  0  0  0  0  0  0  0  0  0  0  0
  120.9099  105.7685  104.9860 S   0  0  0  0  0  0  0  0  0  0  0  0
  125.5976  103.9283  106.8648 Cl  0  0  0  0  0  0  0  0  0  0  0  0
  121.0743  108.2270  107.0924 Cl  0  0  0  0  0  0  0  0  0  0  0  0
  125.7401  106.3954  108.9543 Cl  0  0  0  0  0  0  0  0  0  0  0  0
  123.2270  104.1910  105.3768 H   0  0  0  0  0  0  0  0  0  0  0  0
  123.4472  107.9747  108.5851 H   0  0  0  0  0  0  0  0  0  0  0  0
  116.6065  106.5270  105.1113 H   0  0  0  0  0  0  0  0  0  0  0  0
  117.9572  106.1226  104.0512 H   0  0  0  0  0  0  0  0  0  0  0  0
  118.8532  103.6037  104.0918 H   0  0  0  0  0  0  0  0  0  0  0  0
  118.0510  102.4674  105.1770 H   0  0  0  0  0  0  0  0  0  0  0  0
  118.7974  107.2812  106.0215 H   0  0  0  0  0  0  0  0  0  0  0  0
  117.9919  106.1406  107.1212 H   0  0  0  0  0  0  0  0  0  0  0  0
  118.8601  103.7001  107.1609 H   0  0  0  0  0  0  0  0  0  0  0  0
  120.2160  103.2922  106.0866 H   0  0  0  0  0  0  0  0  0  0  0  0
  116.5402  104.2305  105.9984 H   0  0  0  0  0  0  0  0  0  0  0  0
  116.6892  104.2339  102.9559 H   0  0  0  0  0  0  0  0  0  0  0  0
  115.2810  104.6905  103.9335 H   0  0  0  0  0  0  0  0  0  0  0  0
  115.8755  103.0191  103.9609 H   0  0  0  0  0  0  0  0  0  0  0  0
  1  3  1  0  0  0  0
  1  4  2  0  0  0  0
  2  5  1  0  0  0  0
  2  6  2  0  0  0  0
  3  5  2  0  0  0  0
  3 16  1  0  0  0  0
  4  6  1  0  0  0  0
  4 17  1  0  0  0  0
  5 18  1  0  0  0  0
  6 19  1  0  0  0  0
  7  9  1  0  0  0  0
  7 11  1  0  0  0  0
  8 10  1  0  0  0  0
  8 11  1  0  0  0  0
  9 13  1  0  0  0  0
 10 13  1  0  0  0  0
 11 12  1  0  0  0  0
 13 16  1  0  0  0  0
 14 16  2  0  0  0  0
 15 16  2  0  0  0  0
  1 20  1  0  0  0  0
  2 21  1  0  0  0  0
  7 22  1  0  0  0  0
  7 23  1  0  0  0  0
  8 24  1  0  0  0  0
  8 25  1  0  0  0  0
  9 26  1  0  0  0  0
  9 27  1  0  0  0  0
 10 28  1  0  0  0  0
 10 29  1  0  0  0  0
 11 30  1  0  0  0  0
 12 31  1  0  0  0  0
 12 32  1  0  0  0  0
 12 33  1  0  0  0  0
M  END
> <FRED Chemgauss4 score>
-8.786525

$$$$
C61698444	P94503117
  -OEChem-05122015313D

 39 40  0     1  0  0  0  0  0999 V2000
  119.1542  104.5914  103.9360 C   0  0  0  0  0  0  0  0  0  0  0  0
  120.4358  104.8992  104.3922 C   0  0  0  0  0  0  0  0  0  0  0  0
  118.6647  103.5102  106.0404 C   0  0  0  0  0  0  0  0  0  0  0  0
  118.2686  103.8969  104.7602 C   0  0  0  0  0  0  0  0  0  0  0  0
  123.9227  105.9222  106.6523 C   0  0  0  0  0  0  0  0  0  0  0  0
  120.8320  104.5125  105.6725 C   0  0  0  0  0  0  0  0  0  0  0  0
  119.9465  103.8180  106.4967 C   0  0  0  0  0  0  0  0  0  0  0  0
  124.0720  104.5281  106.7792 C   0  0  0  0  0  0  0  0  0  0  0  0
  122.6358  106.0901  106.2026 C   0  0  0  0  0  0  0  0  0  0  0  0
  125.2622  103.7845  107.2278 C   0  0  0  0  0  0  0  0  0  0  0  0
  121.8795  107.3165  105.8771 C   0  0  0  0  0  0  0  0  0  0  0  0
  125.0897  107.2416  108.4365 C   0  0  0  0  0  0  0  0  0  0  0  0
  116.3553  104.5871  103.2584 C   0  0  0  0  0  0  0  0  0  0  0  0
  124.9197  106.9690  106.9371 C   0  0  0  0  0  0  0  0  0  0  0  0
  116.8980  103.5690  104.2723 C   0  0  2  0  0  0  0  0  0  0  0  0
  122.9681  103.8581  106.4379 N   0  0  0  0  0  0  0  0  0  0  0  0
  122.1128  104.8353  106.0921 N   0  0  0  0  0  0  0  0  0  0  0  0
  115.9517  103.4138  105.3642 N   0  0  0  0  0  0  0  0  0  0  0  0
  120.3898  103.3184  108.0914 Cl  0  0  0  0  0  0  0  0  0  0  0  0
  118.8536  104.8976  102.9375 H   0  0  0  0  0  0  0  0  0  0  0  0
  121.1136  105.4436  103.7388 H   0  0  0  0  0  0  0  0  0  0  0  0
  117.9681  102.9689  106.6770 H   0  0  0  0  0  0  0  0  0  0  0  0
  125.2522  103.6354  108.3209 H   0  0  0  0  0  0  0  0  0  0  0  0
  125.3330  102.7882  106.7566 H   0  0  0  0  0  0  0  0  0  0  0  0
  126.2009  104.3074  106.9717 H   0  0  0  0  0  0  0  0  0  0  0  0
  122.0093  107.5927  104.8182 H   0  0  0  0  0  0  0  0  0  0  0  0
  120.7990  107.1967  106.0631 H   0  0  0  0  0  0  0  0  0  0  0  0
  122.2017  108.1750  106.4903 H   0  0  0  0  0  0  0  0  0  0  0  0
  124.1303  107.5079  108.8929 H   0  0  0  0  0  0  0  0  0  0  0  0
  125.7899  108.0637  108.6152 H   0  0  0  0  0  0  0  0  0  0  0  0
  125.4713  106.3531  108.9508 H   0  0  0  0  0  0  0  0  0  0  0  0
  116.3277  105.5913  103.6955 H   0  0  0  0  0  0  0  0  0  0  0  0
  116.9811  104.6253  102.3596 H   0  0  0  0  0  0  0  0  0  0  0  0
  115.3404  104.3321  102.9331 H   0  0  0  0  0  0  0  0  0  0  0  0
  125.9111  106.7045  106.5183 H   0  0  0  0  0  0  0  0  0  0  0  0
  124.6546  107.9229  106.4391 H   0  0  0  0  0  0  0  0  0  0  0  0
  116.8975  102.5869  103.7671 H   0  0  0  0  0  0  0  0  0  0  0  0
  116.2711  102.9969  106.2155 H   0  0  0  0  0  0  0  0  0  0  0  0
  114.9776  103.5349  105.1709 H   0  0  0  0  0  0  0  0  0  0  0  0
  1  2  2  0  0  0  0
  1  4  1  0  0  0  0
  2  6  1  0  0  0  0
  3  4  2  0  0  0  0
  3  7  1  0  0  0  0
  4 15  1  0  0  0  0
  5  8  1  0  0  0  0
  5  9  2  0  0  0  0
  5 14  1  0  0  0  0
  6  7  2  0  0  0  0
  6 17  1  0  0  0  0
  7 19  1  0  0  0  0
  8 10  1  0  0  0  0
  8 16  2  0  0  0  0
  9 11  1  0  0  0  0
  9 17  1  0  0  0  0
 12 14  1  0  0  0  0
 13 15  1  0  0  0  0
 15 18  1  0  0  0  0
 16 17  1  0  0  0  0
  1 20  1  0  0  0  0
  2 21  1  0  0  0  0
  3 22  1  0  0  0  0
 10 23  1  0  0  0  0
 10 24  1  0  0  0  0
 10 25  1  0  0  0  0
 11 26  1  0  0  0  0
 11 27  1  0  0  0  0
 11 28  1  0  0  0  0
 12 29  1  0  0  0  0
 12 30  1  0  0  0  0
 12 31  1  0  0  0  0
 13 32  1  0  0  0  0
 13 33  1  0  0  0  0
 13 34  1  0  0  0  0
 14 35  1  0  0  0  0
 14 36  1  0  0  0  0
 15 37  1  0  0  0  0
 18 38  1  0  0  0  0
 18 39  1  0  0  0  0
M  END
> <FRED Chemgauss4 score>
-8.785541

$$$$
C16889838	P25447432
  -OEChem-05122015313D

 32 32  0     1  0  0  0  0  0999 V2000
  122.6588  106.1932  109.0426 C   0  0  1  0  0  0  0  0  0  0  0  0
  123.9198  105.8844  108.2354 C   0  0  1  0  0  0  0  0  0  0  0  0
  122.5695  107.6812  109.3818 C   0  0  2  0  0  0  0  0  0  0  0  0
  125.1549  106.4931  108.9034 C   0  0  1  0  0  0  0  0  0  0  0  0
  123.8866  108.1999  109.9589 C   0  0  1  0  0  0  0  0  0  0  0  0
  125.3530  107.4440  106.0152 C   0  0  0  0  0  0  0  0  0  0  0  0
  126.4153  106.3087  108.0638 C   0  0  1  0  0  0  0  0  0  0  0  0
  126.5529  107.3610  106.9559 C   0  0  2  0  0  0  0  0  0  0  0  0
  124.9696  107.8983  109.0822 O   0  0  0  0  0  0  0  0  0  0  0  0
  121.5200  105.8203  108.2647 O   0  0  0  0  0  0  0  0  0  0  0  0
  124.0507  104.4680  108.1452 O   0  0  0  0  0  0  0  0  0  0  0  0
  121.5262  107.8616  110.3383 O   0  0  0  0  0  0  0  0  0  0  0  0
  123.7688  109.6135  110.1145 O   0  0  0  0  0  0  0  0  0  0  0  0
  125.7543  108.1045  104.8178 O   0  0  0  0  0  0  0  0  0  0  0  0
  127.5368  106.3605  108.9421 O   0  0  0  0  0  0  0  0  0  0  0  0
  126.6927  108.6441  107.5766 O   0  0  0  0  0  0  0  0  0  0  0  0
  122.6257  105.5816  109.9529 H   0  0  0  0  0  0  0  0  0  0  0  0
  123.7949  106.2745  107.2170 H   0  0  0  0  0  0  0  0  0  0  0  0
  122.2866  108.2516  108.4881 H   0  0  0  0  0  0  0  0  0  0  0  0
  125.3345  106.0241  109.8799 H   0  0  0  0  0  0  0  0  0  0  0  0
  124.0733  107.7745  110.9531 H   0  0  0  0  0  0  0  0  0  0  0  0
  124.5348  108.0210  106.4538 H   0  0  0  0  0  0  0  0  0  0  0  0
  124.9920  106.4482  105.7384 H   0  0  0  0  0  0  0  0  0  0  0  0
  126.3997  105.3056  107.6245 H   0  0  0  0  0  0  0  0  0  0  0  0
  127.4694  107.1923  106.3782 H   0  0  0  0  0  0  0  0  0  0  0  0
  121.5592  106.3481  107.4533 H   0  0  0  0  0  0  0  0  0  0  0  0
  124.1202  104.1387  109.0547 H   0  0  0  0  0  0  0  0  0  0  0  0
  121.7710  107.3347  111.1142 H   0  0  0  0  0  0  0  0  0  0  0  0
  124.6122  109.9205  110.4805 H   0  0  0  0  0  0  0  0  0  0  0  0
  124.9718  108.1396  104.2461 H   0  0  0  0  0  0  0  0  0  0  0  0
  127.4222  105.6383  109.5789 H   0  0  0  0  0  0  0  0  0  0  0  0
  126.8355  109.2766  106.8582 H   0  0  0  0  0  0  0  0  0  0  0  0
  1  2  1  0  0  0  0
  1  3  1  0  0  0  0
  1 10  1  0  0  0  0
  2  4  1  0  0  0  0
  2 11  1  0  0  0  0
  3  5  1  0  0  0  0
  3 12  1  0  0  0  0
  4  7  1  0  0  0  0
  4  9  1  0  0  0  0
  5  9  1  0  0  0  0
  5 13  1  0  0  0  0
  6  8  1  0  0  0  0
  6 14  1  0  0  0  0
  7  8  1  0  0  0  0
  7 15  1  0  0  0  0
  8 16  1  0  0  0  0
  1 17  1  0  0  0  0
  2 18  1  0  0  0  0
  3 19  1  0  0  0  0
  4 20  1  0  0  0  0
  5 21  1  0  0  0  0
  6 22  1  0  0  0  0
  6 23  1  0  0  0  0
  7 24  1  0  0  0  0
  8 25  1  0  0  0  0
 10 26  1  0  0  0  0
 11 27  1  0  0  0  0
 12 28  1  0  0  0  0
 13 29  1  0  0  0  0
 14 30  1  0  0  0  0
 15 31  1  0  0  0  0
 16 32  1  0  0  0  0
M  END
> <FRED Chemgauss4 score>
-8.782023

$$$$
C91671606	P143506820
  -OEChem-05122015313D

 39 40  0     1  0  0  0  0  0999 V2000
  125.5631  105.7853  108.8257 C   0  0  0  0  0  0  0  0  0  0  0  0
  125.5799  104.4568  108.4156 C   0  0  0  0  0  0  0  0  0  0  0  0
  124.7189  106.6915  108.1938 C   0  0  0  0  0  0  0  0  0  0  0  0
  124.7401  104.0880  107.3771 C   0  0  0  0  0  0  0  0  0  0  0  0
  123.9177  106.2227  107.1651 C   0  0  0  0  0  0  0  0  0  0  0  0
  124.7077  108.0804  108.6319 C   0  0  0  0  0  0  0  0  0  0  0  0
  118.5933  104.6302  105.9506 C   0  0  0  0  0  0  0  0  0  0  0  0
  119.7437  106.4862  104.9322 C   0  0  0  0  0  0  0  0  0  0  0  0
  119.7048  104.5485  106.9942 C   0  0  0  0  0  0  0  0  0  0  0  0
  120.8331  106.3703  106.0071 C   0  0  2  0  0  0  0  0  0  0  0  0
  124.7319  102.6705  106.9109 C   0  0  0  0  0  0  0  0  0  0  0  0
  117.7659  106.8924  106.2932 C   0  0  0  0  0  0  0  0  0  0  0  0
  122.1904  106.7863  105.4551 C   0  0  0  0  0  0  0  0  0  0  0  0
  123.9064  104.9398  106.7390 N   0  0  0  0  0  0  0  0  0  0  0  0
  118.4396  105.9744  105.3783 N   0  0  2  0  0  0  0  0  0  0  0  0
  124.3613  108.3237  109.9406 N   0  0  0  0  0  0  0  0  0  0  0  0
  123.0679  107.1269  106.5259 N   0  0  0  0  0  0  0  0  0  0  0  0
  120.9385  105.0113  106.4446 O   0  0  0  0  0  0  0  0  0  0  0  0
  125.1250  109.3272  107.5955 S   0  0  0  0  0  0  0  0  0  0  0  0
  126.2119  106.1022  109.6381 H   0  0  0  0  0  0  0  0  0  0  0  0
  126.2332  103.7399  108.9011 H   0  0  0  0  0  0  0  0  0  0  0  0
  118.8003  103.8960  105.1420 H   0  0  0  0  0  0  0  0  0  0  0  0
  117.6416  104.3091  106.4224 H   0  0  0  0  0  0  0  0  0  0  0  0
  119.6438  107.5515  104.6364 H   0  0  0  0  0  0  0  0  0  0  0  0
  120.0651  105.9426  104.0167 H   0  0  0  0  0  0  0  0  0  0  0  0
  119.4612  105.1310  107.8911 H   0  0  0  0  0  0  0  0  0  0  0  0
  119.8480  103.5086  107.3041 H   0  0  0  0  0  0  0  0  0  0  0  0
  120.5948  107.0046  106.8689 H   0  0  0  0  0  0  0  0  0  0  0  0
  123.9881  102.0899  107.4694 H   0  0  0  0  0  0  0  0  0  0  0  0
  124.4941  102.6050  105.8416 H   0  0  0  0  0  0  0  0  0  0  0  0
  125.7148  102.2014  107.0476 H   0  0  0  0  0  0  0  0  0  0  0  0
  117.6707  107.8792  105.8327 H   0  0  0  0  0  0  0  0  0  0  0  0
  118.3381  106.9901  107.2198 H   0  0  0  0  0  0  0  0  0  0  0  0
  116.7673  106.5192  106.5357 H   0  0  0  0  0  0  0  0  0  0  0  0
  122.0597  107.6498  104.8138 H   0  0  0  0  0  0  0  0  0  0  0  0
  122.6156  105.9617  104.8959 H   0  0  0  0  0  0  0  0  0  0  0  0
  124.1146  107.5829  110.5892 H   0  0  0  0  0  0  0  0  0  0  0  0
  124.3301  109.2709  110.3034 H   0  0  0  0  0  0  0  0  0  0  0  0
  123.0901  108.0930  106.8600 H   0  0  0  0  0  0  0  0  0  0  0  0
  1  2  2  0  0  0  0
  1  3  1  0  0  0  0
  2  4  1  0  0  0  0
  3  5  2  0  0  0  0
  3  6  1  0  0  0  0
  4 11  1  0  0  0  0
  4 14  2  0  0  0  0
  5 14  1  0  0  0  0
  5 17  1  0  0  0  0
  6 16  1  0  0  0  0
  6 19  2  0  0  0  0
  7  9  1  0  0  0  0
  7 15  1  0  0  0  0
  8 10  1  0  0  0  0
  8 15  1  0  0  0  0
  9 18  1  0  0  0  0
 10 13  1  0  0  0  0
 10 18  1  0  0  0  0
 12 15  1  0  0  0  0
 13 17  1  0  0  0  0
  1 20  1  0  0  0  0
  2 21  1  0  0  0  0
  7 22  1  0  0  0  0
  7 23  1  0  0  0  0
  8 24  1  0  0  0  0
  8 25  1  0  0  0  0
  9 26  1  0  0  0  0
  9 27  1  0  0  0  0
 10 28  1  0  0  0  0
 11 29  1  0  0  0  0
 11 30  1  0  0  0  0
 11 31  1  0  0  0  0
 12 32  1  0  0  0  0
 12 33  1  0  0  0  0
 12 34  1  0  0  0  0
 13 35  1  0  0  0  0
 13 36  1  0  0  0  0
 16 37  1  0  0  0  0
 16 38  1  0  0  0  0
 17 39  1  0  0  0  0
M  END
> <FRED Chemgauss4 score>
-8.782022

$$$$
C88023610	P137670459
  -OEChem-05122015313D

 29 29  0     0  0  0  0  0  0999 V2000
  124.4915  108.9725  108.7720 C   0  0  0  0  0  0  0  0  0  0  0  0
  123.7418  109.3564  109.9930 C   0  0  0  0  0  0  0  0  0  0  0  0
  124.3303  105.2055  108.9960 C   0  0  0  0  0  0  0  0  0  0  0  0
  124.3934  106.0248  106.5727 C   0  0  0  0  0  0  0  0  0  0  0  0
  123.7768  106.6067  109.2471 C   0  0  0  0  0  0  0  0  0  0  0  0
  125.1567  107.1650  107.2364 C   0  0  0  0  0  0  0  0  0  0  0  0
  124.2328  104.8103  107.5103 C   0  0  0  0  0  0  0  0  0  0  0  0
  125.2569  103.7169  107.1937 C   0  0  0  0  0  0  0  0  0  0  0  0
  124.4719  107.6228  108.4464 N   0  0  0  0  0  0  0  0  0  0  0  0
  121.9448  110.6949  110.7650 N   0  0  0  0  0  0  0  0  0  0  0  0
  122.7299  110.2474  109.7212 N   0  0  0  0  0  0  0  0  0  0  0  0
  125.0392  109.8874  108.1714 O   0  0  0  0  0  0  0  0  0  0  0  0
  124.0511  108.8889  111.0803 O   0  0  0  0  0  0  0  0  0  0  0  0
  122.9314  104.2531  107.2921 O   0  0  0  0  0  0  0  0  0  0  0  0
  125.3791  105.1728  109.3164 H   0  0  0  0  0  0  0  0  0  0  0  0
  123.7708  104.4939  109.6144 H   0  0  0  0  0  0  0  0  0  0  0  0
  123.4083  106.3962  106.2615 H   0  0  0  0  0  0  0  0  0  0  0  0
  124.9290  105.7151  105.6646 H   0  0  0  0  0  0  0  0  0  0  0  0
  122.7102  106.6587  108.9781 H   0  0  0  0  0  0  0  0  0  0  0  0
  123.8383  106.8339  110.3197 H   0  0  0  0  0  0  0  0  0  0  0  0
  126.1767  106.8420  107.4738 H   0  0  0  0  0  0  0  0  0  0  0  0
  125.2394  108.0265  106.5619 H   0  0  0  0  0  0  0  0  0  0  0  0
  125.1858  103.4398  106.1438 H   0  0  0  0  0  0  0  0  0  0  0  0
  125.0613  102.8410  107.8091 H   0  0  0  0  0  0  0  0  0  0  0  0
  126.2608  104.0828  107.4002 H   0  0  0  0  0  0  0  0  0  0  0  0
  121.6870  111.6572  110.5496 H   0  0  0  0  0  0  0  0  0  0  0  0
  122.5452  110.7416  111.5874 H   0  0  0  0  0  0  0  0  0  0  0  0
  122.5277  110.5973  108.7896 H   0  0  0  0  0  0  0  0  0  0  0  0
  122.8930  104.0128  106.3549 H   0  0  0  0  0  0  0  0  0  0  0  0
  1  2  1  0  0  0  0
  1  9  1  0  0  0  0
  1 12  2  0  0  0  0
  2 11  1  0  0  0  0
  2 13  2  0  0  0  0
  3  5  1  0  0  0  0
  3  7  1  0  0  0  0
  4  6  1  0  0  0  0
  4  7  1  0  0  0  0
  5  9  1  0  0  0  0
  6  9  1  0  0  0  0
  7  8  1  0  0  0  0
  7 14  1  0  0  0  0
 10 11  1  0  0  0  0
  3 15  1  0  0  0  0
  3 16  1  0  0  0  0
  4 17  1  0  0  0  0
  4 18  1  0  0  0  0
  5 19  1  0  0  0  0
  5 20  1  0  0  0  0
  6 21  1  0  0  0  0
  6 22  1  0  0  0  0
  8 23  1  0  0  0  0
  8 24  1  0  0  0  0
  8 25  1  0  0  0  0
 10 26  1  0  0  0  0
 10 27  1  0  0  0  0
 11 28  1  0  0  0  0
 14 29  1  0  0  0  0
M  END
> <FRED Chemgauss4 score>
-8.781569

$$$$
C86525873	P135471827
  -OEChem-05122015313D

 26 26  0     1  0  0  0  0  0999 V2000
  127.8465  107.3505  107.6002 C   0  0  0  0  0  0  0  0  0  0  0  0
  125.9320  107.3321  106.7687 C   0  0  0  0  0  0  0  0  0  0  0  0
  120.7615  104.7059  106.1771 C   0  0  0  0  0  0  0  0  0  0  0  0
  121.2055  105.3839  107.4608 C   0  0  0  0  0  0  0  0  0  0  0  0
  122.6236  104.9919  107.8465 C   0  0  0  0  0  0  0  0  0  0  0  0
  123.4651  106.7939  106.5944 C   0  0  0  0  0  0  0  0  0  0  0  0
  124.7313  107.2305  105.8528 C   0  0  1  0  0  0  0  0  0  0  0  0
  127.1845  107.1428  106.4241 N   0  0  0  0  0  0  0  0  0  0  0  0
  125.8627  107.6381  108.0921 N   0  0  0  0  0  0  0  0  0  0  0  0
  127.0823  107.6564  108.6509 N   0  0  0  0  0  0  0  0  0  0  0  0
  124.5103  108.4796  105.1558 N   0  0  0  0  0  0  0  0  0  0  0  0
  123.5086  105.3894  106.8083 O   0  0  0  0  0  0  0  0  0  0  0  0
  128.9230  107.2723  107.6772 H   0  0  0  0  0  0  0  0  0  0  0  0
  121.4360  104.9514  105.3506 H   0  0  0  0  0  0  0  0  0  0  0  0
  120.7603  103.6187  106.3027 H   0  0  0  0  0  0  0  0  0  0  0  0
  119.7495  105.0168  105.8991 H   0  0  0  0  0  0  0  0  0  0  0  0
  120.5180  105.1257  108.2752 H   0  0  0  0  0  0  0  0  0  0  0  0
  121.1427  106.4729  107.3478 H   0  0  0  0  0  0  0  0  0  0  0  0
  122.9282  105.4888  108.7732 H   0  0  0  0  0  0  0  0  0  0  0  0
  122.7071  103.9085  107.9795 H   0  0  0  0  0  0  0  0  0  0  0  0
  123.4004  107.2766  107.5758 H   0  0  0  0  0  0  0  0  0  0  0  0
  122.5572  107.0275  106.0278 H   0  0  0  0  0  0  0  0  0  0  0  0
  124.9375  106.4997  105.0606 H   0  0  0  0  0  0  0  0  0  0  0  0
  127.2394  107.8648  109.6331 H   0  0  0  0  0  0  0  0  0  0  0  0
  123.5996  108.6669  104.7793 H   0  0  0  0  0  0  0  0  0  0  0  0
  125.3055  109.0296  104.8886 H   0  0  0  0  0  0  0  0  0  0  0  0
  1  8  2  0  0  0  0
  1 10  1  0  0  0  0
  2  7  1  0  0  0  0
  2  8  1  0  0  0  0
  2  9  2  0  0  0  0
  3  4  1  0  0  0  0
  4  5  1  0  0  0  0
  5 12  1  0  0  0  0
  6  7  1  0  0  0  0
  6 12  1  0  0  0  0
  7 11  1  0  0  0  0
  9 10  1  0  0  0  0
  1 13  1  0  0  0  0
  3 14  1  0  0  0  0
  3 15  1  0  0  0  0
  3 16  1  0  0  0  0
  4 17  1  0  0  0  0
  4 18  1  0  0  0  0
  5 19  1  0  0  0  0
  5 20  1  0  0  0  0
  6 21  1  0  0  0  0
  6 22  1  0  0  0  0
  7 23  1  0  0  0  0
 10 24  1  0  0  0  0
 11 25  1  0  0  0  0
 11 26  1  0  0  0  0
M  END
> <FRED Chemgauss4 score>
-8.781546

$$$$
C86400074	P135284224
  -OEChem-05122015313D

 27 28  0     1  0  0  0  0  0999 V2000
  121.5404  107.2865  105.6658 C   0  0  0  0  0  0  0  0  0  0  0  0
  124.8969  104.7587  107.0048 C   0  0  0  0  0  0  0  0  0  0  0  0
  124.9799  104.9186  108.5233 C   0  0  0  0  0  0  0  0  0  0  0  0
  126.1142  106.7632  107.3677 C   0  0  0  0  0  0  0  0  0  0  0  0
  125.0366  106.1776  106.4551 C   0  0  2  0  0  0  0  0  0  0  0  0
  125.8012  106.1902  108.7513 C   0  0  2  0  0  0  0  0  0  0  0  0
  122.8433  106.5518  105.5356 C   0  0  0  0  0  0  0  0  0  0  0  0
  121.0314  107.6782  106.8494 N   0  5  0  0  0  0  0  0  0  0  0  0
  120.7719  107.6150  104.6100 N   0  0  0  0  0  0  0  0  0  0  0  0
  119.8690  108.2918  106.5135 N   0  0  0  0  0  0  0  0  0  0  0  0
  119.7130  108.2538  105.1682 N   0  0  0  0  0  0  0  0  0  0  0  0
  123.7821  106.9148  106.5904 N   0  0  0  0  0  0  0  0  0  0  0  0
  127.0622  105.8700  109.4586 N   0  3  0  0  0  0  0  0  0  0  0  0
  125.6691  104.0852  106.6179 H   0  0  0  0  0  0  0  0  0  0  0  0
  123.9217  104.3298  106.7378 H   0  0  0  0  0  0  0  0  0  0  0  0
  123.9751  105.0230  108.9411 H   0  0  0  0  0  0  0  0  0  0  0  0
  125.4367  104.0369  108.9810 H   0  0  0  0  0  0  0  0  0  0  0  0
  127.1301  106.5295  107.0175 H   0  0  0  0  0  0  0  0  0  0  0  0
  126.0292  107.8611  107.4061 H   0  0  0  0  0  0  0  0  0  0  0  0
  125.3520  106.1669  105.4325 H   0  0  0  0  0  0  0  0  0  0  0  0
  125.2741  106.9250  109.3920 H   0  0  0  0  0  0  0  0  0  0  0  0
  122.6827  105.4693  105.5847 H   0  0  0  0  0  0  0  0  0  0  0  0
  123.3209  106.7664  104.5738 H   0  0  0  0  0  0  0  0  0  0  0  0
  123.9700  107.9170  106.5387 H   0  0  0  0  0  0  0  0  0  0  0  0
  127.0462  104.9082  109.8090 H   0  0  0  0  0  0  0  0  0  0  0  0
  127.1993  106.4988  110.2548 H   0  0  0  0  0  0  0  0  0  0  0  0
  127.8644  105.9688  108.8302 H   0  0  0  0  0  0  0  0  0  0  0  0
  1  7  1  0  0  0  0
  1  8  1  0  0  0  0
  1  9  2  0  0  0  0
  2  3  1  0  0  0  0
  2  5  1  0  0  0  0
  3  6  1  0  0  0  0
  4  5  1  0  0  0  0
  4  6  1  0  0  0  0
  5 12  1  0  0  0  0
  6 13  1  0  0  0  0
  7 12  1  0  0  0  0
  8 10  1  0  0  0  0
  9 11  1  0  0  0  0
 10 11  2  0  0  0  0
  2 14  1  0  0  0  0
  2 15  1  0  0  0  0
  3 16  1  0  0  0  0
  3 17  1  0  0  0  0
  4 18  1  0  0  0  0
  4 19  1  0  0  0  0
  5 20  1  0  0  0  0
  6 21  1  0  0  0  0
  7 22  1  0  0  0  0
  7 23  1  0  0  0  0
 12 24  1  0  0  0  0
 13 25  1  0  0  0  0
 13 26  1  0  0  0  0
 13 27  1  0  0  0  0
M  CHG  2   8  -1  13   1
M  END
> <FRED Chemgauss4 score>
-8.774124

$$$$
C44776899	P67529880
  -OEChem-05122015313D

 41 41  0     0  0  0  0  0  0999 V2000
  119.4150  106.2566  106.6934 C   0  0  0  0  0  0  0  0  0  0  0  0
  118.5847  107.9449  104.8753 C   0  0  0  0  0  0  0  0  0  0  0  0
  115.8235  104.8862  102.9996 C   0  0  0  0  0  0  0  0  0  0  0  0
  115.2456  103.7988  103.8979 C   0  0  0  0  0  0  0  0  0  0  0  0
  117.3271  104.7968  102.7635 C   0  0  0  0  0  0  0  0  0  0  0  0
  115.3268  104.1567  105.3797 C   0  0  0  0  0  0  0  0  0  0  0  0
  118.2001  104.3772  103.9439 C   0  0  0  0  0  0  0  0  0  0  0  0
  116.7220  104.0965  105.9937 C   0  0  0  0  0  0  0  0  0  0  0  0
  117.7877  104.9575  105.3016 C   0  0  0  0  0  0  0  0  0  0  0  0
  117.2704  107.5282  107.0685 C   0  0  0  0  0  0  0  0  0  0  0  0
  119.4204  108.7518  107.0483 C   0  0  0  0  0  0  0  0  0  0  0  0
  119.6026  103.7659  106.4257 C   0  0  0  0  0  0  0  0  0  0  0  0
  118.6528  107.5783  106.3761 C   0  0  0  0  0  0  0  0  0  0  0  0
  117.4825  108.6519  104.4666 N   0  0  0  0  0  0  0  0  0  0  0  0
  118.9532  105.0466  106.1620 N   0  0  0  0  0  0  0  0  0  0  0  0
  120.4134  106.3005  107.4252 O   0  0  0  0  0  0  0  0  0  0  0  0
  119.8225  107.6336  103.7795 S   0  0  0  0  0  0  0  0  0  0  0  0
  115.2969  104.8796  102.0379 H   0  0  0  0  0  0  0  0  0  0  0  0
  115.6025  105.8561  103.4609 H   0  0  0  0  0  0  0  0  0  0  0  0
  114.2151  103.6047  103.6193 H   0  0  0  0  0  0  0  0  0  0  0  0
  115.8099  102.8862  103.7304 H   0  0  0  0  0  0  0  0  0  0  0  0
  117.4836  104.0437  101.9531 H   0  0  0  0  0  0  0  0  0  0  0  0
  117.7090  105.7482  102.3130 H   0  0  0  0  0  0  0  0  0  0  0  0
  114.9630  105.1997  105.4803 H   0  0  0  0  0  0  0  0  0  0  0  0
  114.6059  103.5504  105.9667 H   0  0  0  0  0  0  0  0  0  0  0  0
  118.2492  103.2807  103.9941 H   0  0  0  0  0  0  0  0  0  0  0  0
  119.2320  104.6995  103.7457 H   0  0  0  0  0  0  0  0  0  0  0  0
  116.6650  104.3826  107.0536 H   0  0  0  0  0  0  0  0  0  0  0  0
  117.0596  103.0496  105.9926 H   0  0  0  0  0  0  0  0  0  0  0  0
  117.4007  105.9344  105.1790 H   0  0  0  0  0  0  0  0  0  0  0  0
  116.6891  108.4383  106.8772 H   0  0  0  0  0  0  0  0  0  0  0  0
  117.3736  107.4365  108.1561 H   0  0  0  0  0  0  0  0  0  0  0  0
  116.6511  106.6963  106.7231 H   0  0  0  0  0  0  0  0  0  0  0  0
  118.9308  109.7149  106.8606 H   0  0  0  0  0  0  0  0  0  0  0  0
  119.4754  108.6268  108.1363 H   0  0  0  0  0  0  0  0  0  0  0  0
  120.4464  108.8260  106.6684 H   0  0  0  0  0  0  0  0  0  0  0  0
  119.1718  103.3028  107.3172 H   0  0  0  0  0  0  0  0  0  0  0  0
  120.6740  103.9116  106.5876 H   0  0  0  0  0  0  0  0  0  0  0  0
  119.4651  103.0906  105.5770 H   0  0  0  0  0  0  0  0  0  0  0  0
  116.7594  108.9104  105.1298 H   0  0  0  0  0  0  0  0  0  0  0  0
  117.3329  108.9438  103.5073 H   0  0  0  0  0  0  0  0  0  0  0  0
  1 13  1  0  0  0  0
  1 15  1  0  0  0  0
  1 16  2  0  0  0  0
  2 13  1  0  0  0  0
  2 14  1  0  0  0  0
  2 17  2  0  0  0  0
  3  4  1  0  0  0  0
  3  5  1  0  0  0  0
  4  6  1  0  0  0  0
  5  7  1  0  0  0  0
  6  8  1  0  0  0  0
  7  9  1  0  0  0  0
  8  9  1  0  0  0  0
  9 15  1  0  0  0  0
 10 13  1  0  0  0  0
 11 13  1  0  0  0  0
 12 15  1  0  0  0  0
  3 18  1  0  0  0  0
  3 19  1  0  0  0  0
  4 20  1  0  0  0  0
  4 21  1  0  0  0  0
  5 22  1  0  0  0  0
  5 23  1  0  0  0  0
  6 24  1  0  0  0  0
  6 25  1  0  0  0  0
  7 26  1  0  0  0  0
  7 27  1  0  0  0  0
  8 28  1  0  0  0  0
  8 29  1  0  0  0  0
  9 30  1  0  0  0  0
 10 31  1  0  0  0  0
 10 32  1  0  0  0  0
 10 33  1  0  0  0  0
 11 34  1  0  0  0  0
 11 35  1  0  0  0  0
 11 36  1  0  0  0  0
 12 37  1  0  0  0  0
 12 38  1  0  0  0  0
 12 39  1  0  0  0  0
 14 40  1  0  0  0  0
 14 41  1  0  0  0  0
M  END
> <FRED Chemgauss4 score>
-8.772884

$$$$
C80052265	P125060489
  -OEChem-05122015313D

 30 31  0     0  0  0  0  0  0999 V2000
  122.1432  107.7388  107.8473 C   0  0  0  0  0  0  0  0  0  0  0  0
  121.3639  106.6823  107.3760 C   0  0  0  0  0  0  0  0  0  0  0  0
  123.3657  105.4072  106.9244 C   0  0  0  0  0  0  0  0  0  0  0  0
  123.6121  108.2289  110.7233 C   0  0  0  0  0  0  0  0  0  0  0  0
  123.5338  107.6296  107.8571 C   0  0  0  0  0  0  0  0  0  0  0  0
  123.3980  108.9807  111.8527 C   0  0  0  0  0  0  0  0  0  0  0  0
  121.9751  105.5165  106.9146 C   0  0  0  0  0  0  0  0  0  0  0  0
  124.1450  106.4638  107.3957 C   0  0  0  0  0  0  0  0  0  0  0  0
  123.6777  110.3017  111.4543 C   0  0  0  0  0  0  0  0  0  0  0  0
  123.6101  111.5252  112.2725 C   0  0  0  0  0  0  0  0  0  0  0  0
  124.3330  108.7850  108.3674 C   0  0  0  0  0  0  0  0  0  0  0  0
  122.9717  108.5002  113.1778 C   0  0  0  0  0  0  0  0  0  0  0  0
  124.0419  110.3874  110.1721 N   0  0  0  0  0  0  0  0  0  0  0  0
  123.9926  109.1108  109.7550 N   0  0  0  0  0  0  0  0  0  0  0  0
  121.5650  108.1601  113.2315 N   0  0  0  0  0  0  0  0  0  0  0  0
  121.0133  104.2125  106.3349 Cl  0  0  0  0  0  0  0  0  0  0  0  0
  125.8627  106.2929  107.3912 Cl  0  0  0  0  0  0  0  0  0  0  0  0
  121.6570  108.6436  108.2029 H   0  0  0  0  0  0  0  0  0  0  0  0
  120.2814  106.7811  107.3749 H   0  0  0  0  0  0  0  0  0  0  0  0
  123.8410  104.4975  106.5635 H   0  0  0  0  0  0  0  0  0  0  0  0
  123.5280  107.1679  110.5310 H   0  0  0  0  0  0  0  0  0  0  0  0
  124.5756  111.7306  112.7653 H   0  0  0  0  0  0  0  0  0  0  0  0
  123.3473  112.4139  111.6718 H   0  0  0  0  0  0  0  0  0  0  0  0
  122.8412  111.4560  113.0623 H   0  0  0  0  0  0  0  0  0  0  0  0
  125.4136  108.5812  108.3258 H   0  0  0  0  0  0  0  0  0  0  0  0
  124.1721  109.6894  107.7615 H   0  0  0  0  0  0  0  0  0  0  0  0
  123.5273  107.5963  113.4898 H   0  0  0  0  0  0  0  0  0  0  0  0
  123.1435  109.2488  113.9732 H   0  0  0  0  0  0  0  0  0  0  0  0
  121.0890  108.2191  114.1121 H   0  0  0  0  0  0  0  0  0  0  0  0
  121.1546  107.6854  112.4493 H   0  0  0  0  0  0  0  0  0  0  0  0
  1  2  2  0  0  0  0
  1  5  1  0  0  0  0
  2  7  1  0  0  0  0
  3  7  2  0  0  0  0
  3  8  1  0  0  0  0
  4  6  2  0  0  0  0
  4 14  1  0  0  0  0
  5  8  2  0  0  0  0
  5 11  1  0  0  0  0
  6  9  1  0  0  0  0
  6 12  1  0  0  0  0
  7 16  1  0  0  0  0
  8 17  1  0  0  0  0
  9 10  1  0  0  0  0
  9 13  2  0  0  0  0
 11 14  1  0  0  0  0
 12 15  1  0  0  0  0
 13 14  1  0  0  0  0
  1 18  1  0  0  0  0
  2 19  1  0  0  0  0
  3 20  1  0  0  0  0
  4 21  1  0  0  0  0
 10 22  1  0  0  0  0
 10 23  1  0  0  0  0
 10 24  1  0  0  0  0
 11 25  1  0  0  0  0
 11 26  1  0  0  0  0
 12 27  1  0  0  0  0
 12 28  1  0  0  0  0
 15 29  1  0  0  0  0
 15 30  1  0  0  0  0
M  END
> <FRED Chemgauss4 score>
-8.772269

$$$$
C82870303	P129537025
  -OEChem-05122015313D

 23 24  0     1  0  0  0  0  0999 V2000
  121.5754  104.2228  107.1212 C   0  0  0  0  0  0  0  0  0  0  0  0
  120.4335  103.9951  106.3615 C   0  0  0  0  0  0  0  0  0  0  0  0
  120.9466  105.5926  104.7345 C   0  0  0  0  0  0  0  0  0  0  0  0
  122.1243  105.8982  105.4248 C   0  0  0  0  0  0  0  0  0  0  0  0
  122.4384  105.2072  106.6257 C   0  0  0  0  0  0  0  0  0  0  0  0
  124.0185  106.6468  106.1972 C   0  0  0  0  0  0  0  0  0  0  0  0
  125.6562  107.7052  107.7833 C   0  0  0  0  0  0  0  0  0  0  0  0
  125.2496  107.4224  106.3196 C   0  0  2  0  0  0  0  0  0  0  0  0
  123.1291  106.7809  105.1951 N   0  5  0  0  0  0  0  0  0  0  0  0
  120.1057  104.6391  105.2096 N   0  0  0  0  0  0  0  0  0  0  0  0
  123.6218  105.7025  107.0713 N   0  0  0  0  0  0  0  0  0  0  0  0
  126.9335  108.4627  107.8416 N   0  3  0  0  0  0  0  0  0  0  0  0
  125.0889  108.6989  105.6629 O   0  0  0  0  0  0  0  0  0  0  0  0
  121.7905  103.6809  108.0333 H   0  0  0  0  0  0  0  0  0  0  0  0
  119.7120  103.2469  106.6776 H   0  0  0  0  0  0  0  0  0  0  0  0
  120.6639  106.0912  103.8160 H   0  0  0  0  0  0  0  0  0  0  0  0
  125.8202  106.7759  108.3375 H   0  0  0  0  0  0  0  0  0  0  0  0
  124.9163  108.3224  108.3026 H   0  0  0  0  0  0  0  0  0  0  0  0
  126.1224  106.9428  105.8147 H   0  0  0  0  0  0  0  0  0  0  0  0
  127.7007  107.9147  107.4403 H   0  0  0  0  0  0  0  0  0  0  0  0
  127.1777  108.6899  108.8106 H   0  0  0  0  0  0  0  0  0  0  0  0
  126.8608  109.3402  107.3174 H   0  0  0  0  0  0  0  0  0  0  0  0
  124.3556  109.1308  106.1166 H   0  0  0  0  0  0  0  0  0  0  0  0
  1  2  1  0  0  0  0
  1  5  2  0  0  0  0
  2 10  2  0  0  0  0
  3  4  2  0  0  0  0
  3 10  1  0  0  0  0
  4  5  1  0  0  0  0
  4  9  1  0  0  0  0
  5 11  1  0  0  0  0
  6  8  1  0  0  0  0
  6  9  1  0  0  0  0
  6 11  2  0  0  0  0
  7  8  1  0  0  0  0
  7 12  1  0  0  0  0
  8 13  1  0  0  0  0
  1 14  1  0  0  0  0
  2 15  1  0  0  0  0
  3 16  1  0  0  0  0
  7 17  1  0  0  0  0
  7 18  1  0  0  0  0
  8 19  1  0  0  0  0
 12 20  1  0  0  0  0
 12 21  1  0  0  0  0
 12 22  1  0  0  0  0
 13 23  1  0  0  0  0
M  CHG  2   9  -1  12   1
M  END
> <FRED Chemgauss4 score>
-8.769632

$$$$
C87400800	P136736128
  -OEChem-05122015313D

 31 31  0     1  0  0  0  0  0999 V2000
  125.0227  107.9559  107.5147 C   0  0  0  0  0  0  0  0  0  0  0  0
  123.8786  107.8005  109.6245 C   0  0  0  0  0  0  0  0  0  0  0  0
  125.1412  109.3178  107.7406 C   0  0  0  0  0  0  0  0  0  0  0  0
  124.3780  107.1898  108.4795 C   0  0  0  0  0  0  0  0  0  0  0  0
  124.0485  109.1693  109.7560 C   0  0  0  0  0  0  0  0  0  0  0  0
  124.8461  105.2105  106.9778 C   0  0  0  0  0  0  0  0  0  0  0  0
  123.0746  111.1485  110.8938 C   0  0  0  0  0  0  0  0  0  0  0  0
  123.4481  109.0259  112.1600 C   0  0  0  0  0  0  0  0  0  0  0  0
  124.8388  108.5976  112.5915 C   0  0  0  0  0  0  0  0  0  0  0  0
  124.2245  105.7195  108.2871 C   0  0  2  0  0  0  0  0  0  0  0  0
  124.6690  109.9465  108.8403 N   0  0  0  0  0  0  0  0  0  0  0  0
  122.8352  105.2997  108.3643 N   0  0  0  0  0  0  0  0  0  0  0  0
  123.5325  109.7774  110.9275 N   0  0  0  0  0  0  0  0  0  0  0  0
  124.7545  107.8899  113.8219 O   0  0  0  0  0  0  0  0  0  0  0  0
  125.4229  107.5094  106.6109 H   0  0  0  0  0  0  0  0  0  0  0  0
  123.3714  107.2177  110.3876 H   0  0  0  0  0  0  0  0  0  0  0  0
  125.6351  109.9592  107.0183 H   0  0  0  0  0  0  0  0  0  0  0  0
  124.3963  105.7138  106.1149 H   0  0  0  0  0  0  0  0  0  0  0  0
  125.9262  105.3938  106.9525 H   0  0  0  0  0  0  0  0  0  0  0  0
  124.6998  104.1316  106.8536 H   0  0  0  0  0  0  0  0  0  0  0  0
  122.7124  111.4480  111.8807 H   0  0  0  0  0  0  0  0  0  0  0  0
  122.2604  111.2574  110.1721 H   0  0  0  0  0  0  0  0  0  0  0  0
  123.8924  111.8131  110.6024 H   0  0  0  0  0  0  0  0  0  0  0  0
  122.8010  108.1596  111.9899 H   0  0  0  0  0  0  0  0  0  0  0  0
  122.9943  109.6682  112.9208 H   0  0  0  0  0  0  0  0  0  0  0  0
  125.4695  109.4778  112.7505 H   0  0  0  0  0  0  0  0  0  0  0  0
  125.3105  107.9506  111.8447 H   0  0  0  0  0  0  0  0  0  0  0  0
  124.7221  105.1726  109.1077 H   0  0  0  0  0  0  0  0  0  0  0  0
  122.2330  105.7642  109.0140 H   0  0  0  0  0  0  0  0  0  0  0  0
  122.5727  104.4400  107.9255 H   0  0  0  0  0  0  0  0  0  0  0  0
  125.6604  107.6356  114.0606 H   0  0  0  0  0  0  0  0  0  0  0  0
  1  3  2  0  0  0  0
  1  4  1  0  0  0  0
  2  4  2  0  0  0  0
  2  5  1  0  0  0  0
  3 11  1  0  0  0  0
  4 10  1  0  0  0  0
  5 11  2  0  0  0  0
  5 13  1  0  0  0  0
  6 10  1  0  0  0  0
  7 13  1  0  0  0  0
  8  9  1  0  0  0  0
  8 13  1  0  0  0  0
  9 14  1  0  0  0  0
 10 12  1  0  0  0  0
  1 15  1  0  0  0  0
  2 16  1  0  0  0  0
  3 17  1  0  0  0  0
  6 18  1  0  0  0  0
  6 19  1  0  0  0  0
  6 20  1  0  0  0  0
  7 21  1  0  0  0  0
  7 22  1  0  0  0  0
  7 23  1  0  0  0  0
  8 24  1  0  0  0  0
  8 25  1  0  0  0  0
  9 26  1  0  0  0  0
  9 27  1  0  0  0  0
 10 28  1  0  0  0  0
 12 29  1  0  0  0  0
 12 30  1  0  0  0  0
 14 31  1  0  0  0  0
M  END
> <FRED Chemgauss4 score>
-8.769136

$$$$
C87344568	P136645691
  -OEChem-05122015313D

 25 25  0     1  0  0  0  0  0999 V2000
  123.3332  107.6725  109.2394 C   0  0  0  0  0  0  0  0  0  0  0  0
  122.2653  106.1841  106.2493 C   0  0  0  0  0  0  0  0  0  0  0  0
  123.3041  105.3291  106.5331 C   0  0  0  0  0  0  0  0  0  0  0  0
  123.1037  106.8931  108.0727 C   0  0  0  0  0  0  0  0  0  0  0  0
  126.4416  107.0417  107.3887 C   0  0  0  0  0  0  0  0  0  0  0  0
  125.4904  103.9168  107.7334 C   0  0  0  0  0  0  0  0  0  0  0  0
  126.1841  106.1762  108.6146 C   0  0  0  0  0  0  0  0  0  0  0  0
  125.0138  105.1894  108.4433 C   0  0  1  0  0  0  0  0  0  0  0  0
  123.5205  108.3089  110.1916 N   0  0  0  0  0  0  0  0  0  0  0  0
  122.1460  107.1555  107.2114 N   0  0  0  0  0  0  0  0  0  0  0  0
  123.8318  105.7963  107.7037 N   0  0  0  0  0  0  0  0  0  0  0  0
  127.1169  109.2370  106.7542 N   0  0  0  0  0  0  0  0  0  0  0  0
  126.8664  108.3106  107.7456 N   0  0  0  0  0  0  0  0  0  0  0  0
  126.2609  106.6502  106.2385 O   0  0  0  0  0  0  0  0  0  0  0  0
  121.5972  106.1495  105.4011 H   0  0  0  0  0  0  0  0  0  0  0  0
  123.6978  104.4618  106.0218 H   0  0  0  0  0  0  0  0  0  0  0  0
  125.8416  104.1406  106.7198 H   0  0  0  0  0  0  0  0  0  0  0  0
  124.6733  103.1920  107.6511 H   0  0  0  0  0  0  0  0  0  0  0  0
  126.3123  103.4326  108.2722 H   0  0  0  0  0  0  0  0  0  0  0  0
  127.1092  105.6501  108.8796 H   0  0  0  0  0  0  0  0  0  0  0  0
  125.9605  106.8656  109.4394 H   0  0  0  0  0  0  0  0  0  0  0  0
  124.6797  104.8876  109.4454 H   0  0  0  0  0  0  0  0  0  0  0  0
  126.8628  110.1492  107.1309 H   0  0  0  0  0  0  0  0  0  0  0  0
  126.4560  109.0500  106.0012 H   0  0  0  0  0  0  0  0  0  0  0  0
  126.9917  108.5557  108.7227 H   0  0  0  0  0  0  0  0  0  0  0  0
  1  4  1  0  0  0  0
  1  9  3  0  0  0  0
  2  3  2  0  0  0  0
  2 10  1  0  0  0  0
  3 11  1  0  0  0  0
  4 10  2  0  0  0  0
  4 11  1  0  0  0  0
  5  7  1  0  0  0  0
  5 13  1  0  0  0  0
  5 14  2  0  0  0  0
  6  8  1  0  0  0  0
  7  8  1  0  0  0  0
  8 11  1  0  0  0  0
 12 13  1  0  0  0  0
  2 15  1  0  0  0  0
  3 16  1  0  0  0  0
  6 17  1  0  0  0  0
  6 18  1  0  0  0  0
  6 19  1  0  0  0  0
  7 20  1  0  0  0  0
  7 21  1  0  0  0  0
  8 22  1  0  0  0  0
 12 23  1  0  0  0  0
 12 24  1  0  0  0  0
 13 25  1  0  0  0  0
M  END
> <FRED Chemgauss4 score>
-8.763670

$$$$
C00052654	P05412671
  -OEChem-05122015313D

 30 33  0     0  0  0  0  0  0999 V2000
  119.8589  103.8725  106.2150 C   0  0  0  0  0  0  0  0  0  0  0  0
  117.5748  109.9580  106.5731 C   0  0  0  0  0  0  0  0  0  0  0  0
  118.3760  108.8770  106.1965 C   0  0  0  0  0  0  0  0  0  0  0  0
  120.3371  103.9283  104.9059 C   0  0  0  0  0  0  0  0  0  0  0  0
  118.5355  104.2174  106.4895 C   0  0  0  0  0  0  0  0  0  0  0  0
  116.2081  109.7797  106.8003 C   0  0  0  0  0  0  0  0  0  0  0  0
  117.8211  107.6061  106.0428 C   0  0  0  0  0  0  0  0  0  0  0  0
  119.4919  104.3292  103.8712 C   0  0  0  0  0  0  0  0  0  0  0  0
  117.6903  104.6183  105.4548 C   0  0  0  0  0  0  0  0  0  0  0  0
  115.6360  108.5142  106.6510 C   0  0  0  0  0  0  0  0  0  0  0  0
  116.4561  107.4345  106.2710 C   0  0  0  0  0  0  0  0  0  0  0  0
  118.1685  104.6742  104.1456 C   0  0  0  0  0  0  0  0  0  0  0  0
  116.3298  104.9653  105.7887 C   0  0  0  0  0  0  0  0  0  0  0  0
  114.4738  105.9732  106.3538 C   0  0  0  0  0  0  0  0  0  0  0  0
  114.2000  108.2919  106.8826 C   0  0  0  0  0  0  0  0  0  0  0  0
  113.6625  107.0703  106.7356 C   0  0  0  0  0  0  0  0  0  0  0  0
  115.3698  104.0671  105.7894 N   0  0  0  0  0  0  0  0  0  0  0  0
  114.1990  104.7018  106.1458 N   0  0  0  0  0  0  0  0  0  0  0  0
  115.8225  106.1841  106.1367 N   0  0  0  0  0  0  0  0  0  0  0  0
  117.0738  105.2110  102.6873 Br  0  0  0  0  0  0  0  0  0  0  0  0
  120.5172  103.5604  107.0205 H   0  0  0  0  0  0  0  0  0  0  0  0
  118.0181  110.9433  106.6891 H   0  0  0  0  0  0  0  0  0  0  0  0
  119.4374  109.0285  106.0211 H   0  0  0  0  0  0  0  0  0  0  0  0
  121.3676  103.6597  104.6924 H   0  0  0  0  0  0  0  0  0  0  0  0
  118.1804  104.1680  107.5163 H   0  0  0  0  0  0  0  0  0  0  0  0
  115.6033  110.6349  107.0912 H   0  0  0  0  0  0  0  0  0  0  0  0
  118.4986  106.8185  105.7492 H   0  0  0  0  0  0  0  0  0  0  0  0
  119.8837  104.3661  102.8578 H   0  0  0  0  0  0  0  0  0  0  0  0
  113.5842  109.1360  107.1744 H   0  0  0  0  0  0  0  0  0  0  0  0
  112.6039  106.9105  106.9088 H   0  0  0  0  0  0  0  0  0  0  0  0
  1  4  1  0  0  0  0
  1  5  2  0  0  0  0
  2  3  1  0  0  0  0
  2  6  2  0  0  0  0
  3  7  2  0  0  0  0
  4  8  2  0  0  0  0
  5  9  1  0  0  0  0
  6 10  1  0  0  0  0
  7 11  1  0  0  0  0
  8 12  1  0  0  0  0
  9 12  2  0  0  0  0
  9 13  1  0  0  0  0
 10 11  2  0  0  0  0
 10 15  1  0  0  0  0
 11 19  1  0  0  0  0
 12 20  1  0  0  0  0
 13 17  2  0  0  0  0
 13 19  1  0  0  0  0
 14 16  1  0  0  0  0
 14 18  2  0  0  0  0
 14 19  1  0  0  0  0
 15 16  2  0  0  0  0
 17 18  1  0  0  0  0
  1 21  1  0  0  0  0
  2 22  1  0  0  0  0
  3 23  1  0  0  0  0
  4 24  1  0  0  0  0
  5 25  1  0  0  0  0
  6 26  1  0  0  0  0
  7 27  1  0  0  0  0
  8 28  1  0  0  0  0
 15 29  1  0  0  0  0
 16 30  1  0  0  0  0
M  END
> <FRED Chemgauss4 score>
-8.761296

$$$$
C37163577	P55271116
  -OEChem-05122015313D

 39 40  0     1  0  0  0  0  0999 V2000
  120.3543  106.2042  104.8161 C   0  0  0  0  0  0  0  0  0  0  0  0
  119.3687  105.3671  105.2957 C   0  0  0  0  0  0  0  0  0  0  0  0
  118.6076  107.4367  104.3262 C   0  0  0  0  0  0  0  0  0  0  0  0
  125.0335  104.8924  107.7307 C   0  0  0  0  0  0  0  0  0  0  0  0
  123.6800  105.4081  107.2477 C   0  0  0  0  0  0  0  0  0  0  0  0
  125.9786  106.0369  108.0798 C   0  0  0  0  0  0  0  0  0  0  0  0
  124.7808  107.5331  106.4374 C   0  0  0  0  0  0  0  0  0  0  0  0
  123.8310  106.3881  106.0813 C   0  0  2  0  0  0  0  0  0  0  0  0
  126.1353  107.0135  106.9154 C   0  0  1  0  0  0  0  0  0  0  0  0
  119.4759  104.0424  105.9396 C   0  0  0  0  0  0  0  0  0  0  0  0
  117.7823  108.5579  103.8264 C   0  0  0  0  0  0  0  0  0  0  0  0
  122.4607  105.9041  103.4479 C   0  0  0  0  0  0  0  0  0  0  0  0
  121.8432  105.9344  104.8445 C   0  0  1  0  0  0  0  0  0  0  0  0
  119.9197  107.3912  104.2594 N   0  0  0  0  0  0  0  0  0  0  0  0
  122.5428  106.8987  105.6795 N   0  0  0  0  0  0  0  0  0  0  0  0
  126.9289  108.1222  107.3245 O   0  0  0  0  0  0  0  0  0  0  0  0
  117.8317  106.0861  105.0466 S   0  0  0  0  0  0  0  0  0  0  0  0
  124.8921  104.2497  108.6071 H   0  0  0  0  0  0  0  0  0  0  0  0
  125.4868  104.2707  106.9487 H   0  0  0  0  0  0  0  0  0  0  0  0
  123.0559  104.5570  106.9484 H   0  0  0  0  0  0  0  0  0  0  0  0
  123.1661  105.8970  108.0862 H   0  0  0  0  0  0  0  0  0  0  0  0
  125.6069  106.5711  108.9641 H   0  0  0  0  0  0  0  0  0  0  0  0
  126.9603  105.6400  108.3652 H   0  0  0  0  0  0  0  0  0  0  0  0
  124.9291  108.1925  105.5724 H   0  0  0  0  0  0  0  0  0  0  0  0
  124.3414  108.1693  107.2188 H   0  0  0  0  0  0  0  0  0  0  0  0
  124.2663  105.8357  105.2250 H   0  0  0  0  0  0  0  0  0  0  0  0
  126.6539  106.5194  106.0853 H   0  0  0  0  0  0  0  0  0  0  0  0
  119.5684  104.1394  107.0334 H   0  0  0  0  0  0  0  0  0  0  0  0
  118.5964  103.4098  105.7318 H   0  0  0  0  0  0  0  0  0  0  0  0
  120.3512  103.4768  105.5774 H   0  0  0  0  0  0  0  0  0  0  0  0
  117.4998  108.4007  102.7737 H   0  0  0  0  0  0  0  0  0  0  0  0
  116.8553  108.6778  104.4106 H   0  0  0  0  0  0  0  0  0  0  0  0
  118.3144  109.5210  103.8932 H   0  0  0  0  0  0  0  0  0  0  0  0
  122.3121  106.8579  102.9300 H   0  0  0  0  0  0  0  0  0  0  0  0
  123.5384  105.7152  103.5086 H   0  0  0  0  0  0  0  0  0  0  0  0
  122.0296  105.1113  102.8262 H   0  0  0  0  0  0  0  0  0  0  0  0
  122.0228  104.9580  105.3112 H   0  0  0  0  0  0  0  0  0  0  0  0
  122.6777  107.7631  105.1590 H   0  0  0  0  0  0  0  0  0  0  0  0
  127.7901  107.7639  107.5918 H   0  0  0  0  0  0  0  0  0  0  0  0
  1  2  2  0  0  0  0
  1 13  1  0  0  0  0
  1 14  1  0  0  0  0
  2 10  1  0  0  0  0
  2 17  1  0  0  0  0
  3 11  1  0  0  0  0
  3 14  2  0  0  0  0
  3 17  1  0  0  0  0
  4  5  1  0  0  0  0
  4  6  1  0  0  0  0
  5  8  1  0  0  0  0
  6  9  1  0  0  0  0
  7  8  1  0  0  0  0
  7  9  1  0  0  0  0
  8 15  1  0  0  0  0
  9 16  1  0  0  0  0
 12 13  1  0  0  0  0
 13 15  1  0  0  0  0
  4 18  1  0  0  0  0
  4 19  1  0  0  0  0
  5 20  1  0  0  0  0
  5 21  1  0  0  0  0
  6 22  1  0  0  0  0
  6 23  1  0  0  0  0
  7 24  1  0  0  0  0
  7 25  1  0  0  0  0
  8 26  1  0  0  0  0
  9 27  1  0  0  0  0
 10 28  1  0  0  0  0
 10 29  1  0  0  0  0
 10 30  1  0  0  0  0
 11 31  1  0  0  0  0
 11 32  1  0  0  0  0
 11 33  1  0  0  0  0
 12 34  1  0  0  0  0
 12 35  1  0  0  0  0
 12 36  1  0  0  0  0
 13 37  1  0  0  0  0
 15 38  1  0  0  0  0
 16 39  1  0  0  0  0
M  END
> <FRED Chemgauss4 score>
-8.758481

$$$$
C50394896	P75386401
  -OEChem-05122015313D

 31 32  0     1  0  0  0  0  0999 V2000
  120.1433  104.0938  106.6673 C   0  0  0  0  0  0  0  0  0  0  0  0
  119.0074  103.8777  105.8347 C   0  0  0  0  0  0  0  0  0  0  0  0
  121.1895  104.6655  105.9773 C   0  0  0  0  0  0  0  0  0  0  0  0
  119.2287  104.2930  104.5398 C   0  0  0  0  0  0  0  0  0  0  0  0
  123.8981  107.7909  106.4979 C   0  0  0  0  0  0  0  0  0  0  0  0
  125.0940  108.3781  109.1217 C   0  0  0  0  0  0  0  0  0  0  0  0
  123.8347  107.5127  108.9861 C   0  0  0  0  0  0  0  0  0  0  0  0
  125.8561  108.5341  107.8124 C   0  0  0  0  0  0  0  0  0  0  0  0
  123.7500  106.7907  107.6379 C   0  0  1  0  0  0  0  0  0  0  0  0
  123.3366  103.8546  107.0377 C   0  0  0  0  0  0  0  0  0  0  0  0
  122.5592  105.0511  106.4929 C   0  0  2  0  0  0  0  0  0  0  0  0
  124.9547  108.6681  106.6886 N   0  0  0  0  0  0  0  0  0  0  0  0
  122.4697  106.1024  107.4943 N   0  0  0  0  0  0  0  0  0  0  0  0
  123.1821  107.8088  105.4997 O   0  0  0  0  0  0  0  0  0  0  0  0
  120.8006  104.9397  104.3323 S   0  0  0  0  0  0  0  0  0  0  0  0
  118.1447  104.2228  103.2143 Cl  0  0  0  0  0  0  0  0  0  0  0  0
  120.1865  103.8409  107.7191 H   0  0  0  0  0  0  0  0  0  0  0  0
  118.0775  103.4395  106.1747 H   0  0  0  0  0  0  0  0  0  0  0  0
  124.8208  109.3807  109.5163 H   0  0  0  0  0  0  0  0  0  0  0  0
  125.7607  107.9341  109.8942 H   0  0  0  0  0  0  0  0  0  0  0  0
  123.8119  106.7736  109.8133 H   0  0  0  0  0  0  0  0  0  0  0  0
  122.9418  108.1553  109.1423 H   0  0  0  0  0  0  0  0  0  0  0  0
  126.4709  109.4315  107.8367 H   0  0  0  0  0  0  0  0  0  0  0  0
  126.4961  107.6740  107.6335 H   0  0  0  0  0  0  0  0  0  0  0  0
  124.5667  106.0902  107.5495 H   0  0  0  0  0  0  0  0  0  0  0  0
  122.7995  103.3790  107.8656 H   0  0  0  0  0  0  0  0  0  0  0  0
  123.4848  103.1037  106.2535 H   0  0  0  0  0  0  0  0  0  0  0  0
  124.3301  104.1418  107.4000 H   0  0  0  0  0  0  0  0  0  0  0  0
  123.1443  105.4823  105.6713 H   0  0  0  0  0  0  0  0  0  0  0  0
  125.0923  109.3986  106.0421 H   0  0  0  0  0  0  0  0  0  0  0  0
  122.2111  105.6956  108.3908 H   0  0  0  0  0  0  0  0  0  0  0  0
  1  2  1  0  0  0  0
  1  3  2  0  0  0  0
  2  4  2  0  0  0  0
  3 11  1  0  0  0  0
  3 15  1  0  0  0  0
  4 15  1  0  0  0  0
  4 16  1  0  0  0  0
  5  9  1  0  0  0  0
  5 12  1  0  0  0  0
  5 14  2  0  0  0  0
  6  7  1  0  0  0  0
  6  8  1  0  0  0  0
  7  9  1  0  0  0  0
  8 12  1  0  0  0  0
  9 13  1  0  0  0  0
 10 11  1  0  0  0  0
 11 13  1  0  0  0  0
  1 17  1  0  0  0  0
  2 18  1  0  0  0  0
  6 19  1  0  0  0  0
  6 20  1  0  0  0  0
  7 21  1  0  0  0  0
  7 22  1  0  0  0  0
  8 23  1  0  0  0  0
  8 24  1  0  0  0  0
  9 25  1  0  0  0  0
 10 26  1  0  0  0  0
 10 27  1  0  0  0  0
 10 28  1  0  0  0  0
 11 29  1  0  0  0  0
 12 30  1  0  0  0  0
 13 31  1  0  0  0  0
M  END
> <FRED Chemgauss4 score>
-8.755216

$$$$
C39094979	P59234636
  -OEChem-05122015313D

 19 19  0     1  0  0  0  0  0999 V2000
  126.3928  106.4926  107.1822 C   0  0  0  0  0  0  0  0  0  0  0  0
  125.0208  107.2206  109.0167 C   0  0  0  0  0  0  0  0  0  0  0  0
  125.8171  106.0189  108.4994 C   0  0  2  0  0  0  0  0  0  0  0  0
  124.5640  107.9200  107.7321 C   0  0  1  0  0  0  0  0  0  0  0  0
  124.2761  109.3982  107.9578 C   0  0  0  0  0  0  0  0  0  0  0  0
  125.6739  107.6396  106.8599 N   0  0  0  0  0  0  0  0  0  0  0  0
  126.8725  105.6416  109.4610 N   0  3  0  0  0  0  0  0  0  0  0  0
  125.6300  108.0576  105.5536 O   0  5  0  0  0  0  0  0  0  0  0  0
  127.2771  105.9291  106.5554 O   0  0  0  0  0  0  0  0  0  0  0  0
  124.1765  106.9204  109.6457 H   0  0  0  0  0  0  0  0  0  0  0  0
  125.6617  107.8851  109.6115 H   0  0  0  0  0  0  0  0  0  0  0  0
  125.1808  105.1441  108.3308 H   0  0  0  0  0  0  0  0  0  0  0  0
  123.6727  107.4114  107.3399 H   0  0  0  0  0  0  0  0  0  0  0  0
  125.1643  109.8967  108.3469 H   0  0  0  0  0  0  0  0  0  0  0  0
  123.4630  109.5152  108.6748 H   0  0  0  0  0  0  0  0  0  0  0  0
  123.9891  109.8706  107.0180 H   0  0  0  0  0  0  0  0  0  0  0  0
  126.9731  106.3475  110.2014 H   0  0  0  0  0  0  0  0  0  0  0  0
  127.7846  105.5473  108.9959 H   0  0  0  0  0  0  0  0  0  0  0  0
  126.6608  104.7436  109.9147 H   0  0  0  0  0  0  0  0  0  0  0  0
  1  3  1  0  0  0  0
  1  6  1  0  0  0  0
  1  9  2  0  0  0  0
  2  3  1  0  0  0  0
  2  4  1  0  0  0  0
  3  7  1  0  0  0  0
  4  5  1  0  0  0  0
  4  6  1  0  0  0  0
  6  8  1  0  0  0  0
  2 10  1  0  0  0  0
  2 11  1  0  0  0  0
  3 12  1  0  0  0  0
  4 13  1  0  0  0  0
  5 14  1  0  0  0  0
  5 15  1  0  0  0  0
  5 16  1  0  0  0  0
  7 17  1  0  0  0  0
  7 18  1  0  0  0  0
  7 19  1  0  0  0  0
M  CHG  2   7   1   8  -1
M  END
> <FRED Chemgauss4 score>
-8.751958

$$$$
C90311313	P141184916
  -OEChem-05122015313D

 39 40  0     1  0  0  0  0  0999 V2000
  122.8694  105.5574  106.2057 C   0  0  0  0  0  0  0  0  0  0  0  0
  123.8607  106.6899  109.1600 C   0  0  0  0  0  0  0  0  0  0  0  0
  125.2759  107.2166  108.9289 C   0  0  0  0  0  0  0  0  0  0  0  0
  123.6806  105.3059  108.5491 C   0  0  0  0  0  0  0  0  0  0  0  0
  118.8937  104.8124  106.8581 C   0  0  0  0  0  0  0  0  0  0  0  0
  125.9403  106.5902  107.7076 C   0  0  0  0  0  0  0  0  0  0  0  0
  124.0618  105.2964  107.0669 C   0  0  2  0  0  0  0  0  0  0  0  0
  119.5594  103.6625  106.0787 C   0  0  2  0  0  0  0  0  0  0  0  0
  120.6195  104.6658  105.5676 C   0  0  1  0  0  0  0  0  0  0  0  0
  119.6747  105.8247  105.9884 C   0  0  2  0  0  0  0  0  0  0  0  0
  119.9440  108.8415  108.0805 C   0  0  0  0  0  0  0  0  0  0  0  0
  119.2783  107.6912  107.3557 C   0  0  0  0  0  0  0  0  0  0  0  0
  118.6916  103.2924  104.9602 N   0  0  0  0  0  0  0  0  0  0  0  0
  121.8743  104.6054  106.3190 N   0  0  0  0  0  0  0  0  0  0  0  0
  122.8478  106.5510  105.4887 O   0  0  0  0  0  0  0  0  0  0  0  0
  124.9721  106.3308  106.6973 O   0  0  0  0  0  0  0  0  0  0  0  0
  120.2679  106.9309  106.6915 O   0  0  0  0  0  0  0  0  0  0  0  0
  123.6653  106.6401  110.2409 H   0  0  0  0  0  0  0  0  0  0  0  0
  123.1262  107.3888  108.7376 H   0  0  0  0  0  0  0  0  0  0  0  0
  125.2208  108.3098  108.7848 H   0  0  0  0  0  0  0  0  0  0  0  0
  125.8940  107.0481  109.8263 H   0  0  0  0  0  0  0  0  0  0  0  0
  124.2738  104.5637  109.1016 H   0  0  0  0  0  0  0  0  0  0  0  0
  122.6262  105.0096  108.6623 H   0  0  0  0  0  0  0  0  0  0  0  0
  117.7988  104.9085  106.7508 H   0  0  0  0  0  0  0  0  0  0  0  0
  119.1242  104.8362  107.9349 H   0  0  0  0  0  0  0  0  0  0  0  0
  126.6810  107.2797  107.2945 H   0  0  0  0  0  0  0  0  0  0  0  0
  126.4567  105.6608  107.9689 H   0  0  0  0  0  0  0  0  0  0  0  0
  124.4806  104.3168  106.7611 H   0  0  0  0  0  0  0  0  0  0  0  0
  119.9250  102.8310  106.6867 H   0  0  0  0  0  0  0  0  0  0  0  0
  120.8189  104.6505  104.4928 H   0  0  0  0  0  0  0  0  0  0  0  0
  119.0751  106.2180  105.1465 H   0  0  0  0  0  0  0  0  0  0  0  0
  120.6583  108.4741  108.8226 H   0  0  0  0  0  0  0  0  0  0  0  0
  120.4712  109.4901  107.3732 H   0  0  0  0  0  0  0  0  0  0  0  0
  119.1974  109.4627  108.5862 H   0  0  0  0  0  0  0  0  0  0  0  0
  118.5653  108.0655  106.6151 H   0  0  0  0  0  0  0  0  0  0  0  0
  118.7527  107.0438  108.0640 H   0  0  0  0  0  0  0  0  0  0  0  0
  117.7209  103.1456  105.1435 H   0  0  0  0  0  0  0  0  0  0  0  0
  119.1197  103.0020  104.1059 H   0  0  0  0  0  0  0  0  0  0  0  0
  122.0205  103.8265  106.9541 H   0  0  0  0  0  0  0  0  0  0  0  0
  1  7  1  0  0  0  0
  1 14  1  0  0  0  0
  1 15  2  0  0  0  0
  2  3  1  0  0  0  0
  2  4  1  0  0  0  0
  3  6  1  0  0  0  0
  4  7  1  0  0  0  0
  5  8  1  0  0  0  0
  5 10  1  0  0  0  0
  6 16  1  0  0  0  0
  7 16  1  0  0  0  0
  8  9  1  0  0  0  0
  8 13  1  0  0  0  0
  9 10  1  0  0  0  0
  9 14  1  0  0  0  0
 10 17  1  0  0  0  0
 11 12  1  0  0  0  0
 12 17  1  0  0  0  0
  2 18  1  0  0  0  0
  2 19  1  0  0  0  0
  3 20  1  0  0  0  0
  3 21  1  0  0  0  0
  4 22  1  0  0  0  0
  4 23  1  0  0  0  0
  5 24  1  0  0  0  0
  5 25  1  0  0  0  0
  6 26  1  0  0  0  0
  6 27  1  0  0  0  0
  7 28  1  0  0  0  0
  8 29  1  0  0  0  0
  9 30  1  0  0  0  0
 10 31  1  0  0  0  0
 11 32  1  0  0  0  0
 11 33  1  0  0  0  0
 11 34  1  0  0  0  0
 12 35  1  0  0  0  0
 12 36  1  0  0  0  0
 13 37  1  0  0  0  0
 13 38  1  0  0  0  0
 14 39  1  0  0  0  0
M  END
> <FRED Chemgauss4 score>
-8.750319

$$$$
C40362617	P61274397
  -OEChem-05122015313D

 35 35  0     1  0  0  0  0  0999 V2000
  124.6979  105.9489  107.6847 C   0  0  0  0  0  0  0  0  0  0  0  0
  118.9267  104.0972  106.3231 C   0  0  0  0  0  0  0  0  0  0  0  0
  118.9474  106.0355  104.7090 C   0  0  0  0  0  0  0  0  0  0  0  0
  120.2383  103.6093  105.7169 C   0  0  0  0  0  0  0  0  0  0  0  0
  120.2585  105.5109  104.1330 C   0  0  0  0  0  0  0  0  0  0  0  0
  118.1039  104.8978  105.3029 C   0  0  0  0  0  0  0  0  0  0  0  0
  116.8293  105.4439  105.9422 C   0  0  0  0  0  0  0  0  0  0  0  0
  125.2511  103.4995  107.3570 C   0  0  0  0  0  0  0  0  0  0  0  0
  124.4696  104.7014  106.8445 C   0  0  1  0  0  0  0  0  0  0  0  0
  121.0163  104.7524  105.1656 N   0  0  0  0  0  0  0  0  0  0  0  0
  123.8707  106.1209  108.7626 N   0  0  0  0  0  0  0  0  0  0  0  0
  123.0188  104.4313  106.8445 N   0  0  0  0  0  0  0  0  0  0  0  0
  121.1155  106.0753  107.3586 O   0  0  0  0  0  0  0  0  0  0  0  0
  122.7362  106.6304  105.5120 O   0  0  0  0  0  0  0  0  0  0  0  0
  125.8919  107.0619  107.3126 S   0  0  0  0  0  0  0  0  0  0  0  0
  121.9661  105.6544  106.2604 S   0  0  0  0  0  0  0  0  0  0  0  0
  118.3479  103.2373  106.6794 H   0  0  0  0  0  0  0  0  0  0  0  0
  119.1423  104.7245  107.1977 H   0  0  0  0  0  0  0  0  0  0  0  0
  119.1638  106.7791  105.4868 H   0  0  0  0  0  0  0  0  0  0  0  0
  118.3831  106.5485  103.9216 H   0  0  0  0  0  0  0  0  0  0  0  0
  120.8276  103.1110  106.5004 H   0  0  0  0  0  0  0  0  0  0  0  0
  120.0466  102.8732  104.9215 H   0  0  0  0  0  0  0  0  0  0  0  0
  120.0677  104.8637  103.2636 H   0  0  0  0  0  0  0  0  0  0  0  0
  120.8617  106.3641  103.7901 H   0  0  0  0  0  0  0  0  0  0  0  0
  117.8084  104.2215  104.4872 H   0  0  0  0  0  0  0  0  0  0  0  0
  117.0847  106.1199  106.7569 H   0  0  0  0  0  0  0  0  0  0  0  0
  116.2316  104.6228  106.3349 H   0  0  0  0  0  0  0  0  0  0  0  0
  116.2460  105.9859  105.1992 H   0  0  0  0  0  0  0  0  0  0  0  0
  124.9950  103.2833  108.3995 H   0  0  0  0  0  0  0  0  0  0  0  0
  125.0262  102.6108  106.7573 H   0  0  0  0  0  0  0  0  0  0  0  0
  126.3334  103.6595  107.3040 H   0  0  0  0  0  0  0  0  0  0  0  0
  124.7495  104.8891  105.8016 H   0  0  0  0  0  0  0  0  0  0  0  0
  123.1442  105.4548  109.0034 H   0  0  0  0  0  0  0  0  0  0  0  0
  123.9681  106.9260  109.3723 H   0  0  0  0  0  0  0  0  0  0  0  0
  122.6978  103.9174  107.6754 H   0  0  0  0  0  0  0  0  0  0  0  0
  1  9  1  0  0  0  0
  1 11  1  0  0  0  0
  1 15  2  0  0  0  0
  2  4  1  0  0  0  0
  2  6  1  0  0  0  0
  3  5  1  0  0  0  0
  3  6  1  0  0  0  0
  4 10  1  0  0  0  0
  5 10  1  0  0  0  0
  6  7  1  0  0  0  0
  8  9  1  0  0  0  0
  9 12  1  0  0  0  0
 10 16  1  0  0  0  0
 12 16  1  0  0  0  0
 13 16  2  0  0  0  0
 14 16  2  0  0  0  0
  2 17  1  0  0  0  0
  2 18  1  0  0  0  0
  3 19  1  0  0  0  0
  3 20  1  0  0  0  0
  4 21  1  0  0  0  0
  4 22  1  0  0  0  0
  5 23  1  0  0  0  0
  5 24  1  0  0  0  0
  6 25  1  0  0  0  0
  7 26  1  0  0  0  0
  7 27  1  0  0  0  0
  7 28  1  0  0  0  0
  8 29  1  0  0  0  0
  8 30  1  0  0  0  0
  8 31  1  0  0  0  0
  9 32  1  0  0  0  0
 11 33  1  0  0  0  0
 11 34  1  0  0  0  0
 12 35  1  0  0  0  0
M  END
> <FRED Chemgauss4 score>
-8.749757

$$$$
C85446673	P133732895
  -OEChem-05122015313D

 27 27  0     0  0  0  0  0  0999 V2000
  120.3196  105.2043  105.8811 C   0  0  0  0  0  0  0  0  0  0  0  0
  120.4770  106.2622  105.0104 C   0  0  0  0  0  0  0  0  0  0  0  0
  122.5433  106.1182  105.7312 C   0  0  0  0  0  0  0  0  0  0  0  0
  119.4124  106.8634  104.1829 C   0  0  0  0  0  0  0  0  0  0  0  0
  124.0072  106.3988  105.9109 C   0  0  0  0  0  0  0  0  0  0  0  0
  125.3856  108.2140  107.9588 C   0  0  0  0  0  0  0  0  0  0  0  0
  126.4280  106.0484  108.7092 C   0  0  0  0  0  0  0  0  0  0  0  0
  125.6927  106.7671  107.5796 C   0  0  0  0  0  0  0  0  0  0  0  0
  121.7513  106.7878  104.9234 N   0  0  0  0  0  0  0  0  0  0  0  0
  124.4654  106.0688  107.2568 N   0  0  0  0  0  0  0  0  0  0  0  0
  126.5600  109.0026  107.8024 O   0  0  0  0  0  0  0  0  0  0  0  0
  127.6529  106.7211  108.9783 O   0  0  0  0  0  0  0  0  0  0  0  0
  121.8220  104.8432  106.6252 S   0  0  0  0  0  0  0  0  0  0  0  0
  119.4253  104.6420  106.1101 H   0  0  0  0  0  0  0  0  0  0  0  0
  118.9072  107.6828  104.7198 H   0  0  0  0  0  0  0  0  0  0  0  0
  119.8058  107.2744  103.2376 H   0  0  0  0  0  0  0  0  0  0  0  0
  118.6437  106.1250  103.8977 H   0  0  0  0  0  0  0  0  0  0  0  0
  124.6023  105.8156  105.1996 H   0  0  0  0  0  0  0  0  0  0  0  0
  124.2297  107.4559  105.7312 H   0  0  0  0  0  0  0  0  0  0  0  0
  125.0747  108.2833  109.0064 H   0  0  0  0  0  0  0  0  0  0  0  0
  124.5969  108.6357  107.3260 H   0  0  0  0  0  0  0  0  0  0  0  0
  126.6526  105.0090  108.4457 H   0  0  0  0  0  0  0  0  0  0  0  0
  125.8328  106.0599  109.6281 H   0  0  0  0  0  0  0  0  0  0  0  0
  126.2920  106.7355  106.6619 H   0  0  0  0  0  0  0  0  0  0  0  0
  124.6185  105.0596  107.3151 H   0  0  0  0  0  0  0  0  0  0  0  0
  126.3215  109.9093  108.0525 H   0  0  0  0  0  0  0  0  0  0  0  0
  128.0853  106.2344  109.6979 H   0  0  0  0  0  0  0  0  0  0  0  0
  1  2  2  0  0  0  0
  1 13  1  0  0  0  0
  2  4  1  0  0  0  0
  2  9  1  0  0  0  0
  3  5  1  0  0  0  0
  3  9  2  0  0  0  0
  3 13  1  0  0  0  0
  5 10  1  0  0  0  0
  6  8  1  0  0  0  0
  6 11  1  0  0  0  0
  7  8  1  0  0  0  0
  7 12  1  0  0  0  0
  8 10  1  0  0  0  0
  1 14  1  0  0  0  0
  4 15  1  0  0  0  0
  4 16  1  0  0  0  0
  4 17  1  0  0  0  0
  5 18  1  0  0  0  0
  5 19  1  0  0  0  0
  6 20  1  0  0  0  0
  6 21  1  0  0  0  0
  7 22  1  0  0  0  0
  7 23  1  0  0  0  0
  8 24  1  0  0  0  0
 10 25  1  0  0  0  0
 11 26  1  0  0  0  0
 12 27  1  0  0  0  0
M  END
> <FRED Chemgauss4 score>
-8.745708

$$$$
L-Leucine	P10000026
  -OEChem-05122015313D

 22 21  0     1  0  0  0  0  0999 V2000
  124.5422  108.7392  107.9383 C   0  0  0  0  0  0  0  0  0  0  0  0
  125.4312  105.3885  105.9656 C   0  0  0  0  0  0  0  0  0  0  0  0
  124.9127  104.1235  108.0616 C   0  0  0  0  0  0  0  0  0  0  0  0
  125.8001  106.5151  108.1827 C   0  0  0  0  0  0  0  0  0  0  0  0
  125.8055  107.9346  107.6009 C   0  0  2  0  0  0  0  0  0  0  0  0
  124.9277  105.5055  107.4070 C   0  0  0  0  0  0  0  0  0  0  0  0
  127.0406  108.6084  108.1179 N   0  3  0  0  0  0  0  0  0  0  0  0
  124.7322  109.9802  108.0864 O   0  5  0  0  0  0  0  0  0  0  0  0
  123.4703  108.0758  108.0137 O   0  0  0  0  0  0  0  0  0  0  0  0
  126.4628  105.0215  105.9328 H   0  0  0  0  0  0  0  0  0  0  0  0
  125.4005  106.3608  105.4625 H   0  0  0  0  0  0  0  0  0  0  0  0
  124.8071  104.6967  105.3900 H   0  0  0  0  0  0  0  0  0  0  0  0
  125.9207  103.7034  108.1291 H   0  0  0  0  0  0  0  0  0  0  0  0
  124.2872  103.4236  107.4973 H   0  0  0  0  0  0  0  0  0  0  0  0
  124.5182  104.1815  109.0819 H   0  0  0  0  0  0  0  0  0  0  0  0
  126.8288  106.1317  108.2227 H   0  0  0  0  0  0  0  0  0  0  0  0
  125.4514  106.5552  109.2239 H   0  0  0  0  0  0  0  0  0  0  0  0
  125.9426  107.8975  106.5149 H   0  0  0  0  0  0  0  0  0  0  0  0
  123.8963  105.8758  107.3660 H   0  0  0  0  0  0  0  0  0  0  0  0
  127.1165  109.5489  107.7300 H   0  0  0  0  0  0  0  0  0  0  0  0
  127.8689  108.0753  107.8516 H   0  0  0  0  0  0  0  0  0  0  0  0
  127.0053  108.6743  109.1354 H   0  0  0  0  0  0  0  0  0  0  0  0
  1  5  1  0  0  0  0
  1  8  1  0  0  0  0
  1  9  2  0  0  0  0
  2  6  1  0  0  0  0
  3  6  1  0  0  0  0
  4  5  1  0  0  0  0
  4  6  1  0  0  0  0
  5  7  1  0  0  0  0
  2 10  1  0  0  0  0
  2 11  1  0  0  0  0
  2 12  1  0  0  0  0
  3 13  1  0  0  0  0
  3 14  1  0  0  0  0
  3 15  1  0  0  0  0
  4 16  1  0  0  0  0
  4 17  1  0  0  0  0
  5 18  1  0  0  0  0
  6 19  1  0  0  0  0
  7 20  1  0  0  0  0
  7 21  1  0  0  0  0
  7 22  1  0  0  0  0
M  CHG  2   7   1   8  -1
M  END
> <FRED Chemgauss4 score>
-8.744357

$$$$
C36872179	P90374924
  -OEChem-05122015313D

 26 27  0     1  0  0  0  0  0999 V2000
  124.1163  108.3140  107.0701 C   0  0  0  0  0  0  0  0  0  0  0  0
  126.1639  108.3412  108.3315 C   0  0  0  0  0  0  0  0  0  0  0  0
  124.8532  107.8646  105.9862 C   0  0  0  0  0  0  0  0  0  0  0  0
  126.8091  107.8904  107.1912 C   0  0  0  0  0  0  0  0  0  0  0  0
  123.5012  108.2089  110.3638 C   0  0  0  0  0  0  0  0  0  0  0  0
  124.7917  108.5545  108.2614 C   0  0  0  0  0  0  0  0  0  0  0  0
  124.0752  109.0213  109.4146 C   0  0  0  0  0  0  0  0  0  0  0  0
  123.1868  110.3398  110.8297 C   0  0  0  0  0  0  0  0  0  0  0  0
  123.2654  111.6087  113.0151 C   0  0  0  0  0  0  0  0  0  0  0  0
  122.7074  111.5154  111.5800 C   0  0  2  0  0  0  0  0  0  0  0  0
  126.1869  107.6458  106.0161 N   0  0  0  0  0  0  0  0  0  0  0  0
  123.8762  110.3466  109.7105 N   0  0  0  0  0  0  0  0  0  0  0  0
  122.9363  109.0679  111.2640 N   0  0  0  0  0  0  0  0  0  0  0  0
  121.2510  111.5955  111.6310 N   0  0  0  0  0  0  0  0  0  0  0  0
  123.0461  108.4686  106.9767 H   0  0  0  0  0  0  0  0  0  0  0  0
  126.7256  108.5177  109.2432 H   0  0  0  0  0  0  0  0  0  0  0  0
  124.3737  107.6619  105.0341 H   0  0  0  0  0  0  0  0  0  0  0  0
  127.8787  107.7082  107.1937 H   0  0  0  0  0  0  0  0  0  0  0  0
  123.4418  107.1359  110.4832 H   0  0  0  0  0  0  0  0  0  0  0  0
  123.0110  110.7066  113.5823 H   0  0  0  0  0  0  0  0  0  0  0  0
  124.3558  111.7177  113.0221 H   0  0  0  0  0  0  0  0  0  0  0  0
  122.8524  112.4716  113.5496 H   0  0  0  0  0  0  0  0  0  0  0  0
  123.0047  112.4585  111.0752 H   0  0  0  0  0  0  0  0  0  0  0  0
  122.4268  108.8077  112.0982 H   0  0  0  0  0  0  0  0  0  0  0  0
  120.7363  111.3128  110.8248 H   0  0  0  0  0  0  0  0  0  0  0  0
  120.8346  112.1121  112.3757 H   0  0  0  0  0  0  0  0  0  0  0  0
  1  3  2  0  0  0  0
  1  6  1  0  0  0  0
  2  4  1  0  0  0  0
  2  6  2  0  0  0  0
  3 11  1  0  0  0  0
  4 11  2  0  0  0  0
  5  7  2  0  0  0  0
  5 13  1  0  0  0  0
  6  7  1  0  0  0  0
  7 12  1  0  0  0  0
  8 10  1  0  0  0  0
  8 12  2  0  0  0  0
  8 13  1  0  0  0  0
  9 10  1  0  0  0  0
 10 14  1  0  0  0  0
  1 15  1  0  0  0  0
  2 16  1  0  0  0  0
  3 17  1  0  0  0  0
  4 18  1  0  0  0  0
  5 19  1  0  0  0  0
  9 20  1  0  0  0  0
  9 21  1  0  0  0  0
  9 22  1  0  0  0  0
 10 23  1  0  0  0  0
 13 24  1  0  0  0  0
 14 25  1  0  0  0  0
 14 26  1  0  0  0  0
M  END
> <FRED Chemgauss4 score>
-8.742479

$$$$
C54504056	P82019658
  -OEChem-05122015313D

 27 29  0     1  0  0  0  0  0999 V2000
  125.4794  107.9433  106.7738 C   0  0  0  0  0  0  0  0  0  0  0  0
  124.4781  108.5567  108.5987 C   0  0  0  0  0  0  0  0  0  0  0  0
  123.2628  109.7572  112.1414 C   0  0  0  0  0  0  0  0  0  0  0  0
  122.9256  110.6881  111.0104 C   0  0  0  0  0  0  0  0  0  0  0  0
  124.6719  104.9457  107.1907 C   0  0  0  0  0  0  0  0  0  0  0  0
  123.4128  105.2873  107.9239 C   0  0  0  0  0  0  0  0  0  0  0  0
  123.9905  109.6419  110.8307 C   0  0  0  0  0  0  0  0  0  0  0  0
  124.6963  106.0072  108.2654 C   0  0  0  0  0  0  0  0  0  0  0  0
  123.7505  108.4724  109.9402 C   0  0  1  0  0  0  0  0  0  0  0  0
  125.4550  109.2569  106.7882 N   0  0  0  0  0  0  0  0  0  0  0  0
  124.8179  109.6472  107.9493 N   0  0  0  0  0  0  0  0  0  0  0  0
  124.8751  107.4605  107.8948 N   0  0  0  0  0  0  0  0  0  0  0  0
  122.3254  108.2529  109.7189 N   0  0  0  0  0  0  0  0  0  0  0  0
  125.9066  107.3154  106.0049 H   0  0  0  0  0  0  0  0  0  0  0  0
  123.7895  110.1700  112.9930 H   0  0  0  0  0  0  0  0  0  0  0  0
  122.5455  108.9845  112.3891 H   0  0  0  0  0  0  0  0  0  0  0  0
  121.9819  110.5397  110.5000 H   0  0  0  0  0  0  0  0  0  0  0  0
  123.2267  111.7242  111.1046 H   0  0  0  0  0  0  0  0  0  0  0  0
  125.1427  103.9953  107.4104 H   0  0  0  0  0  0  0  0  0  0  0  0
  124.7517  105.2571  106.1561 H   0  0  0  0  0  0  0  0  0  0  0  0
  122.6456  105.8275  107.3826 H   0  0  0  0  0  0  0  0  0  0  0  0
  123.0343  104.5680  108.6399 H   0  0  0  0  0  0  0  0  0  0  0  0
  125.0211  109.9742  110.7967 H   0  0  0  0  0  0  0  0  0  0  0  0
  125.1759  105.7828  109.1929 H   0  0  0  0  0  0  0  0  0  0  0  0
  124.0896  107.5447  110.4445 H   0  0  0  0  0  0  0  0  0  0  0  0
  121.6972  108.4479  110.4690 H   0  0  0  0  0  0  0  0  0  0  0  0
  122.0490  107.7313  108.9145 H   0  0  0  0  0  0  0  0  0  0  0  0
  1 10  2  0  0  0  0
  1 12  1  0  0  0  0
  2  9  1  0  0  0  0
  2 11  2  0  0  0  0
  2 12  1  0  0  0  0
  3  4  1  0  0  0  0
  3  7  1  0  0  0  0
  4  7  1  0  0  0  0
  5  6  1  0  0  0  0
  5  8  1  0  0  0  0
  6  8  1  0  0  0  0
  7  9  1  0  0  0  0
  8 12  1  0  0  0  0
  9 13  1  0  0  0  0
 10 11  1  0  0  0  0
  1 14  1  0  0  0  0
  3 15  1  0  0  0  0
  3 16  1  0  0  0  0
  4 17  1  0  0  0  0
  4 18  1  0  0  0  0
  5 19  1  0  0  0  0
  5 20  1  0  0  0  0
  6 21  1  0  0  0  0
  6 22  1  0  0  0  0
  7 23  1  0  0  0  0
  8 24  1  0  0  0  0
  9 25  1  0  0  0  0
 13 26  1  0  0  0  0
 13 27  1  0  0  0  0
M  END
> <FRED Chemgauss4 score>
-8.741726

$$$$
C90017133	P140710816
  -OEChem-05122015313D

 33 33  0     1  0  0  0  0  0999 V2000
  117.7675  104.0649  105.5401 C   0  0  0  0  0  0  0  0  0  0  0  0
  119.0216  105.9818  106.5618 C   0  0  0  0  0  0  0  0  0  0  0  0
  124.8631  106.9205  106.8733 C   0  0  0  0  0  0  0  0  0  0  0  0
  119.0468  103.2642  105.4907 C   0  0  0  0  0  0  0  0  0  0  0  0
  119.9965  103.6727  106.6019 C   0  0  0  0  0  0  0  0  0  0  0  0
  120.2887  105.1602  106.4941 C   0  0  2  0  0  0  0  0  0  0  0  0
  124.8443  103.8252  106.6159 C   0  0  0  0  0  0  0  0  0  0  0  0
  123.7554  104.6494  107.2880 C   0  0  0  0  0  0  0  0  0  0  0  0
  123.6250  106.0553  106.6909 C   0  0  1  0  0  0  0  0  0  0  0  0
  117.8840  105.3494  106.0627 N   0  0  0  0  0  0  0  0  0  0  0  0
  125.6554  106.6426  107.9540 N   0  0  0  0  0  0  0  0  0  0  0  0
  121.1564  105.5684  107.6176 N   0  0  0  0  0  0  0  0  0  0  0  0
  116.7115  103.6165  105.0948 O   0  0  0  0  0  0  0  0  0  0  0  0
  119.0017  107.1391  106.9806 O   0  0  0  0  0  0  0  0  0  0  0  0
  122.6278  107.3986  108.7037 O   0  0  0  0  0  0  0  0  0  0  0  0
  121.6774  107.7659  106.3976 O   0  0  0  0  0  0  0  0  0  0  0  0
  125.2497  108.1479  105.8017 S   0  0  0  0  0  0  0  0  0  0  0  0
  122.2242  106.8839  107.4103 S   0  0  0  0  0  0  0  0  0  0  0  0
  118.7976  102.2025  105.5930 H   0  0  0  0  0  0  0  0  0  0  0  0
  119.5065  103.4147  104.5077 H   0  0  0  0  0  0  0  0  0  0  0  0
  119.5468  103.4406  107.5767 H   0  0  0  0  0  0  0  0  0  0  0  0
  120.9244  103.0928  106.5324 H   0  0  0  0  0  0  0  0  0  0  0  0
  120.7997  105.3926  105.5507 H   0  0  0  0  0  0  0  0  0  0  0  0
  125.8117  104.3354  106.6508 H   0  0  0  0  0  0  0  0  0  0  0  0
  124.5934  103.6575  105.5635 H   0  0  0  0  0  0  0  0  0  0  0  0
  124.9509  102.8481  107.0978 H   0  0  0  0  0  0  0  0  0  0  0  0
  122.8055  104.1054  107.2318 H   0  0  0  0  0  0  0  0  0  0  0  0
  123.9950  104.7314  108.3557 H   0  0  0  0  0  0  0  0  0  0  0  0
  123.3787  105.9688  105.6252 H   0  0  0  0  0  0  0  0  0  0  0  0
  117.0283  105.8978  106.0832 H   0  0  0  0  0  0  0  0  0  0  0  0
  125.4470  105.8957  108.6080 H   0  0  0  0  0  0  0  0  0  0  0  0
  126.4997  107.1764  108.1319 H   0  0  0  0  0  0  0  0  0  0  0  0
  120.7176  105.4669  108.5420 H   0  0  0  0  0  0  0  0  0  0  0  0
  1  4  1  0  0  0  0
  1 10  1  0  0  0  0
  1 13  2  0  0  0  0
  2  6  1  0  0  0  0
  2 10  1  0  0  0  0
  2 14  2  0  0  0  0
  3  9  1  0  0  0  0
  3 11  1  0  0  0  0
  3 17  2  0  0  0  0
  4  5  1  0  0  0  0
  5  6  1  0  0  0  0
  6 12  1  0  0  0  0
  7  8  1  0  0  0  0
  8  9  1  0  0  0  0
  9 18  1  0  0  0  0
 12 18  1  0  0  0  0
 15 18  2  0  0  0  0
 16 18  2  0  0  0  0
  4 19  1  0  0  0  0
  4 20  1  0  0  0  0
  5 21  1  0  0  0  0
  5 22  1  0  0  0  0
  6 23  1  0  0  0  0
  7 24  1  0  0  0  0
  7 25  1  0  0  0  0
  7 26  1  0  0  0  0
  8 27  1  0  0  0  0
  8 28  1  0  0  0  0
  9 29  1  0  0  0  0
 10 30  1  0  0  0  0
 11 31  1  0  0  0  0
 11 32  1  0  0  0  0
 12 33  1  0  0  0  0
M  END
> <FRED Chemgauss4 score>
-8.740499

$$$$
C82410021	P128783110
  -OEChem-05122015313D

 21 21  0     1  0  0  0  0  0999 V2000
  126.6918  105.1702  109.5503 C   0  0  0  0  0  0  0  0  0  0  0  0
  125.2399  105.4278  108.0154 C   0  0  0  0  0  0  0  0  0  0  0  0
  125.7563  106.6809  108.2468 C   0  0  0  0  0  0  0  0  0  0  0  0
  124.2011  105.0298  107.0520 C   0  0  0  0  0  0  0  0  0  0  0  0
  124.4093  108.8015  108.4304 C   0  0  0  0  0  0  0  0  0  0  0  0
  125.4714  108.0348  107.6383 C   0  0  1  0  0  0  0  0  0  0  0  0
  125.8262  104.4919  108.8302 N   0  0  0  0  0  0  0  0  0  0  0  0
  126.6848  106.5000  109.2329 N   0  0  0  0  0  0  0  0  0  0  0  0
  124.1730  110.0875  107.8136 N   0  0  0  0  0  0  0  0  0  0  0  0
  126.6876  108.7826  107.6121 O   0  0  0  0  0  0  0  0  0  0  0  0
  127.3449  104.7646  110.3098 H   0  0  0  0  0  0  0  0  0  0  0  0
  124.6410  104.7543  106.0777 H   0  0  0  0  0  0  0  0  0  0  0  0
  123.6118  104.1646  107.4060 H   0  0  0  0  0  0  0  0  0  0  0  0
  123.4692  105.8374  106.8687 H   0  0  0  0  0  0  0  0  0  0  0  0
  124.7355  108.9654  109.4633 H   0  0  0  0  0  0  0  0  0  0  0  0
  123.4624  108.2511  108.4573 H   0  0  0  0  0  0  0  0  0  0  0  0
  125.1530  107.9120  106.5957 H   0  0  0  0  0  0  0  0  0  0  0  0
  127.2636  107.2161  109.6515 H   0  0  0  0  0  0  0  0  0  0  0  0
  124.9522  110.5896  107.4281 H   0  0  0  0  0  0  0  0  0  0  0  0
  123.2888  110.5395  107.9614 H   0  0  0  0  0  0  0  0  0  0  0  0
  127.3096  108.2742  107.0703 H   0  0  0  0  0  0  0  0  0  0  0  0
  1  7  2  0  0  0  0
  1  8  1  0  0  0  0
  2  3  2  0  0  0  0
  2  4  1  0  0  0  0
  2  7  1  0  0  0  0
  3  6  1  0  0  0  0
  3  8  1  0  0  0  0
  5  6  1  0  0  0  0
  5  9  1  0  0  0  0
  6 10  1  0  0  0  0
  1 11  1  0  0  0  0
  4 12  1  0  0  0  0
  4 13  1  0  0  0  0
  4 14  1  0  0  0  0
  5 15  1  0  0  0  0
  5 16  1  0  0  0  0
  6 17  1  0  0  0  0
  8 18  1  0  0  0  0
  9 19  1  0  0  0  0
  9 20  1  0  0  0  0
 10 21  1  0  0  0  0
M  END
> <FRED Chemgauss4 score>
-8.740072

$$$$
C84081050	P131584458
  -OEChem-05122015313D

 27 28  0     1  0  0  0  0  0999 V2000
  119.8782  105.7397  106.7901 C   0  0  0  0  0  0  0  0  0  0  0  0
  119.7583  103.6882  106.2357 C   0  0  0  0  0  0  0  0  0  0  0  0
  120.7558  105.0828  107.6201 C   0  0  0  0  0  0  0  0  0  0  0  0
  124.8647  108.8444  108.4500 C   0  0  0  0  0  0  0  0  0  0  0  0
  124.4653  106.5705  108.4788 C   0  0  0  0  0  0  0  0  0  0  0  0
  123.6543  108.6722  109.3248 C   0  0  0  0  0  0  0  0  0  0  0  0
  123.3217  107.1901  109.2384 C   0  0  1  0  0  0  0  0  0  0  0  0
  126.4681  107.3849  107.2399 C   0  0  0  0  0  0  0  0  0  0  0  0
  121.6635  105.5607  108.7164 C   0  0  0  0  0  0  0  0  0  0  0  0
  119.2603  104.8659  105.9309 N   0  0  0  0  0  0  0  0  0  0  0  0
  120.6677  103.7694  107.2534 N   0  0  0  0  0  0  0  0  0  0  0  0
  125.2907  107.5931  108.0610 N   0  0  0  0  0  0  0  0  0  0  0  0
  122.1311  106.9202  108.4829 N   0  0  0  0  0  0  0  0  0  0  0  0
  125.3633  109.9274  108.1762 O   0  0  0  0  0  0  0  0  0  0  0  0
  124.5690  105.3759  108.2343 O   0  0  0  0  0  0  0  0  0  0  0  0
  119.6580  106.7974  106.7656 H   0  0  0  0  0  0  0  0  0  0  0  0
  119.5065  102.7488  105.7644 H   0  0  0  0  0  0  0  0  0  0  0  0
  123.9152  108.9554  110.3497 H   0  0  0  0  0  0  0  0  0  0  0  0
  122.8446  109.3213  108.9768 H   0  0  0  0  0  0  0  0  0  0  0  0
  123.2611  106.7385  110.2308 H   0  0  0  0  0  0  0  0  0  0  0  0
  127.3511  107.2649  107.8729 H   0  0  0  0  0  0  0  0  0  0  0  0
  126.6234  108.2411  106.5779 H   0  0  0  0  0  0  0  0  0  0  0  0
  126.3485  106.4864  106.6286 H   0  0  0  0  0  0  0  0  0  0  0  0
  121.1456  105.5432  109.6815 H   0  0  0  0  0  0  0  0  0  0  0  0
  122.5433  104.9151  108.8076 H   0  0  0  0  0  0  0  0  0  0  0  0
  121.1807  102.9969  107.6576 H   0  0  0  0  0  0  0  0  0  0  0  0
  121.4025  107.5779  108.7592 H   0  0  0  0  0  0  0  0  0  0  0  0
  1  3  2  0  0  0  0
  1 10  1  0  0  0  0
  2 10  2  0  0  0  0
  2 11  1  0  0  0  0
  3  9  1  0  0  0  0
  3 11  1  0  0  0  0
  4  6  1  0  0  0  0
  4 12  1  0  0  0  0
  4 14  2  0  0  0  0
  5  7  1  0  0  0  0
  5 12  1  0  0  0  0
  5 15  2  0  0  0  0
  6  7  1  0  0  0  0
  7 13  1  0  0  0  0
  8 12  1  0  0  0  0
  9 13  1  0  0  0  0
  1 16  1  0  0  0  0
  2 17  1  0  0  0  0
  6 18  1  0  0  0  0
  6 19  1  0  0  0  0
  7 20  1  0  0  0  0
  8 21  1  0  0  0  0
  8 22  1  0  0  0  0
  8 23  1  0  0  0  0
  9 24  1  0  0  0  0
  9 25  1  0  0  0  0
 11 26  1  0  0  0  0
 13 27  1  0  0  0  0
M  END
> <FRED Chemgauss4 score>
-8.739841

$$$$
C37207947	P55328418
  -OEChem-05122015313D

 28 27  0     0  0  0  0  0  0999 V2000
  124.2277  107.2848  105.9532 C   0  0  0  0  0  0  0  0  0  0  0  0
  120.4792  106.4006  104.5376 C   0  0  0  0  0  0  0  0  0  0  0  0
  125.9724  107.7776  107.6492 C   0  0  0  0  0  0  0  0  0  0  0  0
  118.5293  105.0399  103.7451 C   0  0  0  0  0  0  0  0  0  0  0  0
  118.7711  105.5311  106.1482 C   0  0  0  0  0  0  0  0  0  0  0  0
  123.3781  106.1137  105.5028 C   0  0  0  0  0  0  0  0  0  0  0  0
  121.1659  107.0126  105.7459 C   0  0  0  0  0  0  0  0  0  0  0  0
  126.6792  107.1230  108.6433 N   0  0  0  0  0  0  0  0  0  0  0  0
  125.0800  106.9197  106.9987 N   0  0  0  0  0  0  0  0  0  0  0  0
  122.1346  106.0964  106.2762 N   0  0  0  0  0  0  0  0  0  0  0  0
  119.3057  105.6853  104.8009 N   0  0  0  0  0  0  0  0  0  0  0  0
  124.1495  108.4098  105.4664 O   0  0  0  0  0  0  0  0  0  0  0  0
  120.9484  106.5429  103.4053 O   0  0  0  0  0  0  0  0  0  0  0  0
  126.1295  108.9694  107.3910 O   0  0  0  0  0  0  0  0  0  0  0  0
  118.8797  104.0156  103.5936 H   0  0  0  0  0  0  0  0  0  0  0  0
  118.6362  105.5908  102.8067 H   0  0  0  0  0  0  0  0  0  0  0  0
  117.4706  105.0131  104.0170 H   0  0  0  0  0  0  0  0  0  0  0  0
  118.0832  106.3496  106.3754 H   0  0  0  0  0  0  0  0  0  0  0  0
  119.5831  105.5403  106.8804 H   0  0  0  0  0  0  0  0  0  0  0  0
  118.2319  104.5839  106.2348 H   0  0  0  0  0  0  0  0  0  0  0  0
  123.1451  106.2164  104.4382 H   0  0  0  0  0  0  0  0  0  0  0  0
  123.9384  105.1863  105.6567 H   0  0  0  0  0  0  0  0  0  0  0  0
  121.6956  107.9249  105.4600 H   0  0  0  0  0  0  0  0  0  0  0  0
  120.4380  107.2158  106.5356 H   0  0  0  0  0  0  0  0  0  0  0  0
  126.5027  106.1376  108.8074 H   0  0  0  0  0  0  0  0  0  0  0  0
  127.3689  107.6025  109.2118 H   0  0  0  0  0  0  0  0  0  0  0  0
  125.0488  105.9529  107.3115 H   0  0  0  0  0  0  0  0  0  0  0  0
  122.3587  106.3368  107.2492 H   0  0  0  0  0  0  0  0  0  0  0  0
  1  6  1  0  0  0  0
  1  9  1  0  0  0  0
  1 12  2  0  0  0  0
  2  7  1  0  0  0  0
  2 11  1  0  0  0  0
  2 13  2  0  0  0  0
  3  8  1  0  0  0  0
  3  9  1  0  0  0  0
  3 14  2  0  0  0  0
  4 11  1  0  0  0  0
  5 11  1  0  0  0  0
  6 10  1  0  0  0  0
  7 10  1  0  0  0  0
  4 15  1  0  0  0  0
  4 16  1  0  0  0  0
  4 17  1  0  0  0  0
  5 18  1  0  0  0  0
  5 19  1  0  0  0  0
  5 20  1  0  0  0  0
  6 21  1  0  0  0  0
  6 22  1  0  0  0  0
  7 23  1  0  0  0  0
  7 24  1  0  0  0  0
  8 25  1  0  0  0  0
  8 26  1  0  0  0  0
  9 27  1  0  0  0  0
 10 28  1  0  0  0  0
M  END
> <FRED Chemgauss4 score>
-8.733908

$$$$
C42031446	P63624753
  -OEChem-05122015313D

 29 30  0     1  0  0  0  0  0999 V2000
  125.5475  107.4932  106.7764 C   0  0  0  0  0  0  0  0  0  0  0  0
  123.6794  106.7430  105.9661 C   0  0  0  0  0  0  0  0  0  0  0  0
  125.9330  104.4044  107.8448 C   0  0  0  0  0  0  0  0  0  0  0  0
  124.6446  103.8870  107.2860 C   0  0  0  0  0  0  0  0  0  0  0  0
  124.7137  105.2963  107.8260 C   0  0  0  0  0  0  0  0  0  0  0  0
  126.7650  107.5881  107.6021 C   0  0  0  0  0  0  0  0  0  0  0  0
  120.3257  105.5262  104.4181 C   0  0  0  0  0  0  0  0  0  0  0  0
  121.5497  106.4042  104.6484 C   0  0  0  0  0  0  0  0  0  0  0  0
  122.4715  105.8539  105.7501 C   0  0  2  0  0  0  0  0  0  0  0  0
  125.1539  108.3349  105.8473 N   0  0  0  0  0  0  0  0  0  0  0  0
  123.9654  107.8575  105.3318 N   0  0  0  0  0  0  0  0  0  0  0  0
  124.6488  106.4757  106.8846 N   0  0  0  0  0  0  0  0  0  0  0  0
  121.7514  105.6604  106.9889 N   0  0  0  0  0  0  0  0  0  0  0  0
  126.2599  104.0179  108.8023 H   0  0  0  0  0  0  0  0  0  0  0  0
  126.7357  104.6132  107.1478 H   0  0  0  0  0  0  0  0  0  0  0  0
  124.5810  103.7471  106.2138 H   0  0  0  0  0  0  0  0  0  0  0  0
  124.1009  103.1523  107.8672 H   0  0  0  0  0  0  0  0  0  0  0  0
  124.2260  105.5120  108.7515 H   0  0  0  0  0  0  0  0  0  0  0  0
  126.5739  108.1498  108.5319 H   0  0  0  0  0  0  0  0  0  0  0  0
  127.1529  106.5943  107.8866 H   0  0  0  0  0  0  0  0  0  0  0  0
  127.5897  108.0942  107.0700 H   0  0  0  0  0  0  0  0  0  0  0  0
  119.7529  105.4016  105.3426 H   0  0  0  0  0  0  0  0  0  0  0  0
  119.6687  105.9851  103.6724 H   0  0  0  0  0  0  0  0  0  0  0  0
  120.6086  104.5349  104.0509 H   0  0  0  0  0  0  0  0  0  0  0  0
  122.0932  106.5028  103.7004 H   0  0  0  0  0  0  0  0  0  0  0  0
  121.2058  107.4098  104.9228 H   0  0  0  0  0  0  0  0  0  0  0  0
  122.8122  104.8547  105.4514 H   0  0  0  0  0  0  0  0  0  0  0  0
  122.2699  105.6131  107.8472 H   0  0  0  0  0  0  0  0  0  0  0  0
  120.7893  105.3765  106.9496 H   0  0  0  0  0  0  0  0  0  0  0  0
  1  6  1  0  0  0  0
  1 10  2  0  0  0  0
  1 12  1  0  0  0  0
  2  9  1  0  0  0  0
  2 11  2  0  0  0  0
  2 12  1  0  0  0  0
  3  4  1  0  0  0  0
  3  5  1  0  0  0  0
  4  5  1  0  0  0  0
  5 12  1  0  0  0  0
  7  8  1  0  0  0  0
  8  9  1  0  0  0  0
  9 13  1  0  0  0  0
 10 11  1  0  0  0  0
  3 14  1  0  0  0  0
  3 15  1  0  0  0  0
  4 16  1  0  0  0  0
  4 17  1  0  0  0  0
  5 18  1  0  0  0  0
  6 19  1  0  0  0  0
  6 20  1  0  0  0  0
  6 21  1  0  0  0  0
  7 22  1  0  0  0  0
  7 23  1  0  0  0  0
  7 24  1  0  0  0  0
  8 25  1  0  0  0  0
  8 26  1  0  0  0  0
  9 27  1  0  0  0  0
 13 28  1  0  0  0  0
 13 29  1  0  0  0  0
M  END
> <FRED Chemgauss4 score>
-8.732895

$$$$
C03872997	P04549451
  -OEChem-05122015313D

 28 29  0     1  0  0  0  0  0999 V2000
  122.5360  104.8892  106.7152 C   0  0  0  0  0  0  0  0  0  0  0  0
  123.2126  106.2007  106.3694 C   0  0  0  0  0  0  0  0  0  0  0  0
  126.3194  105.9734  108.8783 C   0  0  1  0  0  0  0  0  0  0  0  0
  126.7984  106.6654  107.5912 C   0  0  2  0  0  0  0  0  0  0  0  0
  125.5457  104.6715  108.5901 C   0  0  1  0  0  0  0  0  0  0  0  0
  125.5871  107.0904  106.7251 C   0  0  2  0  0  0  0  0  0  0  0  0
  124.7898  104.7375  107.2593 C   0  0  1  0  0  0  0  0  0  0  0  0
  125.0980  108.4758  107.1607 C   0  0  0  0  0  0  0  0  0  0  0  0
  123.5041  104.0948  107.2890 N   0  0  0  0  0  0  0  0  0  0  0  0
  124.5117  106.0897  106.8232 N   0  0  0  0  0  0  0  0  0  0  0  0
  121.3624  104.6802  106.4935 O   0  0  0  0  0  0  0  0  0  0  0  0
  122.6141  107.0984  105.8156 O   0  0  0  0  0  0  0  0  0  0  0  0
  127.4112  105.7127  109.7527 O   0  0  0  0  0  0  0  0  0  0  0  0
  127.6227  105.7618  106.8515 O   0  0  0  0  0  0  0  0  0  0  0  0
  126.4476  103.5627  108.5261 O   0  0  0  0  0  0  0  0  0  0  0  0
  124.3456  109.0374  106.1024 O   0  0  0  0  0  0  0  0  0  0  0  0
  125.6519  106.6772  109.4532 H   0  0  0  0  0  0  0  0  0  0  0  0
  127.3918  107.5377  107.8519 H   0  0  0  0  0  0  0  0  0  0  0  0
  124.8442  104.4737  109.4142 H   0  0  0  0  0  0  0  0  0  0  0  0
  125.8668  107.1664  105.6903 H   0  0  0  0  0  0  0  0  0  0  0  0
  125.3692  104.2227  106.4448 H   0  0  0  0  0  0  0  0  0  0  0  0
  125.9513  109.1160  107.3786 H   0  0  0  0  0  0  0  0  0  0  0  0
  124.4685  108.3836  108.0443 H   0  0  0  0  0  0  0  0  0  0  0  0
  123.3311  103.1780  107.6802 H   0  0  0  0  0  0  0  0  0  0  0  0
  127.8039  106.5732  109.9583 H   0  0  0  0  0  0  0  0  0  0  0  0
  127.9027  106.2337  106.0517 H   0  0  0  0  0  0  0  0  0  0  0  0
  125.9085  102.7771  108.3438 H   0  0  0  0  0  0  0  0  0  0  0  0
  124.0452  109.9141  106.3981 H   0  0  0  0  0  0  0  0  0  0  0  0
  1  2  1  0  0  0  0
  1  9  1  0  0  0  0
  1 11  2  0  0  0  0
  2 10  1  0  0  0  0
  2 12  2  0  0  0  0
  3  4  1  0  0  0  0
  3  5  1  0  0  0  0
  3 13  1  0  0  0  0
  4  6  1  0  0  0  0
  4 14  1  0  0  0  0
  5  7  1  0  0  0  0
  5 15  1  0  0  0  0
  6  8  1  0  0  0  0
  6 10  1  0  0  0  0
  7  9  1  0  0  0  0
  7 10  1  0  0  0  0
  8 16  1  0  0  0  0
  3 17  1  0  0  0  0
  4 18  1  0  0  0  0
  5 19  1  0  0  0  0
  6 20  1  0  0  0  0
  7 21  1  0  0  0  0
  8 22  1  0  0  0  0
  8 23  1  0  0  0  0
  9 24  1  0  0  0  0
 13 25  1  0  0  0  0
 14 26  1  0  0  0  0
 15 27  1  0  0  0  0
 16 28  1  0  0  0  0
M  END
> <FRED Chemgauss4 score>
-8.729027

$$$$
C87395422	P136731529
  -OEChem-05122015313D

 25 26  0     1  0  0  0  0  0999 V2000
  123.2881  108.2472  110.9011 C   0  0  0  0  0  0  0  0  0  0  0  0
  126.8844  104.9912  108.0145 C   0  0  0  0  0  0  0  0  0  0  0  0
  123.8864  109.4697  110.6784 C   0  0  0  0  0  0  0  0  0  0  0  0
  126.3412  106.9488  107.5346 C   0  0  0  0  0  0  0  0  0  0  0  0
  124.0411  108.6523  108.6491 C   0  0  0  0  0  0  0  0  0  0  0  0
  124.0961  110.5241  111.6902 C   0  0  0  0  0  0  0  0  0  0  0  0
  124.3629  108.5319  107.1770 C   0  0  0  0  0  0  0  0  0  0  0  0
  125.8553  108.2417  106.9020 C   0  0  1  0  0  0  0  0  0  0  0  0
  126.3458  105.7449  107.0112 N   0  0  0  0  0  0  0  0  0  0  0  0
  127.2133  105.6532  109.1259 N   0  0  0  0  0  0  0  0  0  0  0  0
  124.3192  109.7036  109.3877 N   0  0  0  0  0  0  0  0  0  0  0  0
  126.8558  106.9027  108.7928 N   0  0  0  0  0  0  0  0  0  0  0  0
  126.6670  109.3818  107.3492 N   0  0  0  0  0  0  0  0  0  0  0  0
  123.2591  107.3465  109.4419 S   0  0  0  0  0  0  0  0  0  0  0  0
  122.8785  107.8502  111.8192 H   0  0  0  0  0  0  0  0  0  0  0  0
  127.0421  103.9261  107.9332 H   0  0  0  0  0  0  0  0  0  0  0  0
  125.0681  110.4020  112.1954 H   0  0  0  0  0  0  0  0  0  0  0  0
  124.0734  111.5338  111.2461 H   0  0  0  0  0  0  0  0  0  0  0  0
  123.3114  110.5146  112.4659 H   0  0  0  0  0  0  0  0  0  0  0  0
  124.0723  109.4761  106.6955 H   0  0  0  0  0  0  0  0  0  0  0  0
  123.7228  107.7648  106.7213 H   0  0  0  0  0  0  0  0  0  0  0  0
  126.0004  108.1701  105.8165 H   0  0  0  0  0  0  0  0  0  0  0  0
  126.9913  107.6514  109.4621 H   0  0  0  0  0  0  0  0  0  0  0  0
  126.2718  110.2887  107.2664 H   0  0  0  0  0  0  0  0  0  0  0  0
  127.6321  109.2211  107.5186 H   0  0  0  0  0  0  0  0  0  0  0  0
  1  3  2  0  0  0  0
  1 14  1  0  0  0  0
  2  9  1  0  0  0  0
  2 10  2  0  0  0  0
  3  6  1  0  0  0  0
  3 11  1  0  0  0  0
  4  8  1  0  0  0  0
  4  9  2  0  0  0  0
  4 12  1  0  0  0  0
  5  7  1  0  0  0  0
  5 11  2  0  0  0  0
  5 14  1  0  0  0  0
  7  8  1  0  0  0  0
  8 13  1  0  0  0  0
 10 12  1  0  0  0  0
  1 15  1  0  0  0  0
  2 16  1  0  0  0  0
  6 17  1  0  0  0  0
  6 18  1  0  0  0  0
  6 19  1  0  0  0  0
  7 20  1  0  0  0  0
  7 21  1  0  0  0  0
  8 22  1  0  0  0  0
 12 23  1  0  0  0  0
 13 24  1  0  0  0  0
 13 25  1  0  0  0  0
M  END
> <FRED Chemgauss4 score>
-8.725458

$$$$
C19472821	P28835153
  -OEChem-05122015313D

 28 28  0     1  0  0  0  0  0999 V2000
  122.8674  105.4157  108.1973 C   0  0  0  0  0  0  0  0  0  0  0  0
  124.8914  108.7331  108.3897 C   0  0  0  0  0  0  0  0  0  0  0  0
  124.9812  106.0767  105.9997 C   0  0  0  0  0  0  0  0  0  0  0  0
  124.8438  104.8095  106.8448 C   0  0  0  0  0  0  0  0  0  0  0  0
  125.7935  107.1396  106.7289 C   0  0  0  0  0  0  0  0  0  0  0  0
  125.0938  106.2543  108.9294 C   0  0  0  0  0  0  0  0  0  0  0  0
  124.3534  105.0980  108.2621 C   0  0  1  0  0  0  0  0  0  0  0  0
  124.2985  108.9442  109.7599 C   0  0  0  0  0  0  0  0  0  0  0  0
  125.2177  107.4213  108.0441 N   0  0  0  0  0  0  0  0  0  0  0  0
  122.0587  104.3082  108.2960 N   0  0  0  0  0  0  0  0  0  0  0  0
  124.0453  110.3465  109.8962 N   0  0  0  0  0  0  0  0  0  0  0  0
  122.4500  106.5657  108.0841 O   0  0  0  0  0  0  0  0  0  0  0  0
  125.0558  109.7056  107.6485 O   0  0  0  0  0  0  0  0  0  0  0  0
  125.4582  105.8340  105.0436 H   0  0  0  0  0  0  0  0  0  0  0  0
  123.9839  106.4717  105.7705 H   0  0  0  0  0  0  0  0  0  0  0  0
  124.1731  104.1060  106.3368 H   0  0  0  0  0  0  0  0  0  0  0  0
  125.8258  104.3230  106.9053 H   0  0  0  0  0  0  0  0  0  0  0  0
  126.8231  106.7976  106.8874 H   0  0  0  0  0  0  0  0  0  0  0  0
  125.8414  108.0483  106.1206 H   0  0  0  0  0  0  0  0  0  0  0  0
  124.6088  106.5149  109.8726 H   0  0  0  0  0  0  0  0  0  0  0  0
  126.1174  105.9439  109.1730 H   0  0  0  0  0  0  0  0  0  0  0  0
  124.4379  104.2047  108.8670 H   0  0  0  0  0  0  0  0  0  0  0  0
  125.0179  108.6004  110.4971 H   0  0  0  0  0  0  0  0  0  0  0  0
  123.3791  108.3698  109.8237 H   0  0  0  0  0  0  0  0  0  0  0  0
  122.4920  103.3967  108.4006 H   0  0  0  0  0  0  0  0  0  0  0  0
  121.0459  104.3658  108.2684 H   0  0  0  0  0  0  0  0  0  0  0  0
  124.6749  111.0103  109.4663 H   0  0  0  0  0  0  0  0  0  0  0  0
  123.3714  110.6668  110.5783 H   0  0  0  0  0  0  0  0  0  0  0  0
  1  7  1  0  0  0  0
  1 10  1  0  0  0  0
  1 12  2  0  0  0  0
  2  8  1  0  0  0  0
  2  9  1  0  0  0  0
  2 13  2  0  0  0  0
  3  4  1  0  0  0  0
  3  5  1  0  0  0  0
  4  7  1  0  0  0  0
  5  9  1  0  0  0  0
  6  7  1  0  0  0  0
  6  9  1  0  0  0  0
  8 11  1  0  0  0  0
  3 14  1  0  0  0  0
  3 15  1  0  0  0  0
  4 16  1  0  0  0  0
  4 17  1  0  0  0  0
  5 18  1  0  0  0  0
  5 19  1  0  0  0  0
  6 20  1  0  0  0  0
  6 21  1  0  0  0  0
  7 22  1  0  0  0  0
  8 23  1  0  0  0  0
  8 24  1  0  0  0  0
 10 25  1  0  0  0  0
 10 26  1  0  0  0  0
 11 27  1  0  0  0  0
 11 28  1  0  0  0  0
M  END
> <FRED Chemgauss4 score>
-8.721867

$$$$
chloroalanine	P10000035
  -OEChem-05122015313D

 13 12  0     1  0  0  0  0  0999 V2000
  125.5237  108.3613  107.8486 C   0  0  0  0  0  0  0  0  0  0  0  0
  125.1539  105.8573  107.2750 C   0  0  0  0  0  0  0  0  0  0  0  0
  125.5474  106.8972  108.3222 C   0  0  1  0  0  0  0  0  0  0  0  0
  126.8513  106.4790  108.9295 N   0  3  0  0  0  0  0  0  0  0  0  0
  126.3202  108.6315  106.9044 O   0  5  0  0  0  0  0  0  0  0  0  0
  124.7358  109.1295  108.4686 O   0  0  0  0  0  0  0  0  0  0  0  0
  124.6605  104.3087  108.0101 Cl  0  0  0  0  0  0  0  0  0  0  0  0
  124.3144  106.2103  106.6669 H   0  0  0  0  0  0  0  0  0  0  0  0
  125.9863  105.6427  106.5977 H   0  0  0  0  0  0  0  0  0  0  0  0
  124.8279  106.8377  109.1483 H   0  0  0  0  0  0  0  0  0  0  0  0
  127.1479  105.5817  108.5444 H   0  0  0  0  0  0  0  0  0  0  0  0
  126.7543  106.3854  109.9413 H   0  0  0  0  0  0  0  0  0  0  0  0
  127.5714  107.1747  108.7320 H   0  0  0  0  0  0  0  0  0  0  0  0
  1  3  1  0  0  0  0
  1  5  1  0  0  0  0
  1  6  2  0  0  0  0
  2  3  1  0  0  0  0
  2  7  1  0  0  0  0
  3  4  1  0  0  0  0
  2  8  1  0  0  0  0
  2  9  1  0  0  0  0
  3 10  1  0  0  0  0
  4 11  1  0  0  0  0
  4 12  1  0  0  0  0
  4 13  1  0  0  0  0
M  CHG  2   4   1   5  -1
M  END
> <FRED Chemgauss4 score>
-8.714447

$$$$
C87341085	P136651115
  -OEChem-05122015313D

 26 27  0     1  0  0  0  0  0999 V2000
  119.2651  105.0372  106.3865 C   0  0  0  0  0  0  0  0  0  0  0  0
  119.4586  103.6859  106.5509 C   0  0  0  0  0  0  0  0  0  0  0  0
  123.8937  107.6683  104.9519 C   0  0  0  0  0  0  0  0  0  0  0  0
  123.3899  107.1813  106.9182 C   0  0  0  0  0  0  0  0  0  0  0  0
  121.1385  104.8473  107.3789 C   0  0  0  0  0  0  0  0  0  0  0  0
  124.8903  108.8783  108.0289 C   0  0  0  0  0  0  0  0  0  0  0  0
  122.8207  106.5964  108.1907 C   0  0  0  0  0  0  0  0  0  0  0  0
  122.4696  105.0968  108.0673 C   0  0  1  0  0  0  0  0  0  0  0  0
  120.3145  105.7547  106.9038 N   0  0  0  0  0  0  0  0  0  0  0  0
  123.1084  106.8263  105.6861 N   0  0  0  0  0  0  0  0  0  0  0  0
  124.6436  108.5218  105.6524 N   0  0  0  0  0  0  0  0  0  0  0  0
  120.6630  103.5798  107.1876 N   0  0  0  0  0  0  0  0  0  0  0  0
  124.3026  108.1896  106.9068 N   0  0  0  0  0  0  0  0  0  0  0  0
  122.4962  104.4758  109.3985 N   0  0  0  0  0  0  0  0  0  0  0  0
  118.4243  105.5299  105.9207 H   0  0  0  0  0  0  0  0  0  0  0  0
  118.8710  102.8199  106.2834 H   0  0  0  0  0  0  0  0  0  0  0  0
  123.9203  107.6595  103.8728 H   0  0  0  0  0  0  0  0  0  0  0  0
  125.7986  108.3420  108.3158 H   0  0  0  0  0  0  0  0  0  0  0  0
  125.1281  109.9063  107.7412 H   0  0  0  0  0  0  0  0  0  0  0  0
  124.1765  108.8943  108.8573 H   0  0  0  0  0  0  0  0  0  0  0  0
  121.9187  107.1703  108.4452 H   0  0  0  0  0  0  0  0  0  0  0  0
  123.5187  106.7697  109.0205 H   0  0  0  0  0  0  0  0  0  0  0  0
  123.2573  104.6031  107.4838 H   0  0  0  0  0  0  0  0  0  0  0  0
  121.1167  102.7204  107.4681 H   0  0  0  0  0  0  0  0  0  0  0  0
  123.1570  104.8208  110.0542 H   0  0  0  0  0  0  0  0  0  0  0  0
  122.0065  103.6202  109.5169 H   0  0  0  0  0  0  0  0  0  0  0  0
  1  2  2  0  0  0  0
  1  9  1  0  0  0  0
  2 12  1  0  0  0  0
  3 10  1  0  0  0  0
  3 11  2  0  0  0  0
  4  7  1  0  0  0  0
  4 10  2  0  0  0  0
  4 13  1  0  0  0  0
  5  8  1  0  0  0  0
  5  9  2  0  0  0  0
  5 12  1  0  0  0  0
  6 13  1  0  0  0  0
  7  8  1  0  0  0  0
  8 14  1  0  0  0  0
 11 13  1  0  0  0  0
  1 15  1  0  0  0  0
  2 16  1  0  0  0  0
  3 17  1  0  0  0  0
  6 18  1  0  0  0  0
  6 19  1  0  0  0  0
  6 20  1  0  0  0  0
  7 21  1  0  0  0  0
  7 22  1  0  0  0  0
  8 23  1  0  0  0  0
 12 24  1  0  0  0  0
 14 25  1  0  0  0  0
 14 26  1  0  0  0  0
M  END
> <FRED Chemgauss4 score>
-8.708849

$$$$
C71789783	P111278390
  -OEChem-05122015313D

 26 26  0     1  0  0  0  0  0999 V2000
  124.7550  104.8340  107.6462 C   0  0  0  0  0  0  0  0  0  0  0  0
  124.9554  106.2803  107.2456 C   0  0  2  0  0  0  0  0  0  0  0  0
  126.3791  106.7117  107.6013 C   0  0  1  0  0  0  0  0  0  0  0  0
  126.5631  108.2094  107.3380 C   0  0  2  0  0  0  0  0  0  0  0  0
  125.4210  109.0144  107.9744 C   0  0  2  0  0  0  0  0  0  0  0  0
  124.0461  108.4397  107.6208 C   0  0  1  0  0  0  0  0  0  0  0  0
  125.5578  102.6465  107.2533 C   0  0  0  0  0  0  0  0  0  0  0  0
  123.9206  104.4571  108.4579 O   0  0  0  0  0  0  0  0  0  0  0  0
  123.9903  107.0517  107.9545 O   0  0  0  0  0  0  0  0  0  0  0  0
  126.6160  106.4628  108.9877 O   0  0  0  0  0  0  0  0  0  0  0  0
  126.6233  108.4428  105.9313 O   0  0  0  0  0  0  0  0  0  0  0  0
  125.4892  110.3741  107.5565 O   0  0  0  0  0  0  0  0  0  0  0  0
  123.0658  109.1543  108.3733 O   0  0  0  0  0  0  0  0  0  0  0  0
  125.6377  104.0466  106.9680 O   0  0  0  0  0  0  0  0  0  0  0  0
  124.7793  106.3469  106.1720 H   0  0  0  0  0  0  0  0  0  0  0  0
  127.0970  106.1195  107.0244 H   0  0  0  0  0  0  0  0  0  0  0  0
  127.5290  108.5621  107.7633 H   0  0  0  0  0  0  0  0  0  0  0  0
  125.5421  109.0034  109.0648 H   0  0  0  0  0  0  0  0  0  0  0  0
  123.8176  108.5850  106.5590 H   0  0  0  0  0  0  0  0  0  0  0  0
  126.3032  102.1101  106.6610 H   0  0  0  0  0  0  0  0  0  0  0  0
  124.5557  102.2816  107.0144 H   0  0  0  0  0  0  0  0  0  0  0  0
  125.7574  102.4883  108.3158 H   0  0  0  0  0  0  0  0  0  0  0  0
  127.5242  106.7497  109.1661 H   0  0  0  0  0  0  0  0  0  0  0  0
  127.3817  107.9373  105.6030 H   0  0  0  0  0  0  0  0  0  0  0  0
  126.3498  110.7118  107.8504 H   0  0  0  0  0  0  0  0  0  0  0  0
  122.2062  108.7753  108.1346 H   0  0  0  0  0  0  0  0  0  0  0  0
  1  2  1  0  0  0  0
  1  8  2  0  0  0  0
  1 14  1  0  0  0  0
  2  3  1  0  0  0  0
  2  9  1  0  0  0  0
  3  4  1  0  0  0  0
  3 10  1  0  0  0  0
  4  5  1  0  0  0  0
  4 11  1  0  0  0  0
  5  6  1  0  0  0  0
  5 12  1  0  0  0  0
  6  9  1  0  0  0  0
  6 13  1  0  0  0  0
  7 14  1  0  0  0  0
  2 15  1  0  0  0  0
  3 16  1  0  0  0  0
  4 17  1  0  0  0  0
  5 18  1  0  0  0  0
  6 19  1  0  0  0  0
  7 20  1  0  0  0  0
  7 21  1  0  0  0  0
  7 22  1  0  0  0  0
 10 23  1  0  0  0  0
 11 24  1  0  0  0  0
 12 25  1  0  0  0  0
 13 26  1  0  0  0  0
M  END
> <FRED Chemgauss4 score>
-8.708742

$$$$
C88037185	P137697142
  -OEChem-05122015313D

 25 26  0     1  0  0  0  0  0999 V2000
  123.1978  107.9779  110.9081 C   0  0  0  0  0  0  0  0  0  0  0  0
  123.1151  109.1502  111.6547 C   0  0  0  0  0  0  0  0  0  0  0  0
  123.7836  108.1063  109.6535 C   0  0  0  0  0  0  0  0  0  0  0  0
  123.6073  110.3344  111.1161 C   0  0  0  0  0  0  0  0  0  0  0  0
  124.2538  109.3268  109.1819 C   0  0  0  0  0  0  0  0  0  0  0  0
  124.6460  107.9261  107.6283 C   0  0  0  0  0  0  0  0  0  0  0  0
  123.5080  111.5809  111.9362 C   0  0  0  0  0  0  0  0  0  0  0  0
  125.4367  105.7756  106.5595 C   0  0  0  0  0  0  0  0  0  0  0  0
  125.0609  107.2607  106.3791 C   0  0  2  0  0  0  0  0  0  0  0  0
  124.1803  110.4765  109.8976 N   0  0  0  0  0  0  0  0  0  0  0  0
  124.7866  109.2000  107.9237 N   0  0  0  0  0  0  0  0  0  0  0  0
  124.0467  107.2253  108.6402 N   0  0  0  0  0  0  0  0  0  0  0  0
  126.1600  107.9509  105.7117 N   0  0  0  0  0  0  0  0  0  0  0  0
  122.8294  107.0307  111.2821 H   0  0  0  0  0  0  0  0  0  0  0  0
  122.6696  109.1282  112.6449 H   0  0  0  0  0  0  0  0  0  0  0  0
  124.4050  111.6994  112.5539 H   0  0  0  0  0  0  0  0  0  0  0  0
  123.4018  112.4658  111.2978 H   0  0  0  0  0  0  0  0  0  0  0  0
  122.6305  111.5521  112.5930 H   0  0  0  0  0  0  0  0  0  0  0  0
  126.2441  105.6731  107.2928 H   0  0  0  0  0  0  0  0  0  0  0  0
  124.5854  105.1791  106.9065 H   0  0  0  0  0  0  0  0  0  0  0  0
  125.7777  105.3320  105.6173 H   0  0  0  0  0  0  0  0  0  0  0  0
  124.2439  107.2797  105.6276 H   0  0  0  0  0  0  0  0  0  0  0  0
  123.8362  106.2359  108.6399 H   0  0  0  0  0  0  0  0  0  0  0  0
  126.1742  108.9478  105.7382 H   0  0  0  0  0  0  0  0  0  0  0  0
  126.7358  107.4256  105.0892 H   0  0  0  0  0  0  0  0  0  0  0  0
  1  2  2  0  0  0  0
  1  3  1  0  0  0  0
  2  4  1  0  0  0  0
  3  5  2  0  0  0  0
  3 12  1  0  0  0  0
  4  7  1  0  0  0  0
  4 10  2  0  0  0  0
  5 10  1  0  0  0  0
  5 11  1  0  0  0  0
  6  9  1  0  0  0  0
  6 11  2  0  0  0  0
  6 12  1  0  0  0  0
  8  9  1  0  0  0  0
  9 13  1  0  0  0  0
  1 14  1  0  0  0  0
  2 15  1  0  0  0  0
  7 16  1  0  0  0  0
  7 17  1  0  0  0  0
  7 18  1  0  0  0  0
  8 19  1  0  0  0  0
  8 20  1  0  0  0  0
  8 21  1  0  0  0  0
  9 22  1  0  0  0  0
 12 23  1  0  0  0  0
 13 24  1  0  0  0  0
 13 25  1  0  0  0  0
M  END
> <FRED Chemgauss4 score>
-8.707041

$$$$
C36827785	P54736345
  -OEChem-05122015313D

 28 29  0     1  0  0  0  0  0999 V2000
  124.7402  108.7303  108.5836 C   0  0  0  0  0  0  0  0  0  0  0  0
  125.9589  107.7461  107.0554 C   0  0  0  0  0  0  0  0  0  0  0  0
  125.1759  105.1777  107.7764 C   0  0  0  0  0  0  0  0  0  0  0  0
  124.6712  106.2175  108.4609 C   0  0  0  0  0  0  0  0  0  0  0  0
  126.1287  105.5189  106.6725 C   0  0  0  0  0  0  0  0  0  0  0  0
  123.7079  105.9893  109.5869 C   0  0  0  0  0  0  0  0  0  0  0  0
  126.7076  104.3657  105.8910 C   0  0  0  0  0  0  0  0  0  0  0  0
  122.3432  109.1767  109.2718 C   0  0  0  0  0  0  0  0  0  0  0  0
  123.8138  108.9775  109.7049 C   0  0  2  0  0  0  0  0  0  0  0  0
  125.3679  109.6677  107.9135 N   0  0  0  0  0  0  0  0  0  0  0  0
  126.1344  109.0499  106.9523 N   0  0  0  0  0  0  0  0  0  0  0  0
  126.4949  106.7219  106.3351 N   0  0  0  0  0  0  0  0  0  0  0  0
  125.0710  107.4990  108.0903 N   0  0  0  0  0  0  0  0  0  0  0  0
  124.2070  110.1300  110.5127 N   0  0  0  0  0  0  0  0  0  0  0  0
  121.4668  108.9802  110.3768 O   0  0  0  0  0  0  0  0  0  0  0  0
  124.9325  104.1435  107.9812 H   0  0  0  0  0  0  0  0  0  0  0  0
  124.2577  105.8802  110.5192 H   0  0  0  0  0  0  0  0  0  0  0  0
  123.1319  105.0860  109.3959 H   0  0  0  0  0  0  0  0  0  0  0  0
  123.0285  106.8360  109.6615 H   0  0  0  0  0  0  0  0  0  0  0  0
  126.0603  104.1486  105.0480 H   0  0  0  0  0  0  0  0  0  0  0  0
  126.7777  103.4979  106.5386 H   0  0  0  0  0  0  0  0  0  0  0  0
  127.6974  104.6375  105.5390 H   0  0  0  0  0  0  0  0  0  0  0  0
  122.1942  110.1996  108.9087 H   0  0  0  0  0  0  0  0  0  0  0  0
  122.0579  108.4775  108.4781 H   0  0  0  0  0  0  0  0  0  0  0  0
  123.8240  108.1357  110.4294 H   0  0  0  0  0  0  0  0  0  0  0  0
  125.1796  110.2855  110.6642 H   0  0  0  0  0  0  0  0  0  0  0  0
  123.5015  110.5918  111.0439 H   0  0  0  0  0  0  0  0  0  0  0  0
  120.5659  109.1178  110.0443 H   0  0  0  0  0  0  0  0  0  0  0  0
  1  9  1  0  0  0  0
  1 10  2  0  0  0  0
  1 13  1  0  0  0  0
  2 11  2  0  0  0  0
  2 12  1  0  0  0  0
  2 13  1  0  0  0  0
  3  4  2  0  0  0  0
  3  5  1  0  0  0  0
  4  6  1  0  0  0  0
  4 13  1  0  0  0  0
  5  7  1  0  0  0  0
  5 12  2  0  0  0  0
  8  9  1  0  0  0  0
  8 15  1  0  0  0  0
  9 14  1  0  0  0  0
 10 11  1  0  0  0  0
  3 16  1  0  0  0  0
  6 17  1  0  0  0  0
  6 18  1  0  0  0  0
  6 19  1  0  0  0  0
  7 20  1  0  0  0  0
  7 21  1  0  0  0  0
  7 22  1  0  0  0  0
  8 23  1  0  0  0  0
  8 24  1  0  0  0  0
  9 25  1  0  0  0  0
 14 26  1  0  0  0  0
 14 27  1  0  0  0  0
 15 28  1  0  0  0  0
M  END
> <FRED Chemgauss4 score>
-8.702247

$$$$
C82467277	P128880059
  -OEChem-05122015313D

 33 33  0     1  0  0  0  0  0999 V2000
  121.0898  104.8662  104.3309 C   0  0  0  0  0  0  0  0  0  0  0  0
  118.3066  107.4706  105.5502 C   0  0  0  0  0  0  0  0  0  0  0  0
  117.4913  108.7244  105.2749 C   0  0  0  0  0  0  0  0  0  0  0  0
  117.5790  106.9103  103.2925 C   0  0  0  0  0  0  0  0  0  0  0  0
  117.6775  106.3616  104.7111 C   0  0  1  0  0  0  0  0  0  0  0  0
  117.8512  104.0998  103.9383 C   0  0  0  0  0  0  0  0  0  0  0  0
  121.1344  104.4085  105.7784 C   0  0  0  0  0  0  0  0  0  0  0  0
  119.8379  103.7308  106.2179 C   0  0  0  0  0  0  0  0  0  0  0  0
  118.6536  104.6905  106.1246 C   0  0  0  0  0  0  0  0  0  0  0  0
  120.8137  104.0379  102.1137 N   0  0  0  0  0  0  0  0  0  0  0  0
  120.8810  103.8007  103.4712 N   0  0  0  0  0  0  0  0  0  0  0  0
  118.4771  105.1447  104.7503 N   0  0  2  0  0  0  0  0  0  0  0  0
  121.2253  106.0394  103.9930 O   0  0  0  0  0  0  0  0  0  0  0  0
  117.0914  108.6475  103.5057 S   0  0  0  0  0  0  0  0  0  0  0  0
  119.3547  107.6348  105.2650 H   0  0  0  0  0  0  0  0  0  0  0  0
  118.2973  107.2282  106.6187 H   0  0  0  0  0  0  0  0  0  0  0  0
  116.5585  108.7210  105.8473 H   0  0  0  0  0  0  0  0  0  0  0  0
  118.0475  109.6349  105.5141 H   0  0  0  0  0  0  0  0  0  0  0  0
  118.5427  106.8876  102.7722 H   0  0  0  0  0  0  0  0  0  0  0  0
  116.8445  106.3681  102.6898 H   0  0  0  0  0  0  0  0  0  0  0  0
  116.6778  106.1322  105.0927 H   0  0  0  0  0  0  0  0  0  0  0  0
  118.4535  103.1881  103.9698 H   0  0  0  0  0  0  0  0  0  0  0  0
  117.7654  104.4291  102.8992 H   0  0  0  0  0  0  0  0  0  0  0  0
  116.8511  103.8741  104.3181 H   0  0  0  0  0  0  0  0  0  0  0  0
  121.9762  103.7151  105.8925 H   0  0  0  0  0  0  0  0  0  0  0  0
  121.3310  105.2846  106.4081 H   0  0  0  0  0  0  0  0  0  0  0  0
  119.6539  102.8488  105.5909 H   0  0  0  0  0  0  0  0  0  0  0  0
  119.9454  103.3678  107.2484 H   0  0  0  0  0  0  0  0  0  0  0  0
  118.8216  105.5601  106.7688 H   0  0  0  0  0  0  0  0  0  0  0  0
  117.7369  104.1958  106.4638 H   0  0  0  0  0  0  0  0  0  0  0  0
  121.2121  103.2220  101.6509 H   0  0  0  0  0  0  0  0  0  0  0  0
  121.4487  104.8104  101.9167 H   0  0  0  0  0  0  0  0  0  0  0  0
  120.7790  102.8583  103.8347 H   0  0  0  0  0  0  0  0  0  0  0  0
  1  7  1  0  0  0  0
  1 11  1  0  0  0  0
  1 13  2  0  0  0  0
  2  3  1  0  0  0  0
  2  5  1  0  0  0  0
  3 14  1  0  0  0  0
  4  5  1  0  0  0  0
  4 14  1  0  0  0  0
  5 12  1  0  0  0  0
  6 12  1  0  0  0  0
  7  8  1  0  0  0  0
  8  9  1  0  0  0  0
  9 12  1  0  0  0  0
 10 11  1  0  0  0  0
  2 15  1  0  0  0  0
  2 16  1  0  0  0  0
  3 17  1  0  0  0  0
  3 18  1  0  0  0  0
  4 19  1  0  0  0  0
  4 20  1  0  0  0  0
  5 21  1  0  0  0  0
  6 22  1  0  0  0  0
  6 23  1  0  0  0  0
  6 24  1  0  0  0  0
  7 25  1  0  0  0  0
  7 26  1  0  0  0  0
  8 27  1  0  0  0  0
  8 28  1  0  0  0  0
  9 29  1  0  0  0  0
  9 30  1  0  0  0  0
 10 31  1  0  0  0  0
 10 32  1  0  0  0  0
 11 33  1  0  0  0  0
M  END
> <FRED Chemgauss4 score>
-8.700199

$$$$
C42973221	P64975400
  -OEChem-05122015313D

 30 31  0     1  0  0  0  0  0999 V2000
  118.2842  103.8236  106.1146 C   0  0  0  0  0  0  0  0  0  0  0  0
  118.9927  104.9527  106.5255 C   0  0  0  0  0  0  0  0  0  0  0  0
  118.3098  103.4331  104.7757 C   0  0  0  0  0  0  0  0  0  0  0  0
  119.7521  105.3010  104.2585 C   0  0  0  0  0  0  0  0  0  0  0  0
  124.0419  106.5374  106.1489 C   0  0  0  0  0  0  0  0  0  0  0  0
  122.3851  105.7257  107.3452 C   0  0  0  0  0  0  0  0  0  0  0  0
  119.7266  105.6914  105.5974 C   0  0  0  0  0  0  0  0  0  0  0  0
  119.0437  104.1718  103.8477 C   0  0  0  0  0  0  0  0  0  0  0  0
  123.7539  105.6920  107.2371 C   0  0  0  0  0  0  0  0  0  0  0  0
  118.4511  108.2810  106.7993 C   0  0  0  0  0  0  0  0  0  0  0  0
  120.5029  106.9289  106.0491 C   0  0  1  0  0  0  0  0  0  0  0  0
  119.8303  107.7428  107.2016 C   0  0  1  0  0  0  0  0  0  0  0  0
  122.9442  107.0692  105.6045 N   0  0  0  0  0  0  0  0  0  0  0  0
  121.9532  106.5566  106.3536 N   0  0  0  0  0  0  0  0  0  0  0  0
  120.6568  108.9028  107.5655 N   0  0  0  0  0  0  0  0  0  0  0  0
  119.0680  103.7973  102.5619 F   0  0  0  0  0  0  0  0  0  0  0  0
  124.8680  104.8406  108.1798 Cl  0  0  0  0  0  0  0  0  0  0  0  0
  117.7131  103.2480  106.8373 H   0  0  0  0  0  0  0  0  0  0  0  0
  118.9668  105.2495  107.5708 H   0  0  0  0  0  0  0  0  0  0  0  0
  117.7578  102.5544  104.4560 H   0  0  0  0  0  0  0  0  0  0  0  0
  120.3215  105.8697  103.5284 H   0  0  0  0  0  0  0  0  0  0  0  0
  125.0044  106.7908  105.7271 H   0  0  0  0  0  0  0  0  0  0  0  0
  121.6978  105.2415  108.0257 H   0  0  0  0  0  0  0  0  0  0  0  0
  118.5107  108.9098  105.9057 H   0  0  0  0  0  0  0  0  0  0  0  0
  117.7627  107.4608  106.5642 H   0  0  0  0  0  0  0  0  0  0  0  0
  118.0025  108.8759  107.6030 H   0  0  0  0  0  0  0  0  0  0  0  0
  120.5261  107.6153  105.1877 H   0  0  0  0  0  0  0  0  0  0  0  0
  119.7060  107.1241  108.0975 H   0  0  0  0  0  0  0  0  0  0  0  0
  121.6419  108.7828  107.5664 H   0  0  0  0  0  0  0  0  0  0  0  0
  120.2007  109.6782  107.9848 H   0  0  0  0  0  0  0  0  0  0  0  0
  1  2  2  0  0  0  0
  1  3  1  0  0  0  0
  2  7  1  0  0  0  0
  3  8  2  0  0  0  0
  4  7  2  0  0  0  0
  4  8  1  0  0  0  0
  5  9  1  0  0  0  0
  5 13  2  0  0  0  0
  6  9  2  0  0  0  0
  6 14  1  0  0  0  0
  7 11  1  0  0  0  0
  8 16  1  0  0  0  0
  9 17  1  0  0  0  0
 10 12  1  0  0  0  0
 11 12  1  0  0  0  0
 11 14  1  0  0  0  0
 12 15  1  0  0  0  0
 13 14  1  0  0  0  0
  1 18  1  0  0  0  0
  2 19  1  0  0  0  0
  3 20  1  0  0  0  0
  4 21  1  0  0  0  0
  5 22  1  0  0  0  0
  6 23  1  0  0  0  0
 10 24  1  0  0  0  0
 10 25  1  0  0  0  0
 10 26  1  0  0  0  0
 11 27  1  0  0  0  0
 12 28  1  0  0  0  0
 15 29  1  0  0  0  0
 15 30  1  0  0  0  0
M  END
> <FRED Chemgauss4 score>
-8.696069

$$$$
C97647104	P154815275
  -OEChem-05122015313D

 47 48  0     1  0  0  0  0  0999 V2000
  120.7199  106.5788  106.6308 C   0  0  0  0  0  0  0  0  0  0  0  0
  117.5424  103.7772  106.2070 C   0  0  0  0  0  0  0  0  0  0  0  0
  118.8666  104.4619  104.2061 C   0  0  0  0  0  0  0  0  0  0  0  0
  120.0089  104.1869  106.4824 C   0  0  0  0  0  0  0  0  0  0  0  0
  119.4567  106.9430  105.8653 C   0  0  0  0  0  0  0  0  0  0  0  0
  116.2832  104.0765  105.3969 C   0  0  0  0  0  0  0  0  0  0  0  0
  117.5400  104.7370  103.5033 C   0  0  0  0  0  0  0  0  0  0  0  0
  121.1762  105.1608  106.2827 C   0  0  2  0  0  0  0  0  0  0  0  0
  118.7365  104.6343  105.7352 C   0  0  0  0  0  0  0  0  0  0  0  0
  125.0211  103.1608  106.7071 C   0  0  0  0  0  0  0  0  0  0  0  0
  124.6296  107.4181  106.0458 C   0  0  0  0  0  0  0  0  0  0  0  0
  124.9689  104.6285  107.1152 C   0  0  0  0  0  0  0  0  0  0  0  0
  122.3811  104.7515  107.1271 C   0  0  1  0  0  0  0  0  0  0  0  0
  123.7055  105.3280  106.5937 C   0  0  1  0  0  0  0  0  0  0  0  0
  123.0629  104.3474  109.3266 N   0  0  0  0  0  0  0  0  0  0  0  0
  122.1678  105.1100  108.5103 N   0  0  0  0  0  0  0  0  0  0  0  0
  116.5175  103.8782  104.0045 O   0  0  0  0  0  0  0  0  0  0  0  0
  118.4185  105.9923  106.0858 O   0  0  0  0  0  0  0  0  0  0  0  0
  123.7607  106.7185  106.9214 O   0  0  0  0  0  0  0  0  0  0  0  0
  121.5119  107.3038  106.4119 H   0  0  0  0  0  0  0  0  0  0  0  0
  120.5106  106.6361  107.7067 H   0  0  0  0  0  0  0  0  0  0  0  0
  117.3305  103.9617  107.2669 H   0  0  0  0  0  0  0  0  0  0  0  0
  117.7913  102.7145  106.0914 H   0  0  0  0  0  0  0  0  0  0  0  0
  119.1674  103.4283  103.9909 H   0  0  0  0  0  0  0  0  0  0  0  0
  119.6315  105.1172  103.7799 H   0  0  0  0  0  0  0  0  0  0  0  0
  120.3020  103.1763  106.1714 H   0  0  0  0  0  0  0  0  0  0  0  0
  119.7883  104.1345  107.5577 H   0  0  0  0  0  0  0  0  0  0  0  0
  119.0882  107.9144  106.2114 H   0  0  0  0  0  0  0  0  0  0  0  0
  119.6535  107.0464  104.7936 H   0  0  0  0  0  0  0  0  0  0  0  0
  115.4801  103.3963  105.6988 H   0  0  0  0  0  0  0  0  0  0  0  0
  115.9265  105.0993  105.5654 H   0  0  0  0  0  0  0  0  0  0  0  0
  117.2301  105.7823  103.6165 H   0  0  0  0  0  0  0  0  0  0  0  0
  117.6419  104.5391  102.4314 H   0  0  0  0  0  0  0  0  0  0  0  0
  121.4845  105.1385  105.2299 H   0  0  0  0  0  0  0  0  0  0  0  0
  124.9771  103.0714  105.6169 H   0  0  0  0  0  0  0  0  0  0  0  0
  124.1787  102.6002  107.1239 H   0  0  0  0  0  0  0  0  0  0  0  0
  125.9501  102.6927  107.0479 H   0  0  0  0  0  0  0  0  0  0  0  0
  124.6509  108.4755  106.3205 H   0  0  0  0  0  0  0  0  0  0  0  0
  124.2797  107.3050  105.0166 H   0  0  0  0  0  0  0  0  0  0  0  0
  125.6354  107.0006  106.1346 H   0  0  0  0  0  0  0  0  0  0  0  0
  125.0145  104.6872  108.2076 H   0  0  0  0  0  0  0  0  0  0  0  0
  125.8656  105.1182  106.7177 H   0  0  0  0  0  0  0  0  0  0  0  0
  122.4500  103.6573  107.1196 H   0  0  0  0  0  0  0  0  0  0  0  0
  123.6937  105.2722  105.4986 H   0  0  0  0  0  0  0  0  0  0  0  0
  122.5229  103.7516  109.9535 H   0  0  0  0  0  0  0  0  0  0  0  0
  123.5999  103.7146  108.7350 H   0  0  0  0  0  0  0  0  0  0  0  0
  122.3636  106.1045  108.6507 H   0  0  0  0  0  0  0  0  0  0  0  0
  1  5  1  0  0  0  0
  1  8  1  0  0  0  0
  2  6  1  0  0  0  0
  2  9  1  0  0  0  0
  3  7  1  0  0  0  0
  3  9  1  0  0  0  0
  4  8  1  0  0  0  0
  4  9  1  0  0  0  0
  5 18  1  0  0  0  0
  6 17  1  0  0  0  0
  7 17  1  0  0  0  0
  8 13  1  0  0  0  0
  9 18  1  0  0  0  0
 10 12  1  0  0  0  0
 11 19  1  0  0  0  0
 12 14  1  0  0  0  0
 13 14  1  0  0  0  0
 13 16  1  0  0  0  0
 14 19  1  0  0  0  0
 15 16  1  0  0  0  0
  1 20  1  0  0  0  0
  1 21  1  0  0  0  0
  2 22  1  0  0  0  0
  2 23  1  0  0  0  0
  3 24  1  0  0  0  0
  3 25  1  0  0  0  0
  4 26  1  0  0  0  0
  4 27  1  0  0  0  0
  5 28  1  0  0  0  0
  5 29  1  0  0  0  0
  6 30  1  0  0  0  0
  6 31  1  0  0  0  0
  7 32  1  0  0  0  0
  7 33  1  0  0  0  0
  8 34  1  0  0  0  0
 10 35  1  0  0  0  0
 10 36  1  0  0  0  0
 10 37  1  0  0  0  0
 11 38  1  0  0  0  0
 11 39  1  0  0  0  0
 11 40  1  0  0  0  0
 12 41  1  0  0  0  0
 12 42  1  0  0  0  0
 13 43  1  0  0  0  0
 14 44  1  0  0  0  0
 15 45  1  0  0  0  0
 15 46  1  0  0  0  0
 16 47  1  0  0  0  0
M  END
> <FRED Chemgauss4 score>
-8.686794

$$$$
L-Asparagine	P10000024
  -OEChem-05122015313D

 17 16  0     1  0  0  0  0  0999 V2000
  124.7294  104.7194  107.8069 C   0  0  0  0  0  0  0  0  0  0  0  0
  125.9898  108.4341  107.5088 C   0  0  0  0  0  0  0  0  0  0  0  0
  124.6918  106.2280  107.9956 C   0  0  0  0  0  0  0  0  0  0  0  0
  126.0412  106.9312  107.8340 C   0  0  2  0  0  0  0  0  0  0  0  0
  123.4977  104.1366  108.0183 N   0  0  0  0  0  0  0  0  0  0  0  0
  126.8610  106.5904  109.0408 N   0  3  0  0  0  0  0  0  0  0  0  0
  125.3873  109.1444  108.3640 O   0  5  0  0  0  0  0  0  0  0  0  0
  125.7360  104.0878  107.4999 O   0  0  0  0  0  0  0  0  0  0  0  0
  126.5297  108.7843  106.4223 O   0  0  0  0  0  0  0  0  0  0  0  0
  123.9735  106.6350  107.2726 H   0  0  0  0  0  0  0  0  0  0  0  0
  124.2854  106.4314  108.9950 H   0  0  0  0  0  0  0  0  0  0  0  0
  126.5708  106.4632  106.9945 H   0  0  0  0  0  0  0  0  0  0  0  0
  122.7049  104.7190  108.2687 H   0  0  0  0  0  0  0  0  0  0  0  0
  123.3726  103.1340  107.9272 H   0  0  0  0  0  0  0  0  0  0  0  0
  126.5871  107.1766  109.8298 H   0  0  0  0  0  0  0  0  0  0  0  0
  127.8515  106.7426  108.8475 H   0  0  0  0  0  0  0  0  0  0  0  0
  126.7230  105.6118  109.2955 H   0  0  0  0  0  0  0  0  0  0  0  0
  1  3  1  0  0  0  0
  1  5  1  0  0  0  0
  1  8  2  0  0  0  0
  2  4  1  0  0  0  0
  2  7  1  0  0  0  0
  2  9  2  0  0  0  0
  3  4  1  0  0  0  0
  4  6  1  0  0  0  0
  3 10  1  0  0  0  0
  3 11  1  0  0  0  0
  4 12  1  0  0  0  0
  5 13  1  0  0  0  0
  5 14  1  0  0  0  0
  6 15  1  0  0  0  0
  6 16  1  0  0  0  0
  6 17  1  0  0  0  0
M  CHG  2   6   1   7  -1
M  END
> <FRED Chemgauss4 score>
-8.679745

$$$$
C70842458	P128807509
  -OEChem-05122015313D

 24 25  0     1  0  0  0  0  0999 V2000
  121.8176  105.5370  106.2893 C   0  0  0  0  0  0  0  0  0  0  0  0
  122.5912  106.6499  106.0896 C   0  0  0  0  0  0  0  0  0  0  0  0
  123.5399  107.2099  107.0653 C   0  0  0  0  0  0  0  0  0  0  0  0
  125.8258  104.4967  108.1192 C   0  0  0  0  0  0  0  0  0  0  0  0
  124.8673  105.0275  107.0609 C   0  0  0  0  0  0  0  0  0  0  0  0
  125.5187  106.8314  108.5161 C   0  0  0  0  0  0  0  0  0  0  0  0
  126.5886  105.7520  108.5207 C   0  0  1  0  0  0  0  0  0  0  0  0
  121.4125  106.3113  104.3363 N   0  5  0  0  0  0  0  0  0  0  0  0
  121.0696  105.3089  105.1957 N   0  0  0  0  0  0  0  0  0  0  0  0
  122.3492  107.1503  104.8655 N   0  0  0  0  0  0  0  0  0  0  0  0
  124.5822  106.3984  107.4858 N   0  0  0  0  0  0  0  0  0  0  0  0
  127.1921  105.6028  109.8558 N   0  3  0  0  0  0  0  0  0  0  0  0
  123.3400  108.3598  107.4518 O   0  0  0  0  0  0  0  0  0  0  0  0
  121.7756  104.9056  107.1669 H   0  0  0  0  0  0  0  0  0  0  0  0
  125.3102  104.0024  108.9398 H   0  0  0  0  0  0  0  0  0  0  0  0
  126.5159  103.7864  107.6594 H   0  0  0  0  0  0  0  0  0  0  0  0
  125.2935  105.0172  106.0562 H   0  0  0  0  0  0  0  0  0  0  0  0
  123.9233  104.4768  107.0526 H   0  0  0  0  0  0  0  0  0  0  0  0
  125.0191  106.9635  109.4798 H   0  0  0  0  0  0  0  0  0  0  0  0
  125.9353  107.7919  108.1946 H   0  0  0  0  0  0  0  0  0  0  0  0
  127.4280  105.9827  107.8240 H   0  0  0  0  0  0  0  0  0  0  0  0
  126.6635  104.9307  110.4189 H   0  0  0  0  0  0  0  0  0  0  0  0
  127.1999  106.4991  110.3510 H   0  0  0  0  0  0  0  0  0  0  0  0
  128.1573  105.2694  109.7815 H   0  0  0  0  0  0  0  0  0  0  0  0
  1  2  1  0  0  0  0
  1  9  2  0  0  0  0
  2  3  1  0  0  0  0
  2 10  2  0  0  0  0
  3 11  1  0  0  0  0
  3 13  2  0  0  0  0
  4  5  1  0  0  0  0
  4  7  1  0  0  0  0
  5 11  1  0  0  0  0
  6  7  1  0  0  0  0
  6 11  1  0  0  0  0
  7 12  1  0  0  0  0
  8  9  1  0  0  0  0
  8 10  1  0  0  0  0
  1 14  1  0  0  0  0
  4 15  1  0  0  0  0
  4 16  1  0  0  0  0
  5 17  1  0  0  0  0
  5 18  1  0  0  0  0
  6 19  1  0  0  0  0
  6 20  1  0  0  0  0
  7 21  1  0  0  0  0
 12 22  1  0  0  0  0
 12 23  1  0  0  0  0
 12 24  1  0  0  0  0
M  CHG  2   8  -1  12   1
M  END
> <FRED Chemgauss4 score>
-8.673826

$$$$
C18310963	P151024905
  -OEChem-05122015313D

 14 15  0     0  0  0  0  0  0999 V2000
  124.0192  105.5792  107.0018 C   0  0  0  0  0  0  0  0  0  0  0  0
  124.5688  107.6054  106.3921 C   0  0  0  0  0  0  0  0  0  0  0  0
  126.2436  108.2890  107.5135 C   0  0  0  0  0  0  0  0  0  0  0  0
  125.9458  106.8967  108.0046 C   0  0  0  0  0  0  0  0  0  0  0  0
  123.1859  105.9627  106.0509 N   0  0  0  0  0  0  0  0  0  0  0  0
  123.5367  107.2580  105.6604 N   0  0  0  0  0  0  0  0  0  0  0  0
  125.4087  108.6588  106.5686 N   0  0  0  0  0  0  0  0  0  0  0  0
  126.5396  106.2128  108.9083 N   0  0  0  0  0  0  0  0  0  0  0  0
  124.8828  106.5868  107.2250 N   0  0  0  0  0  0  0  0  0  0  0  0
  127.2802  108.9934  108.0499 N   0  0  0  0  0  0  0  0  0  0  0  0
  124.0228  104.6314  107.5200 H   0  0  0  0  0  0  0  0  0  0  0  0
  127.3153  106.7591  109.3054 H   0  0  0  0  0  0  0  0  0  0  0  0
  127.8279  108.5674  108.7662 H   0  0  0  0  0  0  0  0  0  0  0  0
  127.4599  109.9135  107.7102 H   0  0  0  0  0  0  0  0  0  0  0  0
  1  5  2  0  0  0  0
  1  9  1  0  0  0  0
  2  6  2  0  0  0  0
  2  7  1  0  0  0  0
  2  9  1  0  0  0  0
  3  4  1  0  0  0  0
  3  7  2  0  0  0  0
  3 10  1  0  0  0  0
  4  8  2  0  0  0  0
  4  9  1  0  0  0  0
  5  6  1  0  0  0  0
  1 11  1  0  0  0  0
  8 12  1  0  0  0  0
 10 13  1  0  0  0  0
 10 14  1  0  0  0  0
M  END
> <FRED Chemgauss4 score>
-8.670884

$$$$
C35892937	P53283978
  -OEChem-05122015313D

 45 49  0     0  0  0  0  0  0999 V2000
  120.4920  106.7187  106.9532 C   0  0  0  0  0  0  0  0  0  0  0  0
  119.3858  107.6366  107.1179 C   0  0  0  0  0  0  0  0  0  0  0  0
  119.7516  108.7345  107.8871 C   0  0  0  0  0  0  0  0  0  0  0  0
  120.6188  105.4859  106.2977 C   0  0  0  0  0  0  0  0  0  0  0  0
  121.6369  107.1861  107.5814 C   0  0  0  0  0  0  0  0  0  0  0  0
  122.8235  105.4055  106.9489 C   0  0  0  0  0  0  0  0  0  0  0  0
  118.0147  107.3956  106.5364 C   0  0  0  0  0  0  0  0  0  0  0  0
  118.9218  109.9134  108.3184 C   0  0  0  0  0  0  0  0  0  0  0  0
  117.2745  108.6692  106.1336 C   0  0  0  0  0  0  0  0  0  0  0  0
  117.4614  109.5472  108.5724 C   0  0  0  0  0  0  0  0  0  0  0  0
  116.6207  109.4104  107.3014 C   0  0  0  0  0  0  0  0  0  0  0  0
  117.8422  104.4681  104.0246 C   0  0  0  0  0  0  0  0  0  0  0  0
  117.8487  103.3340  105.0295 C   0  0  0  0  0  0  0  0  0  0  0  0
  124.7091  104.0987  108.2134 C   0  0  0  0  0  0  0  0  0  0  0  0
  125.3732  105.2528  107.5301 C   0  0  0  0  0  0  0  0  0  0  0  0
  119.2284  105.0786  104.1971 C   0  0  0  0  0  0  0  0  0  0  0  0
  118.5906  103.9397  106.2155 C   0  0  0  0  0  0  0  0  0  0  0  0
  124.1277  104.6439  106.9300 C   0  0  0  0  0  0  0  0  0  0  0  0
  121.7972  104.8273  106.2986 N   0  0  0  0  0  0  0  0  0  0  0  0
  122.8363  106.5732  107.6130 N   0  0  0  0  0  0  0  0  0  0  0  0
  119.5496  104.8750  105.6151 N   0  0  0  0  0  0  0  0  0  0  0  0
  121.3993  108.6768  108.3540 S   0  0  0  0  0  0  0  0  0  0  0  0
  118.0576  106.7506  105.6548 H   0  0  0  0  0  0  0  0  0  0  0  0
  117.4191  106.8312  107.2716 H   0  0  0  0  0  0  0  0  0  0  0  0
  119.3674  110.3580  109.2196 H   0  0  0  0  0  0  0  0  0  0  0  0
  118.9517  110.6971  107.5472 H   0  0  0  0  0  0  0  0  0  0  0  0
  117.9408  109.3468  105.5847 H   0  0  0  0  0  0  0  0  0  0  0  0
  116.4740  108.3864  105.4374 H   0  0  0  0  0  0  0  0  0  0  0  0
  117.4426  108.5771  109.0854 H   0  0  0  0  0  0  0  0  0  0  0  0
  116.9936  110.2699  109.2526 H   0  0  0  0  0  0  0  0  0  0  0  0
  116.3741  110.4272  106.9545 H   0  0  0  0  0  0  0  0  0  0  0  0
  115.6542  108.9395  107.5450 H   0  0  0  0  0  0  0  0  0  0  0  0
  117.6572  104.1317  103.0009 H   0  0  0  0  0  0  0  0  0  0  0  0
  117.0713  105.2013  104.2907 H   0  0  0  0  0  0  0  0  0  0  0  0
  116.8445  102.9923  105.2947 H   0  0  0  0  0  0  0  0  0  0  0  0
  118.4089  102.4803  104.6295 H   0  0  0  0  0  0  0  0  0  0  0  0
  125.1985  103.1340  108.1651 H   0  0  0  0  0  0  0  0  0  0  0  0
  124.1988  104.2943  109.1483 H   0  0  0  0  0  0  0  0  0  0  0  0
  125.3094  106.2239  108.0049 H   0  0  0  0  0  0  0  0  0  0  0  0
  126.3101  105.0661  107.0202 H   0  0  0  0  0  0  0  0  0  0  0  0
  119.9729  104.5567  103.5797 H   0  0  0  0  0  0  0  0  0  0  0  0
  119.2338  106.1422  103.9230 H   0  0  0  0  0  0  0  0  0  0  0  0
  117.9060  104.4961  106.8710 H   0  0  0  0  0  0  0  0  0  0  0  0
  119.0903  103.1651  106.8125 H   0  0  0  0  0  0  0  0  0  0  0  0
  124.2763  104.0331  106.0404 H   0  0  0  0  0  0  0  0  0  0  0  0
  1  2  1  0  0  0  0
  1  4  2  0  0  0  0
  1  5  1  0  0  0  0
  2  3  2  0  0  0  0
  2  7  1  0  0  0  0
  3  8  1  0  0  0  0
  3 22  1  0  0  0  0
  4 19  1  0  0  0  0
  4 21  1  0  0  0  0
  5 20  2  0  0  0  0
  5 22  1  0  0  0  0
  6 18  1  0  0  0  0
  6 19  2  0  0  0  0
  6 20  1  0  0  0  0
  7  9  1  0  0  0  0
  8 10  1  0  0  0  0
  9 11  1  0  0  0  0
 10 11  1  0  0  0  0
 12 13  1  0  0  0  0
 12 16  1  0  0  0  0
 13 17  1  0  0  0  0
 14 15  1  0  0  0  0
 14 18  1  0  0  0  0
 15 18  1  0  0  0  0
 16 21  1  0  0  0  0
 17 21  1  0  0  0  0
  7 23  1  0  0  0  0
  7 24  1  0  0  0  0
  8 25  1  0  0  0  0
  8 26  1  0  0  0  0
  9 27  1  0  0  0  0
  9 28  1  0  0  0  0
 10 29  1  0  0  0  0
 10 30  1  0  0  0  0
 11 31  1  0  0  0  0
 11 32  1  0  0  0  0
 12 33  1  0  0  0  0
 12 34  1  0  0  0  0
 13 35  1  0  0  0  0
 13 36  1  0  0  0  0
 14 37  1  0  0  0  0
 14 38  1  0  0  0  0
 15 39  1  0  0  0  0
 15 40  1  0  0  0  0
 16 41  1  0  0  0  0
 16 42  1  0  0  0  0
 17 43  1  0  0  0  0
 17 44  1  0  0  0  0
 18 45  1  0  0  0  0
M  END
> <FRED Chemgauss4 score>
-8.667149

$$$$
C42029852	P63624183
  -OEChem-05122015313D

 29 29  0     1  0  0  0  0  0999 V2000
  123.2810  106.8978  105.8418 C   0  0  0  0  0  0  0  0  0  0  0  0
  124.5723  107.8837  107.2804 C   0  0  0  0  0  0  0  0  0  0  0  0
  122.3820  105.8967  105.2406 C   0  0  0  0  0  0  0  0  0  0  0  0
  124.7817  104.7420  108.0784 C   0  0  0  0  0  0  0  0  0  0  0  0
  124.9478  109.4593  109.2544 C   0  0  0  0  0  0  0  0  0  0  0  0
  123.5964  105.6904  108.0224 C   0  0  0  0  0  0  0  0  0  0  0  0
  123.4728  109.5109  109.6387 C   0  0  0  0  0  0  0  0  0  0  0  0
  125.3470  108.1506  108.5539 C   0  0  2  0  0  0  0  0  0  0  0  0
  123.6984  108.0173  105.2952 N   0  0  0  0  0  0  0  0  0  0  0  0
  124.5200  108.6446  106.2105 N   0  0  0  0  0  0  0  0  0  0  0  0
  123.8068  106.7732  107.0919 N   0  0  0  0  0  0  0  0  0  0  0  0
  126.7695  108.1372  108.2882 N   0  0  0  0  0  0  0  0  0  0  0  0
  123.2060  110.7630  110.2575 O   0  0  0  0  0  0  0  0  0  0  0  0
  122.9504  105.1312  104.6857 H   0  0  0  0  0  0  0  0  0  0  0  0
  121.7734  105.3746  105.9998 H   0  0  0  0  0  0  0  0  0  0  0  0
  121.6627  106.3525  104.5373 H   0  0  0  0  0  0  0  0  0  0  0  0
  124.9827  104.3013  107.0962 H   0  0  0  0  0  0  0  0  0  0  0  0
  124.5838  103.9287  108.7834 H   0  0  0  0  0  0  0  0  0  0  0  0
  125.6892  105.2620  108.4028 H   0  0  0  0  0  0  0  0  0  0  0  0
  125.5495  109.5834  110.1655 H   0  0  0  0  0  0  0  0  0  0  0  0
  125.1945  110.3332  108.6370 H   0  0  0  0  0  0  0  0  0  0  0  0
  123.4032  106.1261  109.0092 H   0  0  0  0  0  0  0  0  0  0  0  0
  122.6886  105.1566  107.7192 H   0  0  0  0  0  0  0  0  0  0  0  0
  122.8271  109.4202  108.7602 H   0  0  0  0  0  0  0  0  0  0  0  0
  123.2266  108.7142  110.3478 H   0  0  0  0  0  0  0  0  0  0  0  0
  125.1847  107.3253  109.2587 H   0  0  0  0  0  0  0  0  0  0  0  0
  127.1244  107.5065  107.5934 H   0  0  0  0  0  0  0  0  0  0  0  0
  127.3847  108.5987  108.9324 H   0  0  0  0  0  0  0  0  0  0  0  0
  122.2634  110.7649  110.4894 H   0  0  0  0  0  0  0  0  0  0  0  0
  1  3  1  0  0  0  0
  1  9  2  0  0  0  0
  1 11  1  0  0  0  0
  2  8  1  0  0  0  0
  2 10  2  0  0  0  0
  2 11  1  0  0  0  0
  4  6  1  0  0  0  0
  5  7  1  0  0  0  0
  5  8  1  0  0  0  0
  6 11  1  0  0  0  0
  7 13  1  0  0  0  0
  8 12  1  0  0  0  0
  9 10  1  0  0  0  0
  3 14  1  0  0  0  0
  3 15  1  0  0  0  0
  3 16  1  0  0  0  0
  4 17  1  0  0  0  0
  4 18  1  0  0  0  0
  4 19  1  0  0  0  0
  5 20  1  0  0  0  0
  5 21  1  0  0  0  0
  6 22  1  0  0  0  0
  6 23  1  0  0  0  0
  7 24  1  0  0  0  0
  7 25  1  0  0  0  0
  8 26  1  0  0  0  0
 12 27  1  0  0  0  0
 12 28  1  0  0  0  0
 13 29  1  0  0  0  0
M  END
> <FRED Chemgauss4 score>
-8.666057

$$$$
C93296832	P146059061
  -OEChem-05122015313D

 30 31  0     0  0  0  0  0  0999 V2000
  125.1466  108.0695  109.9303 C   0  0  0  0  0  0  0  0  0  0  0  0
  123.2416  109.0834  108.8439 C   0  0  0  0  0  0  0  0  0  0  0  0
  125.2459  107.1435  108.8920 C   0  0  0  0  0  0  0  0  0  0  0  0
  123.3410  108.1573  107.8055 C   0  0  0  0  0  0  0  0  0  0  0  0
  123.8171  110.9558  112.9391 C   0  0  0  0  0  0  0  0  0  0  0  0
  124.1444  109.0395  109.9063 C   0  0  0  0  0  0  0  0  0  0  0  0
  124.3432  107.1874  107.8296 C   0  0  0  0  0  0  0  0  0  0  0  0
  123.8320  109.7200  112.3399 C   0  0  0  0  0  0  0  0  0  0  0  0
  124.0430  109.9931  110.9751 C   0  0  0  0  0  0  0  0  0  0  0  0
  124.0740  113.2942  112.0744 C   0  0  0  0  0  0  0  0  0  0  0  0
  123.6629  108.4126  112.9979 C   0  0  0  0  0  0  0  0  0  0  0  0
  124.4511  106.1976  106.7193 C   0  0  0  0  0  0  0  0  0  0  0  0
  124.1540  111.2999  110.7220 N   0  0  0  0  0  0  0  0  0  0  0  0
  124.0122  111.8589  111.9358 N   0  0  0  0  0  0  0  0  0  0  0  0
  124.8395  107.9906  113.7287 N   0  0  0  0  0  0  0  0  0  0  0  0
  125.4778  105.3100  106.8748 F   0  0  0  0  0  0  0  0  0  0  0  0
  123.3345  105.4264  106.5637 F   0  0  0  0  0  0  0  0  0  0  0  0
  124.6593  106.7890  105.5069 F   0  0  0  0  0  0  0  0  0  0  0  0
  125.8577  108.0213  110.7516 H   0  0  0  0  0  0  0  0  0  0  0  0
  122.4549  109.8334  108.8106 H   0  0  0  0  0  0  0  0  0  0  0  0
  126.0302  106.3916  108.9181 H   0  0  0  0  0  0  0  0  0  0  0  0
  122.6338  108.1983  106.9813 H   0  0  0  0  0  0  0  0  0  0  0  0
  123.6869  111.2618  113.9683 H   0  0  0  0  0  0  0  0  0  0  0  0
  125.1161  113.5712  112.2540 H   0  0  0  0  0  0  0  0  0  0  0  0
  123.7057  113.7646  111.1584 H   0  0  0  0  0  0  0  0  0  0  0  0
  123.4449  113.6036  112.9137 H   0  0  0  0  0  0  0  0  0  0  0  0
  122.8264  108.4179  113.7208 H   0  0  0  0  0  0  0  0  0  0  0  0
  123.4345  107.6054  112.2780 H   0  0  0  0  0  0  0  0  0  0  0  0
  124.9986  107.0092  113.8599 H   0  0  0  0  0  0  0  0  0  0  0  0
  125.3504  108.6747  114.2548 H   0  0  0  0  0  0  0  0  0  0  0  0
  1  3  2  0  0  0  0
  1  6  1  0  0  0  0
  2  4  1  0  0  0  0
  2  6  2  0  0  0  0
  3  7  1  0  0  0  0
  4  7  2  0  0  0  0
  5  8  2  0  0  0  0
  5 14  1  0  0  0  0
  6  9  1  0  0  0  0
  7 12  1  0  0  0  0
  8  9  1  0  0  0  0
  8 11  1  0  0  0  0
  9 13  2  0  0  0  0
 10 14  1  0  0  0  0
 11 15  1  0  0  0  0
 12 16  1  0  0  0  0
 12 17  1  0  0  0  0
 12 18  1  0  0  0  0
 13 14  1  0  0  0  0
  1 19  1  0  0  0  0
  2 20  1  0  0  0  0
  3 21  1  0  0  0  0
  4 22  1  0  0  0  0
  5 23  1  0  0  0  0
 10 24  1  0  0  0  0
 10 25  1  0  0  0  0
 10 26  1  0  0  0  0
 11 27  1  0  0  0  0
 11 28  1  0  0  0  0
 15 29  1  0  0  0  0
 15 30  1  0  0  0  0
M  END
> <FRED Chemgauss4 score>
-8.663989

$$$$
C05517275	P08195379
  -OEChem-05122015313D

 21 21  0     1  0  0  0  0  0999 V2000
  126.1318  107.5936  107.6154 C   0  0  0  0  0  0  0  0  0  0  0  0
  126.3208  105.4301  108.8918 C   0  0  0  0  0  0  0  0  0  0  0  0
  124.6147  107.1840  109.4185 C   0  0  0  0  0  0  0  0  0  0  0  0
  124.3449  108.5611  108.8374 C   0  0  0  0  0  0  0  0  0  0  0  0
  125.4082  106.4638  108.3221 C   0  0  1  0  0  0  0  0  0  0  0  0
  125.4712  108.7617  107.9756 N   0  0  0  0  0  0  0  0  0  0  0  0
  125.7805  109.9873  107.4413 N   0  0  0  0  0  0  0  0  0  0  0  0
  128.0702  105.1130  110.4735 N   0  0  0  0  0  0  0  0  0  0  0  0
  127.1836  105.9553  109.8346 N   0  0  0  0  0  0  0  0  0  0  0  0
  127.0869  107.4618  106.8650 O   0  0  0  0  0  0  0  0  0  0  0  0
  126.2552  104.2520  108.5483 O   0  0  0  0  0  0  0  0  0  0  0  0
  125.2128  107.2754  110.3347 H   0  0  0  0  0  0  0  0  0  0  0  0
  123.6916  106.6584  109.6826 H   0  0  0  0  0  0  0  0  0  0  0  0
  123.4329  108.5695  108.2312 H   0  0  0  0  0  0  0  0  0  0  0  0
  124.2916  109.3359  109.6077 H   0  0  0  0  0  0  0  0  0  0  0  0
  124.7317  105.9892  107.6001 H   0  0  0  0  0  0  0  0  0  0  0  0
  126.7883  110.0626  107.2131 H   0  0  0  0  0  0  0  0  0  0  0  0
  125.6263  110.7505  108.1242 H   0  0  0  0  0  0  0  0  0  0  0  0
  128.9153  105.6537  110.6523 H   0  0  0  0  0  0  0  0  0  0  0  0
  128.3333  104.3947  109.8002 H   0  0  0  0  0  0  0  0  0  0  0  0
  127.1655  106.9463  110.0540 H   0  0  0  0  0  0  0  0  0  0  0  0
  1  5  1  0  0  0  0
  1  6  1  0  0  0  0
  1 10  2  0  0  0  0
  2  5  1  0  0  0  0
  2  9  1  0  0  0  0
  2 11  2  0  0  0  0
  3  4  1  0  0  0  0
  3  5  1  0  0  0  0
  4  6  1  0  0  0  0
  6  7  1  0  0  0  0
  8  9  1  0  0  0  0
  3 12  1  0  0  0  0
  3 13  1  0  0  0  0
  4 14  1  0  0  0  0
  4 15  1  0  0  0  0
  5 16  1  0  0  0  0
  7 17  1  0  0  0  0
  7 18  1  0  0  0  0
  8 19  1  0  0  0  0
  8 20  1  0  0  0  0
  9 21  1  0  0  0  0
M  END
> <FRED Chemgauss4 score>
-8.661926

$$$$
C97694173	P154943471
  -OEChem-05122015313D

 30 31  0     1  0  0  0  0  0999 V2000
  125.5605  108.9607  107.9702 C   0  0  0  0  0  0  0  0  0  0  0  0
  124.4212  107.9393  109.5493 C   0  0  0  0  0  0  0  0  0  0  0  0
  125.3236  107.6967  108.5427 C   0  0  0  0  0  0  0  0  0  0  0  0
  126.2070  104.6388  106.2896 C   0  0  0  0  0  0  0  0  0  0  0  0
  125.3704  103.5403  106.9261 C   0  0  0  0  0  0  0  0  0  0  0  0
  124.0998  105.8600  106.4447 C   0  0  0  0  0  0  0  0  0  0  0  0
  125.6021  105.9847  106.6927 C   0  0  1  0  0  0  0  0  0  0  0  0
  123.2953  110.0128  110.3930 C   0  0  0  0  0  0  0  0  0  0  0  0
  125.9252  106.3658  108.1394 C   0  0  1  0  0  0  0  0  0  0  0  0
  124.8646  109.9342  108.5636 N   0  0  0  0  0  0  0  0  0  0  0  0
  124.1814  109.2816  109.5194 N   0  0  0  0  0  0  0  0  0  0  0  0
  127.6079  106.1283  109.7450 N   0  0  0  0  0  0  0  0  0  0  0  0
  127.3556  106.3499  108.3541 N   0  0  0  0  0  0  0  0  0  0  0  0
  123.6622  104.1433  106.8495 S   0  0  0  0  0  0  0  0  0  0  0  0
  126.2100  109.2155  107.1447 H   0  0  0  0  0  0  0  0  0  0  0  0
  123.9401  107.2872  110.2657 H   0  0  0  0  0  0  0  0  0  0  0  0
  127.2532  104.5640  106.6337 H   0  0  0  0  0  0  0  0  0  0  0  0
  126.2321  104.5213  105.1947 H   0  0  0  0  0  0  0  0  0  0  0  0
  125.4426  102.6098  106.3538 H   0  0  0  0  0  0  0  0  0  0  0  0
  125.6732  103.3421  107.9581 H   0  0  0  0  0  0  0  0  0  0  0  0
  123.5218  106.5296  107.0970 H   0  0  0  0  0  0  0  0  0  0  0  0
  123.8392  106.0921  105.4035 H   0  0  0  0  0  0  0  0  0  0  0  0
  126.0116  106.7717  106.0342 H   0  0  0  0  0  0  0  0  0  0  0  0
  123.8721  110.3385  111.2627 H   0  0  0  0  0  0  0  0  0  0  0  0
  122.8882  110.8760  109.8592 H   0  0  0  0  0  0  0  0  0  0  0  0
  122.4725  109.3614  110.7007 H   0  0  0  0  0  0  0  0  0  0  0  0
  125.5247  105.5804  108.7945 H   0  0  0  0  0  0  0  0  0  0  0  0
  126.7221  105.9918  110.2312 H   0  0  0  0  0  0  0  0  0  0  0  0
  128.1239  105.2565  109.8566 H   0  0  0  0  0  0  0  0  0  0  0  0
  127.7603  107.2501  108.0862 H   0  0  0  0  0  0  0  0  0  0  0  0
  1  3  1  0  0  0  0
  1 10  2  0  0  0  0
  2  3  2  0  0  0  0
  2 11  1  0  0  0  0
  3  9  1  0  0  0  0
  4  5  1  0  0  0  0
  4  7  1  0  0  0  0
  5 14  1  0  0  0  0
  6  7  1  0  0  0  0
  6 14  1  0  0  0  0
  7  9  1  0  0  0  0
  8 11  1  0  0  0  0
  9 13  1  0  0  0  0
 10 11  1  0  0  0  0
 12 13  1  0  0  0  0
  1 15  1  0  0  0  0
  2 16  1  0  0  0  0
  4 17  1  0  0  0  0
  4 18  1  0  0  0  0
  5 19  1  0  0  0  0
  5 20  1  0  0  0  0
  6 21  1  0  0  0  0
  6 22  1  0  0  0  0
  7 23  1  0  0  0  0
  8 24  1  0  0  0  0
  8 25  1  0  0  0  0
  8 26  1  0  0  0  0
  9 27  1  0  0  0  0
 12 28  1  0  0  0  0
 12 29  1  0  0  0  0
 13 30  1  0  0  0  0
M  END
> <FRED Chemgauss4 score>
-8.659786

$$$$
TBOA
  -OEChem-05122015313D

 30 30  0     1  0  0  0  0  0999 V2000
  118.4776  104.4877  105.2749 C   0  0  0  0  0  0  0  0  0  0  0  0
  119.3352  103.8687  106.1843 C   0  0  0  0  0  0  0  0  0  0  0  0
  118.9951  105.3280  104.2891 C   0  0  0  0  0  0  0  0  0  0  0  0
  120.7103  104.0902  106.1080 C   0  0  0  0  0  0  0  0  0  0  0  0
  120.3702  105.5495  104.2128 C   0  0  0  0  0  0  0  0  0  0  0  0
  121.2278  104.9306  105.1223 C   0  0  0  0  0  0  0  0  0  0  0  0
  126.1779  107.7535  107.2986 C   0  0  0  0  0  0  0  0  0  0  0  0
  124.6418  105.3409  107.3295 C   0  0  0  0  0  0  0  0  0  0  0  0
  122.7068  105.1694  105.0398 C   0  0  0  0  0  0  0  0  0  0  0  0
  124.8763  107.7295  106.5100 C   0  0  2  0  0  0  0  0  0  0  0  0
  124.4220  106.3019  106.1793 C   0  0  2  0  0  0  0  0  0  0  0  0
  125.1013  108.4720  105.2655 N   0  0  0  0  0  0  0  0  0  0  0  0
  127.2287  107.2338  106.9445 O   0  0  0  0  0  0  0  0  0  0  0  0
  123.8494  105.1265  108.2356 O   0  0  0  0  0  0  0  0  0  0  0  0
  126.0489  108.4148  108.4785 O   0  0  0  0  0  0  0  0  0  0  0  0
  125.8640  104.7571  107.2468 O   0  0  0  0  0  0  0  0  0  0  0  0
  123.0410  106.2924  105.8444 O   0  0  0  0  0  0  0  0  0  0  0  0
  117.4071  104.3141  105.3335 H   0  0  0  0  0  0  0  0  0  0  0  0
  118.9326  103.2135  106.9512 H   0  0  0  0  0  0  0  0  0  0  0  0
  118.3278  105.8092  103.5802 H   0  0  0  0  0  0  0  0  0  0  0  0
  121.3709  103.6039  106.8210 H   0  0  0  0  0  0  0  0  0  0  0  0
  120.7644  106.2059  103.4415 H   0  0  0  0  0  0  0  0  0  0  0  0
  123.2651  104.2966  105.3953 H   0  0  0  0  0  0  0  0  0  0  0  0
  123.0109  105.3651  104.0059 H   0  0  0  0  0  0  0  0  0  0  0  0
  124.1098  108.2740  107.0723 H   0  0  0  0  0  0  0  0  0  0  0  0
  124.9732  105.9096  105.3154 H   0  0  0  0  0  0  0  0  0  0  0  0
  125.7246  109.2458  105.2944 H   0  0  0  0  0  0  0  0  0  0  0  0
  124.4794  108.3051  104.5082 H   0  0  0  0  0  0  0  0  0  0  0  0
  126.8579  108.4490  109.0320 H   0  0  0  0  0  0  0  0  0  0  0  0
  126.0300  104.1479  107.9974 H   0  0  0  0  0  0  0  0  0  0  0  0
  1  2  2  0  0  0  0
  1  3  1  0  0  0  0
  2  4  1  0  0  0  0
  3  5  2  0  0  0  0
  4  6  2  0  0  0  0
  5  6  1  0  0  0  0
  6  9  1  0  0  0  0
  7 10  1  0  0  0  0
  7 13  2  0  0  0  0
  7 15  1  0  0  0  0
  8 11  1  0  0  0  0
  8 14  2  0  0  0  0
  8 16  1  0  0  0  0
  9 17  1  0  0  0  0
 10 11  1  0  0  0  0
 10 12  1  0  0  0  0
 11 17  1  0  0  0  0
  1 18  1  0  0  0  0
  2 19  1  0  0  0  0
  3 20  1  0  0  0  0
  4 21  1  0  0  0  0
  5 22  1  0  0  0  0
  9 23  1  0  0  0  0
  9 24  1  0  0  0  0
 10 25  1  0  0  0  0
 11 26  1  0  0  0  0
 12 27  1  0  0  0  0
 12 28  1  0  0  0  0
 15 29  1  0  0  0  0
 16 30  1  0  0  0  0
M  END
> <FRED Chemgauss4 score>
-8.658274

$$$$
C86695381	P135727229
  -OEChem-05122015313D

 27 28  0     0  0  0  0  0  0999 V2000
  121.4209  107.5813  108.0605 C   0  0  0  0  0  0  0  0  0  0  0  0
  121.3391  105.2492  107.4348 C   0  0  0  0  0  0  0  0  0  0  0  0
  119.5840  106.7518  106.7283 C   0  0  0  0  0  0  0  0  0  0  0  0
  125.6884  104.2320  106.8852 C   0  0  0  0  0  0  0  0  0  0  0  0
  124.6985  104.2384  107.8394 C   0  0  0  0  0  0  0  0  0  0  0  0
  121.9786  106.3031  108.0875 C   0  0  0  0  0  0  0  0  0  0  0  0
  120.2236  107.8057  107.3810 C   0  0  0  0  0  0  0  0  0  0  0  0
  120.1417  105.4735  106.7553 C   0  0  0  0  0  0  0  0  0  0  0  0
  125.0556  106.2587  107.0347 C   0  0  0  0  0  0  0  0  0  0  0  0
  123.2592  106.0639  108.8137 C   0  0  0  0  0  0  0  0  0  0  0  0
  124.8931  107.7164  106.8594 C   0  0  0  0  0  0  0  0  0  0  0  0
  125.9062  105.4927  106.3884 N   0  0  0  0  0  0  0  0  0  0  0  0
  124.3031  105.5437  107.9245 N   0  0  0  0  0  0  0  0  0  0  0  0
  126.1212  108.3766  106.4749 N   0  0  0  0  0  0  0  0  0  0  0  0
  119.6880  109.0329  107.3551 F   0  0  0  0  0  0  0  0  0  0  0  0
  119.2740  104.0463  105.8708 Br  0  0  0  0  0  0  0  0  0  0  0  0
  121.9124  108.4085  108.5659 H   0  0  0  0  0  0  0  0  0  0  0  0
  121.7797  104.2552  107.4609 H   0  0  0  0  0  0  0  0  0  0  0  0
  118.6518  106.9437  106.2033 H   0  0  0  0  0  0  0  0  0  0  0  0
  126.2555  103.3836  106.5308 H   0  0  0  0  0  0  0  0  0  0  0  0
  124.2586  103.4561  108.4421 H   0  0  0  0  0  0  0  0  0  0  0  0
  123.6452  106.9857  109.2774 H   0  0  0  0  0  0  0  0  0  0  0  0
  123.1343  105.3434  109.6376 H   0  0  0  0  0  0  0  0  0  0  0  0
  124.1454  107.9555  106.0827 H   0  0  0  0  0  0  0  0  0  0  0  0
  124.5431  108.2111  107.7822 H   0  0  0  0  0  0  0  0  0  0  0  0
  126.2445  109.3438  106.7126 H   0  0  0  0  0  0  0  0  0  0  0  0
  126.7255  107.9250  105.8129 H   0  0  0  0  0  0  0  0  0  0  0  0
  1  6  1  0  0  0  0
  1  7  2  0  0  0  0
  2  6  2  0  0  0  0
  2  8  1  0  0  0  0
  3  7  1  0  0  0  0
  3  8  2  0  0  0  0
  4  5  2  0  0  0  0
  4 12  1  0  0  0  0
  5 13  1  0  0  0  0
  6 10  1  0  0  0  0
  7 15  1  0  0  0  0
  8 16  1  0  0  0  0
  9 11  1  0  0  0  0
  9 12  2  0  0  0  0
  9 13  1  0  0  0  0
 10 13  1  0  0  0  0
 11 14  1  0  0  0  0
  1 17  1  0  0  0  0
  2 18  1  0  0  0  0
  3 19  1  0  0  0  0
  4 20  1  0  0  0  0
  5 21  1  0  0  0  0
 10 22  1  0  0  0  0
 10 23  1  0  0  0  0
 11 24  1  0  0  0  0
 11 25  1  0  0  0  0
 14 26  1  0  0  0  0
 14 27  1  0  0  0  0
M  END
> <FRED Chemgauss4 score>
-8.657106

$$$$
C37269428	P55419407
  -OEChem-05122015313D

 22 21  0     0  0  0  0  0  0999 V2000
  125.1761  108.0187  107.5539 C   0  0  0  0  0  0  0  0  0  0  0  0
  124.4796  107.2097  108.6012 C   0  0  0  0  0  0  0  0  0  0  0  0
  121.9514  105.2496  107.8837 C   0  0  0  0  0  0  0  0  0  0  0  0
  125.1638  105.1058  107.4575 C   0  0  0  0  0  0  0  0  0  0  0  0
  123.1164  105.1341  108.8394 C   0  0  0  0  0  0  0  0  0  0  0  0
  121.5419  104.0230  107.4064 N   0  0  0  0  0  0  0  0  0  0  0  0
  127.0728  109.3857  107.1694 N   0  0  0  0  0  0  0  0  0  0  0  0
  126.3369  108.5873  108.0190 N   0  0  0  0  0  0  0  0  0  0  0  0
  124.2625  105.8670  108.3096 N   0  0  0  0  0  0  0  0  0  0  0  0
  124.6535  108.1035  106.4538 O   0  0  0  0  0  0  0  0  0  0  0  0
  124.1617  107.8176  109.6165 O   0  0  0  0  0  0  0  0  0  0  0  0
  121.4008  106.3097  107.5991 O   0  0  0  0  0  0  0  0  0  0  0  0
  125.9483  104.6413  108.0605 H   0  0  0  0  0  0  0  0  0  0  0  0
  125.6304  105.7629  106.7186 H   0  0  0  0  0  0  0  0  0  0  0  0
  124.6136  104.3213  106.9309 H   0  0  0  0  0  0  0  0  0  0  0  0
  123.4129  104.0897  108.9693 H   0  0  0  0  0  0  0  0  0  0  0  0
  122.8415  105.5670  109.8050 H   0  0  0  0  0  0  0  0  0  0  0  0
  122.0057  103.1690  107.6976 H   0  0  0  0  0  0  0  0  0  0  0  0
  120.7702  103.9232  106.7546 H   0  0  0  0  0  0  0  0  0  0  0  0
  128.0533  109.2524  107.4129 H   0  0  0  0  0  0  0  0  0  0  0  0
  126.9612  109.0021  106.2318 H   0  0  0  0  0  0  0  0  0  0  0  0
  126.6473  108.4225  108.9713 H   0  0  0  0  0  0  0  0  0  0  0  0
  1  2  1  0  0  0  0
  1  8  1  0  0  0  0
  1 10  2  0  0  0  0
  2  9  1  0  0  0  0
  2 11  2  0  0  0  0
  3  5  1  0  0  0  0
  3  6  1  0  0  0  0
  3 12  2  0  0  0  0
  4  9  1  0  0  0  0
  5  9  1  0  0  0  0
  7  8  1  0  0  0  0
  4 13  1  0  0  0  0
  4 14  1  0  0  0  0
  4 15  1  0  0  0  0
  5 16  1  0  0  0  0
  5 17  1  0  0  0  0
  6 18  1  0  0  0  0
  6 19  1  0  0  0  0
  7 20  1  0  0  0  0
  7 21  1  0  0  0  0
  8 22  1  0  0  0  0
M  END
> <FRED Chemgauss4 score>
-8.656701

$$$$
C94297055	P147797732
  -OEChem-05122015313D

 38 38  0     1  0  0  0  0  0999 V2000
  124.7770  108.6589  108.7434 C   0  0  0  0  0  0  0  0  0  0  0  0
  124.5957  107.2259  107.0854 C   0  0  0  0  0  0  0  0  0  0  0  0
  125.5164  108.0104  107.7361 C   0  0  0  0  0  0  0  0  0  0  0  0
  121.0150  104.2094  104.7365 C   0  0  0  0  0  0  0  0  0  0  0  0
  117.4575  108.1942  103.6106 C   0  0  0  0  0  0  0  0  0  0  0  0
  122.1201  106.8313  107.3843 C   0  0  0  0  0  0  0  0  0  0  0  0
  118.9115  104.9088  105.6631 C   0  0  0  0  0  0  0  0  0  0  0  0
  120.8274  104.6535  107.0902 C   0  0  0  0  0  0  0  0  0  0  0  0
  118.3447  105.7191  104.5131 C   0  0  0  0  0  0  0  0  0  0  0  0
  122.1722  105.2994  107.4412 C   0  0  2  0  0  0  0  0  0  0  0  0
  123.4860  108.3161  108.7370 N   0  0  0  0  0  0  0  0  0  0  0  0
  123.4071  107.4438  107.7177 N   0  0  0  0  0  0  0  0  0  0  0  0
  126.8298  108.1279  107.4651 N   0  0  0  0  0  0  0  0  0  0  0  0
  120.3675  105.0317  105.7608 N   0  0  1  0  0  0  0  0  0  0  0  0
  118.3146  107.8309  106.0531 O   0  0  0  0  0  0  0  0  0  0  0  0
  119.9725  107.7322  104.1522 O   0  0  0  0  0  0  0  0  0  0  0  0
  122.5120  104.9132  108.7750 O   0  0  0  0  0  0  0  0  0  0  0  0
  118.6544  107.4480  104.6934 S   0  0  0  0  0  0  0  0  0  0  0  0
  125.1216  109.3668  109.4839 H   0  0  0  0  0  0  0  0  0  0  0  0
  124.6816  106.5480  106.2468 H   0  0  0  0  0  0  0  0  0  0  0  0
  122.1016  104.3027  104.8113 H   0  0  0  0  0  0  0  0  0  0  0  0
  120.7020  104.5315  103.7397 H   0  0  0  0  0  0  0  0  0  0  0  0
  120.7422  103.1588  104.8671 H   0  0  0  0  0  0  0  0  0  0  0  0
  117.5775  109.2777  103.6590 H   0  0  0  0  0  0  0  0  0  0  0  0
  117.6388  107.8344  102.5967 H   0  0  0  0  0  0  0  0  0  0  0  0
  116.4610  107.9044  103.9471 H   0  0  0  0  0  0  0  0  0  0  0  0
  121.3790  107.2266  108.0897 H   0  0  0  0  0  0  0  0  0  0  0  0
  121.8538  107.1945  106.3852 H   0  0  0  0  0  0  0  0  0  0  0  0
  118.4884  105.2225  106.6225 H   0  0  0  0  0  0  0  0  0  0  0  0
  118.6911  103.8467  105.5196 H   0  0  0  0  0  0  0  0  0  0  0  0
  120.9173  103.5620  107.1452 H   0  0  0  0  0  0  0  0  0  0  0  0
  120.0724  104.9338  107.8341 H   0  0  0  0  0  0  0  0  0  0  0  0
  117.2574  105.6063  104.4673 H   0  0  0  0  0  0  0  0  0  0  0  0
  118.7720  105.4155  103.5526 H   0  0  0  0  0  0  0  0  0  0  0  0
  122.9584  104.9158  106.7794 H   0  0  0  0  0  0  0  0  0  0  0  0
  127.4432  108.7812  107.9786 H   0  0  0  0  0  0  0  0  0  0  0  0
  127.2746  107.6425  106.6694 H   0  0  0  0  0  0  0  0  0  0  0  0
  122.5372  103.9450  108.7796 H   0  0  0  0  0  0  0  0  0  0  0  0
  1  3  1  0  0  0  0
  1 11  2  0  0  0  0
  2  3  2  0  0  0  0
  2 12  1  0  0  0  0
  3 13  1  0  0  0  0
  4 14  1  0  0  0  0
  5 18  1  0  0  0  0
  6 10  1  0  0  0  0
  6 12  1  0  0  0  0
  7  9  1  0  0  0  0
  7 14  1  0  0  0  0
  8 10  1  0  0  0  0
  8 14  1  0  0  0  0
  9 18  1  0  0  0  0
 10 17  1  0  0  0  0
 11 12  1  0  0  0  0
 15 18  2  0  0  0  0
 16 18  2  0  0  0  0
  1 19  1  0  0  0  0
  2 20  1  0  0  0  0
  4 21  1  0  0  0  0
  4 22  1  0  0  0  0
  4 23  1  0  0  0  0
  5 24  1  0  0  0  0
  5 25  1  0  0  0  0
  5 26  1  0  0  0  0
  6 27  1  0  0  0  0
  6 28  1  0  0  0  0
  7 29  1  0  0  0  0
  7 30  1  0  0  0  0
  8 31  1  0  0  0  0
  8 32  1  0  0  0  0
  9 33  1  0  0  0  0
  9 34  1  0  0  0  0
 10 35  1  0  0  0  0
 13 36  1  0  0  0  0
 13 37  1  0  0  0  0
 17 38  1  0  0  0  0
M  END
> <FRED Chemgauss4 score>
-8.656352

$$$$
C87338650	P136656130
  -OEChem-05122015313D

 23 24  0     1  0  0  0  0  0999 V2000
  125.1378  107.0190  106.9612 C   0  0  0  0  0  0  0  0  0  0  0  0
  126.3916  107.1917  107.4985 C   0  0  0  0  0  0  0  0  0  0  0  0
  124.1948  108.6223  110.0005 C   0  0  0  0  0  0  0  0  0  0  0  0
  124.8269  107.9855  108.8319 C   0  0  0  0  0  0  0  0  0  0  0  0
  123.4054  110.0788  111.2395 C   0  0  0  0  0  0  0  0  0  0  0  0
  123.9902  112.3640  112.1566 C   0  0  0  0  0  0  0  0  0  0  0  0
  122.8939  111.3168  111.9441 C   0  0  1  0  0  0  0  0  0  0  0  0
  124.1682  107.5154  107.7960 N   0  0  0  0  0  0  0  0  0  0  0  0
  123.9623  109.9656  110.0602 N   0  0  0  0  0  0  0  0  0  0  0  0
  123.8124  107.9184  111.0701 N   0  0  0  0  0  0  0  0  0  0  0  0
  126.1763  107.8126  108.6966 N   0  0  0  0  0  0  0  0  0  0  0  0
  121.7730  111.8882  111.2287 N   0  0  0  0  0  0  0  0  0  0  0  0
  123.2778  108.9036  111.9098 O   0  0  0  0  0  0  0  0  0  0  0  0
  125.0459  111.7897  112.9204 O   0  0  0  0  0  0  0  0  0  0  0  0
  124.8841  106.5626  106.0156 H   0  0  0  0  0  0  0  0  0  0  0  0
  127.3830  106.9392  107.1513 H   0  0  0  0  0  0  0  0  0  0  0  0
  124.4125  112.6882  111.1991 H   0  0  0  0  0  0  0  0  0  0  0  0
  123.6179  113.2442  112.6920 H   0  0  0  0  0  0  0  0  0  0  0  0
  122.4880  111.0372  112.9246 H   0  0  0  0  0  0  0  0  0  0  0  0
  126.8883  108.0898  109.3596 H   0  0  0  0  0  0  0  0  0  0  0  0
  121.5443  112.8528  111.3822 H   0  0  0  0  0  0  0  0  0  0  0  0
  121.1343  111.2715  110.7616 H   0  0  0  0  0  0  0  0  0  0  0  0
  125.7161  112.4821  113.0319 H   0  0  0  0  0  0  0  0  0  0  0  0
  1  2  2  0  0  0  0
  1  8  1  0  0  0  0
  2 11  1  0  0  0  0
  3  4  1  0  0  0  0
  3  9  1  0  0  0  0
  3 10  2  0  0  0  0
  4  8  2  0  0  0  0
  4 11  1  0  0  0  0
  5  7  1  0  0  0  0
  5  9  2  0  0  0  0
  5 13  1  0  0  0  0
  6  7  1  0  0  0  0
  6 14  1  0  0  0  0
  7 12  1  0  0  0  0
 10 13  1  0  0  0  0
  1 15  1  0  0  0  0
  2 16  1  0  0  0  0
  6 17  1  0  0  0  0
  6 18  1  0  0  0  0
  7 19  1  0  0  0  0
 11 20  1  0  0  0  0
 12 21  1  0  0  0  0
 12 22  1  0  0  0  0
 14 23  1  0  0  0  0
M  END
> <FRED Chemgauss4 score>
-8.646049

$$$$
C16137473	P24436333
  -OEChem-05122015313D

 27 27  0     1  0  0  0  0  0999 V2000
  121.5171  104.7666  106.1382 C   0  0  0  0  0  0  0  0  0  0  0  0
  125.1458  105.7098  108.1214 C   0  0  0  0  0  0  0  0  0  0  0  0
  126.0553  106.8839  108.4792 C   0  0  1  0  0  0  0  0  0  0  0  0
  125.7274  108.1488  107.6796 C   0  0  2  0  0  0  0  0  0  0  0  0
  125.0073  107.7892  106.3815 C   0  0  1  0  0  0  0  0  0  0  0  0
  123.7233  106.9936  106.6822 C   0  0  1  0  0  0  0  0  0  0  0  0
  122.4488  103.9241  106.6819 N   0  0  0  0  0  0  0  0  0  0  0  0
  121.9757  105.9265  105.5627 N   0  0  0  0  0  0  0  0  0  0  0  0
  123.3297  106.2160  105.5061 N   0  0  0  0  0  0  0  0  0  0  0  0
  123.8249  106.1727  107.8529 O   0  0  0  0  0  0  0  0  0  0  0  0
  125.9103  107.1810  109.8702 O   0  0  0  0  0  0  0  0  0  0  0  0
  126.9529  108.8185  107.3835 O   0  0  0  0  0  0  0  0  0  0  0  0
  124.6771  108.9767  105.6629 O   0  0  0  0  0  0  0  0  0  0  0  0
  119.8858  104.3991  106.1746 S   0  0  0  0  0  0  0  0  0  0  0  0
  125.5226  105.2084  107.2261 H   0  0  0  0  0  0  0  0  0  0  0  0
  125.1273  104.9580  108.9168 H   0  0  0  0  0  0  0  0  0  0  0  0
  127.1089  106.6099  108.3166 H   0  0  0  0  0  0  0  0  0  0  0  0
  125.1309  108.8381  108.2871 H   0  0  0  0  0  0  0  0  0  0  0  0
  125.6842  107.1899  105.7484 H   0  0  0  0  0  0  0  0  0  0  0  0
  122.8808  107.7239  106.8532 H   0  0  0  0  0  0  0  0  0  0  0  0
  123.4385  104.1455  106.6617 H   0  0  0  0  0  0  0  0  0  0  0  0
  122.1789  103.0511  107.1226 H   0  0  0  0  0  0  0  0  0  0  0  0
  121.3293  106.5883  105.1441 H   0  0  0  0  0  0  0  0  0  0  0  0
  123.4812  106.7784  104.6723 H   0  0  0  0  0  0  0  0  0  0  0  0
  126.1685  106.3806  110.3543 H   0  0  0  0  0  0  0  0  0  0  0  0
  127.4852  108.1970  106.8649 H   0  0  0  0  0  0  0  0  0  0  0  0
  124.1000  109.4973  106.2424 H   0  0  0  0  0  0  0  0  0  0  0  0
  1  7  1  0  0  0  0
  1  8  1  0  0  0  0
  1 14  2  0  0  0  0
  2  3  1  0  0  0  0
  2 10  1  0  0  0  0
  3  4  1  0  0  0  0
  3 11  1  0  0  0  0
  4  5  1  0  0  0  0
  4 12  1  0  0  0  0
  5  6  1  0  0  0  0
  5 13  1  0  0  0  0
  6  9  1  0  0  0  0
  6 10  1  0  0  0  0
  8  9  1  0  0  0  0
  2 15  1  0  0  0  0
  2 16  1  0  0  0  0
  3 17  1  0  0  0  0
  4 18  1  0  0  0  0
  5 19  1  0  0  0  0
  6 20  1  0  0  0  0
  7 21  1  0  0  0  0
  7 22  1  0  0  0  0
  8 23  1  0  0  0  0
  9 24  1  0  0  0  0
 11 25  1  0  0  0  0
 12 26  1  0  0  0  0
 13 27  1  0  0  0  0
M  END
> <FRED Chemgauss4 score>
-8.645185

$$$$
C82473325	P128885474
  -OEChem-05122015313D

 22 22  0     0  0  0  0  0  0999 V2000
  125.6616  108.6229  107.7124 C   0  0  0  0  0  0  0  0  0  0  0  0
  124.0076  107.3958  108.4826 C   0  0  0  0  0  0  0  0  0  0  0  0
  125.1225  107.3228  107.6838 C   0  0  0  0  0  0  0  0  0  0  0  0
  123.1651  105.1361  106.8107 C   0  0  0  0  0  0  0  0  0  0  0  0
  122.9463  109.2468  109.7968 C   0  0  0  0  0  0  0  0  0  0  0  0
  124.5267  104.6784  107.2771 C   0  0  0  0  0  0  0  0  0  0  0  0
  124.9479  109.4606  108.4693 N   0  0  0  0  0  0  0  0  0  0  0  0
  123.9488  108.6850  108.9237 N   0  0  0  0  0  0  0  0  0  0  0  0
  120.8626  104.5331  106.7689 N   0  0  0  0  0  0  0  0  0  0  0  0
  122.1628  104.2364  107.1240 N   0  0  0  0  0  0  0  0  0  0  0  0
  123.0067  106.2083  106.2284 O   0  0  0  0  0  0  0  0  0  0  0  0
  125.7536  105.9222  106.8096 S   0  0  0  0  0  0  0  0  0  0  0  0
  126.5444  109.0014  107.2152 H   0  0  0  0  0  0  0  0  0  0  0  0
  123.2679  106.6604  108.7693 H   0  0  0  0  0  0  0  0  0  0  0  0
  123.2883  109.1215  110.8276 H   0  0  0  0  0  0  0  0  0  0  0  0
  122.8136  110.3071  109.5642 H   0  0  0  0  0  0  0  0  0  0  0  0
  121.9981  108.7247  109.6413 H   0  0  0  0  0  0  0  0  0  0  0  0
  124.7614  103.7242  106.7959 H   0  0  0  0  0  0  0  0  0  0  0  0
  124.5546  104.5288  108.3604 H   0  0  0  0  0  0  0  0  0  0  0  0
  120.4075  103.6483  106.5477 H   0  0  0  0  0  0  0  0  0  0  0  0
  120.9065  105.0531  105.8933 H   0  0  0  0  0  0  0  0  0  0  0  0
  122.3800  103.3710  107.6079 H   0  0  0  0  0  0  0  0  0  0  0  0
  1  3  1  0  0  0  0
  1  7  2  0  0  0  0
  2  3  2  0  0  0  0
  2  8  1  0  0  0  0
  3 12  1  0  0  0  0
  4  6  1  0  0  0  0
  4 10  1  0  0  0  0
  4 11  2  0  0  0  0
  5  8  1  0  0  0  0
  6 12  1  0  0  0  0
  7  8  1  0  0  0  0
  9 10  1  0  0  0  0
  1 13  1  0  0  0  0
  2 14  1  0  0  0  0
  5 15  1  0  0  0  0
  5 16  1  0  0  0  0
  5 17  1  0  0  0  0
  6 18  1  0  0  0  0
  6 19  1  0  0  0  0
  9 20  1  0  0  0  0
  9 21  1  0  0  0  0
 10 22  1  0  0  0  0
M  END
> <FRED Chemgauss4 score>
-8.644513

$$$$
C85836742	P134413409
  -OEChem-05122015313D

 31 31  0     1  0  0  0  0  0999 V2000
  117.3710  103.6546  105.7713 C   0  0  0  0  0  0  0  0  0  0  0  0
  124.9640  105.4699  108.3160 C   0  0  0  0  0  0  0  0  0  0  0  0
  124.0058  104.6293  107.7941 C   0  0  0  0  0  0  0  0  0  0  0  0
  123.8684  106.5700  106.6853 C   0  0  0  0  0  0  0  0  0  0  0  0
  124.8773  106.6976  107.6145 C   0  0  0  0  0  0  0  0  0  0  0  0
  124.9128  109.1440  108.2517 C   0  0  0  0  0  0  0  0  0  0  0  0
  118.4445  104.2036  106.6107 C   0  0  0  0  0  0  0  0  0  0  0  0
  119.7969  104.2013  105.8963 C   0  0  0  0  0  0  0  0  0  0  0  0
  120.9295  104.7583  106.7644 C   0  0  0  0  0  0  0  0  0  0  0  0
  122.2529  104.7718  105.9995 C   0  0  0  0  0  0  0  0  0  0  0  0
  125.7133  107.8929  107.8362 C   0  0  2  0  0  0  0  0  0  0  0  0
  116.5218  103.2215  105.1098 N   0  0  0  0  0  0  0  0  0  0  0  0
  123.3456  105.3088  106.8037 N   0  0  0  0  0  0  0  0  0  0  0  0
  126.5428  108.2213  106.6815 N   0  0  0  0  0  0  0  0  0  0  0  0
  125.6490  105.2211  109.1147 H   0  0  0  0  0  0  0  0  0  0  0  0
  123.7400  103.6114  108.0458 H   0  0  0  0  0  0  0  0  0  0  0  0
  123.4804  107.2670  105.9540 H   0  0  0  0  0  0  0  0  0  0  0  0
  124.1587  109.3832  107.4939 H   0  0  0  0  0  0  0  0  0  0  0  0
  124.3985  108.9991  109.2084 H   0  0  0  0  0  0  0  0  0  0  0  0
  125.5654  110.0168  108.3662 H   0  0  0  0  0  0  0  0  0  0  0  0
  118.5133  103.6400  107.5480 H   0  0  0  0  0  0  0  0  0  0  0  0
  118.1901  105.2356  106.8794 H   0  0  0  0  0  0  0  0  0  0  0  0
  119.7101  104.8152  104.9910 H   0  0  0  0  0  0  0  0  0  0  0  0
  120.0479  103.1842  105.5696 H   0  0  0  0  0  0  0  0  0  0  0  0
  121.0389  104.1564  107.6746 H   0  0  0  0  0  0  0  0  0  0  0  0
  120.6785  105.7760  107.0888 H   0  0  0  0  0  0  0  0  0  0  0  0
  122.5360  103.7599  105.6861 H   0  0  0  0  0  0  0  0  0  0  0  0
  122.1767  105.3822  105.0918 H   0  0  0  0  0  0  0  0  0  0  0  0
  126.4499  107.7179  108.6480 H   0  0  0  0  0  0  0  0  0  0  0  0
  126.9303  107.4699  106.1520 H   0  0  0  0  0  0  0  0  0  0  0  0
  126.8587  109.1622  106.5819 H   0  0  0  0  0  0  0  0  0  0  0  0
  1  7  1  0  0  0  0
  1 12  3  0  0  0  0
  2  3  2  0  0  0  0
  2  5  1  0  0  0  0
  3 13  1  0  0  0  0
  4  5  2  0  0  0  0
  4 13  1  0  0  0  0
  5 11  1  0  0  0  0
  6 11  1  0  0  0  0
  7  8  1  0  0  0  0
  8  9  1  0  0  0  0
  9 10  1  0  0  0  0
 10 13  1  0  0  0  0
 11 14  1  0  0  0  0
  2 15  1  0  0  0  0
  3 16  1  0  0  0  0
  4 17  1  0  0  0  0
  6 18  1  0  0  0  0
  6 19  1  0  0  0  0
  6 20  1  0  0  0  0
  7 21  1  0  0  0  0
  7 22  1  0  0  0  0
  8 23  1  0  0  0  0
  8 24  1  0  0  0  0
  9 25  1  0  0  0  0
  9 26  1  0  0  0  0
 10 27  1  0  0  0  0
 10 28  1  0  0  0  0
 11 29  1  0  0  0  0
 14 30  1  0  0  0  0
 14 31  1  0  0  0  0
M  END
> <FRED Chemgauss4 score>
-8.641027

$$$$
C37321360	P55502532
  -OEChem-05122015313D

 45 46  0     1  0  0  0  0  0999 V2000
  123.3860  107.6110  109.4119 C   0  0  0  0  0  0  0  0  0  0  0  0
  123.3428  106.3578  108.8114 C   0  0  0  0  0  0  0  0  0  0  0  0
  123.9456  106.1651  107.5733 C   0  0  0  0  0  0  0  0  0  0  0  0
  124.0393  108.6307  108.7386 C   0  0  0  0  0  0  0  0  0  0  0  0
  124.5737  107.2495  106.9822 C   0  0  0  0  0  0  0  0  0  0  0  0
  119.0968  104.6800  106.0563 C   0  0  0  0  0  0  0  0  0  0  0  0
  120.2498  104.2314  106.9511 C   0  0  0  0  0  0  0  0  0  0  0  0
  119.2350  104.1263  104.6423 C   0  0  0  0  0  0  0  0  0  0  0  0
  121.7414  104.0242  104.9223 C   0  0  0  0  0  0  0  0  0  0  0  0
  121.6094  104.5815  106.3408 C   0  0  2  0  0  0  0  0  0  0  0  0
  120.5891  104.4789  104.0288 C   0  0  1  0  0  0  0  0  0  0  0  0
  122.6431  105.2407  109.5126 C   0  0  0  0  0  0  0  0  0  0  0  0
  124.1066  109.9886  109.3537 C   0  0  0  0  0  0  0  0  0  0  0  0
  125.2404  107.1039  105.6533 C   0  0  0  0  0  0  0  0  0  0  0  0
  125.1177  103.9442  107.2685 C   0  0  0  0  0  0  0  0  0  0  0  0
  123.9169  104.8117  106.8965 C   0  0  1  0  0  0  0  0  0  0  0  0
  124.6364  108.4817  107.5349 N   0  0  0  0  0  0  0  0  0  0  0  0
  122.6797  104.1010  107.1805 N   0  0  0  0  0  0  0  0  0  0  0  0
  120.7194  103.8451  102.7609 O   0  0  0  0  0  0  0  0  0  0  0  0
  122.9225  107.7843  110.3781 H   0  0  0  0  0  0  0  0  0  0  0  0
  118.1447  104.3531  106.4896 H   0  0  0  0  0  0  0  0  0  0  0  0
  119.0704  105.7761  106.0178 H   0  0  0  0  0  0  0  0  0  0  0  0
  120.1451  104.7018  107.9367 H   0  0  0  0  0  0  0  0  0  0  0  0
  120.1759  103.1472  107.1093 H   0  0  0  0  0  0  0  0  0  0  0  0
  119.1063  103.0359  104.6544 H   0  0  0  0  0  0  0  0  0  0  0  0
  118.4287  104.5121  104.0070 H   0  0  0  0  0  0  0  0  0  0  0  0
  122.6939  104.3358  104.4741 H   0  0  0  0  0  0  0  0  0  0  0  0
  121.7723  102.9254  104.9414 H   0  0  0  0  0  0  0  0  0  0  0  0
  121.6841  105.6856  106.2833 H   0  0  0  0  0  0  0  0  0  0  0  0
  120.6522  105.5618  103.8692 H   0  0  0  0  0  0  0  0  0  0  0  0
  121.5865  105.2114  109.2216 H   0  0  0  0  0  0  0  0  0  0  0  0
  123.0991  104.2726  109.2702 H   0  0  0  0  0  0  0  0  0  0  0  0
  122.7023  105.3572  110.6020 H   0  0  0  0  0  0  0  0  0  0  0  0
  125.0036  110.0802  109.9778 H   0  0  0  0  0  0  0  0  0  0  0  0
  124.1349  110.7720  108.5856 H   0  0  0  0  0  0  0  0  0  0  0  0
  123.2258  110.1865  109.9778 H   0  0  0  0  0  0  0  0  0  0  0  0
  124.5305  107.3206  104.8469 H   0  0  0  0  0  0  0  0  0  0  0  0
  126.0936  107.7870  105.5613 H   0  0  0  0  0  0  0  0  0  0  0  0
  125.6284  106.0873  105.5143 H   0  0  0  0  0  0  0  0  0  0  0  0
  125.1573  103.7676  108.3490 H   0  0  0  0  0  0  0  0  0  0  0  0
  125.0585  102.9714  106.7676 H   0  0  0  0  0  0  0  0  0  0  0  0
  126.0652  104.4044  106.9665 H   0  0  0  0  0  0  0  0  0  0  0  0
  123.9304  104.9532  105.8088 H   0  0  0  0  0  0  0  0  0  0  0  0
  122.8130  103.1064  107.0092 H   0  0  0  0  0  0  0  0  0  0  0  0
  119.9941  104.1769  102.2085 H   0  0  0  0  0  0  0  0  0  0  0  0
  1  2  1  0  0  0  0
  1  4  2  0  0  0  0
  2  3  2  0  0  0  0
  2 12  1  0  0  0  0
  3  5  1  0  0  0  0
  3 16  1  0  0  0  0
  4 13  1  0  0  0  0
  4 17  1  0  0  0  0
  5 14  1  0  0  0  0
  5 17  2  0  0  0  0
  6  7  1  0  0  0  0
  6  8  1  0  0  0  0
  7 10  1  0  0  0  0
  8 11  1  0  0  0  0
  9 10  1  0  0  0  0
  9 11  1  0  0  0  0
 10 18  1  0  0  0  0
 11 19  1  0  0  0  0
 15 16  1  0  0  0  0
 16 18  1  0  0  0  0
  1 20  1  0  0  0  0
  6 21  1  0  0  0  0
  6 22  1  0  0  0  0
  7 23  1  0  0  0  0
  7 24  1  0  0  0  0
  8 25  1  0  0  0  0
  8 26  1  0  0  0  0
  9 27  1  0  0  0  0
  9 28  1  0  0  0  0
 10 29  1  0  0  0  0
 11 30  1  0  0  0  0
 12 31  1  0  0  0  0
 12 32  1  0  0  0  0
 12 33  1  0  0  0  0
 13 34  1  0  0  0  0
 13 35  1  0  0  0  0
 13 36  1  0  0  0  0
 14 37  1  0  0  0  0
 14 38  1  0  0  0  0
 14 39  1  0  0  0  0
 15 40  1  0  0  0  0
 15 41  1  0  0  0  0
 15 42  1  0  0  0  0
 16 43  1  0  0  0  0
 18 44  1  0  0  0  0
 19 45  1  0  0  0  0
M  END
> <FRED Chemgauss4 score>
-8.639925

$$$$
C88037184	P137697140
  -OEChem-05122015313D

 25 26  0     1  0  0  0  0  0999 V2000
  118.6211  106.0460  106.0980 C   0  0  0  0  0  0  0  0  0  0  0  0
  117.7586  105.0890  105.5628 C   0  0  0  0  0  0  0  0  0  0  0  0
  119.8080  105.5843  106.6814 C   0  0  0  0  0  0  0  0  0  0  0  0
  118.1144  103.7457  105.6339 C   0  0  0  0  0  0  0  0  0  0  0  0
  120.0375  104.2154  106.6842 C   0  0  0  0  0  0  0  0  0  0  0  0
  121.6905  105.3061  107.6462 C   0  0  0  0  0  0  0  0  0  0  0  0
  117.1778  102.7335  105.0550 C   0  0  0  0  0  0  0  0  0  0  0  0
  124.0348  104.4210  108.0061 C   0  0  0  0  0  0  0  0  0  0  0  0
  122.9786  105.4949  108.3389 C   0  0  1  0  0  0  0  0  0  0  0  0
  120.8473  106.2499  107.2846 N   0  0  0  0  0  0  0  0  0  0  0  0
  119.2481  103.2493  106.1865 N   0  0  0  0  0  0  0  0  0  0  0  0
  121.2446  104.0575  107.3045 N   0  0  0  0  0  0  0  0  0  0  0  0
  123.5766  106.8023  108.0874 N   0  0  0  0  0  0  0  0  0  0  0  0
  118.3777  107.1020  106.0607 H   0  0  0  0  0  0  0  0  0  0  0  0
  116.8269  105.3995  105.1004 H   0  0  0  0  0  0  0  0  0  0  0  0
  117.4178  102.5561  104.0010 H   0  0  0  0  0  0  0  0  0  0  0  0
  117.2429  101.7819  105.5952 H   0  0  0  0  0  0  0  0  0  0  0  0
  116.1377  103.0727  105.1263 H   0  0  0  0  0  0  0  0  0  0  0  0
  124.2195  104.3897  106.9268 H   0  0  0  0  0  0  0  0  0  0  0  0
  124.9888  104.6183  108.5081 H   0  0  0  0  0  0  0  0  0  0  0  0
  123.7053  103.4247  108.3216 H   0  0  0  0  0  0  0  0  0  0  0  0
  122.8461  105.4672  109.4409 H   0  0  0  0  0  0  0  0  0  0  0  0
  121.7176  103.1805  107.4778 H   0  0  0  0  0  0  0  0  0  0  0  0
  124.5638  106.8959  108.1943 H   0  0  0  0  0  0  0  0  0  0  0  0
  122.9701  107.5913  108.0201 H   0  0  0  0  0  0  0  0  0  0  0  0
  1  2  2  0  0  0  0
  1  3  1  0  0  0  0
  2  4  1  0  0  0  0
  3  5  2  0  0  0  0
  3 10  1  0  0  0  0
  4  7  1  0  0  0  0
  4 11  2  0  0  0  0
  5 11  1  0  0  0  0
  5 12  1  0  0  0  0
  6  9  1  0  0  0  0
  6 10  2  0  0  0  0
  6 12  1  0  0  0  0
  8  9  1  0  0  0  0
  9 13  1  0  0  0  0
  1 14  1  0  0  0  0
  2 15  1  0  0  0  0
  7 16  1  0  0  0  0
  7 17  1  0  0  0  0
  7 18  1  0  0  0  0
  8 19  1  0  0  0  0
  8 20  1  0  0  0  0
  8 21  1  0  0  0  0
  9 22  1  0  0  0  0
 12 23  1  0  0  0  0
 13 24  1  0  0  0  0
 13 25  1  0  0  0  0
M  END
> <FRED Chemgauss4 score>
-8.639116

$$$$
C92561653	P144878475
  -OEChem-05122015313D

 33 35  0     1  0  0  0  0  0999 V2000
  119.1485  106.5851  104.8574 C   0  0  0  0  0  0  0  0  0  0  0  0
  118.0772  106.2535  104.0280 C   0  0  0  0  0  0  0  0  0  0  0  0
  123.6197  105.9331  108.1618 C   0  0  0  0  0  0  0  0  0  0  0  0
  118.3510  105.0177  106.5140 C   0  0  0  0  0  0  0  0  0  0  0  0
  123.2653  104.2979  106.4403 C   0  0  0  0  0  0  0  0  0  0  0  0
  124.1014  104.8745  107.3912 C   0  0  0  0  0  0  0  0  0  0  0  0
  122.3047  106.3528  107.9237 C   0  0  0  0  0  0  0  0  0  0  0  0
  119.2854  105.9671  106.1004 C   0  0  0  0  0  0  0  0  0  0  0  0
  117.2796  104.6862  105.6846 C   0  0  0  0  0  0  0  0  0  0  0  0
  117.1427  105.3041  104.4416 C   0  0  0  0  0  0  0  0  0  0  0  0
  121.5811  105.6881  106.9432 C   0  0  0  0  0  0  0  0  0  0  0  0
  120.3854  107.2835  107.8772 C   0  0  0  0  0  0  0  0  0  0  0  0
  125.4895  104.3708  107.5837 C   0  0  0  0  0  0  0  0  0  0  0  0
  118.7661  109.0091  106.9452 C   0  0  0  0  0  0  0  0  0  0  0  0
  119.2249  108.1609  108.1446 C   0  0  2  0  0  0  0  0  0  0  0  0
  121.9889  104.6665  106.1722 N   0  0  0  0  0  0  0  0  0  0  0  0
  121.5455  107.3442  108.4961 N   0  0  0  0  0  0  0  0  0  0  0  0
  120.3580  106.2966  106.9285 N   0  0  0  0  0  0  0  0  0  0  0  0
  116.3887  103.7726  106.0959 F   0  0  0  0  0  0  0  0  0  0  0  0
  115.8225  104.8986  103.4139 Cl  0  0  0  0  0  0  0  0  0  0  0  0
  119.5677  109.2577  109.5302 Cl  0  0  0  0  0  0  0  0  0  0  0  0
  119.8701  107.3262  104.5221 H   0  0  0  0  0  0  0  0  0  0  0  0
  117.9825  106.7430  103.0620 H   0  0  0  0  0  0  0  0  0  0  0  0
  124.2353  106.4136  108.9146 H   0  0  0  0  0  0  0  0  0  0  0  0
  118.4452  104.5277  107.4800 H   0  0  0  0  0  0  0  0  0  0  0  0
  123.6211  103.4720  105.8289 H   0  0  0  0  0  0  0  0  0  0  0  0
  125.5077  103.5734  108.3378 H   0  0  0  0  0  0  0  0  0  0  0  0
  125.9043  103.9718  106.6480 H   0  0  0  0  0  0  0  0  0  0  0  0
  126.1648  105.1729  107.9117 H   0  0  0  0  0  0  0  0  0  0  0  0
  119.5783  109.6319  106.5538 H   0  0  0  0  0  0  0  0  0  0  0  0
  117.9508  109.6767  107.2458 H   0  0  0  0  0  0  0  0  0  0  0  0
  118.3996  108.3879  106.1208 H   0  0  0  0  0  0  0  0  0  0  0  0
  118.3440  107.5727  108.4659 H   0  0  0  0  0  0  0  0  0  0  0  0
  1  2  2  0  0  0  0
  1  8  1  0  0  0  0
  2 10  1  0  0  0  0
  3  6  1  0  0  0  0
  3  7  2  0  0  0  0
  4  8  2  0  0  0  0
  4  9  1  0  0  0  0
  5  6  2  0  0  0  0
  5 16  1  0  0  0  0
  6 13  1  0  0  0  0
  7 11  1  0  0  0  0
  7 17  1  0  0  0  0
  8 18  1  0  0  0  0
  9 10  2  0  0  0  0
  9 19  1  0  0  0  0
 10 20  1  0  0  0  0
 11 16  2  0  0  0  0
 11 18  1  0  0  0  0
 12 15  1  0  0  0  0
 12 17  2  0  0  0  0
 12 18  1  0  0  0  0
 14 15  1  0  0  0  0
 15 21  1  0  0  0  0
  1 22  1  0  0  0  0
  2 23  1  0  0  0  0
  3 24  1  0  0  0  0
  4 25  1  0  0  0  0
  5 26  1  0  0  0  0
 13 27  1  0  0  0  0
 13 28  1  0  0  0  0
 13 29  1  0  0  0  0
 14 30  1  0  0  0  0
 14 31  1  0  0  0  0
 14 32  1  0  0  0  0
 15 33  1  0  0  0  0
M  END
> <FRED Chemgauss4 score>
-8.637077

$$$$
C85004490	P133054962
  -OEChem-05122015313D

 23 23  0     1  0  0  0  0  0999 V2000
  122.7963  108.9583  110.0041 C   0  0  0  0  0  0  0  0  0  0  0  0
  123.4222  108.5191  108.0618 C   0  0  0  0  0  0  0  0  0  0  0  0
  124.9462  106.2079  106.3487 C   0  0  0  0  0  0  0  0  0  0  0  0
  124.0470  108.5332  106.6848 C   0  0  0  0  0  0  0  0  0  0  0  0
  126.3490  107.8533  107.6781 C   0  0  0  0  0  0  0  0  0  0  0  0
  125.3343  107.6846  106.5282 C   0  0  1  0  0  0  0  0  0  0  0  0
  123.5359  109.4591  108.9712 N   0  0  0  0  0  0  0  0  0  0  0  0
  122.6480  107.5092  108.5419 N   0  0  0  0  0  0  0  0  0  0  0  0
  122.2322  107.7676  109.7911 N   0  0  0  0  0  0  0  0  0  0  0  0
  126.1153  106.9654  108.8102 N   0  0  0  0  0  0  0  0  0  0  0  0
  126.0119  108.0779  105.3265 O   0  0  0  0  0  0  0  0  0  0  0  0
  122.6744  109.4921  110.9375 H   0  0  0  0  0  0  0  0  0  0  0  0
  125.8390  105.5823  106.2352 H   0  0  0  0  0  0  0  0  0  0  0  0
  124.3595  105.8287  107.1910 H   0  0  0  0  0  0  0  0  0  0  0  0
  124.3563  106.0687  105.4351 H   0  0  0  0  0  0  0  0  0  0  0  0
  123.2967  108.2128  105.9498 H   0  0  0  0  0  0  0  0  0  0  0  0
  124.2675  109.5817  106.4396 H   0  0  0  0  0  0  0  0  0  0  0  0
  126.3479  108.8918  108.0300 H   0  0  0  0  0  0  0  0  0  0  0  0
  127.3643  107.6852  107.2964 H   0  0  0  0  0  0  0  0  0  0  0  0
  121.6429  107.1324  110.3221 H   0  0  0  0  0  0  0  0  0  0  0  0
  125.1729  106.8062  109.0982 H   0  0  0  0  0  0  0  0  0  0  0  0
  126.8949  106.7125  109.3800 H   0  0  0  0  0  0  0  0  0  0  0  0
  126.7834  107.4993  105.2536 H   0  0  0  0  0  0  0  0  0  0  0  0
  1  7  2  0  0  0  0
  1  9  1  0  0  0  0
  2  4  1  0  0  0  0
  2  7  1  0  0  0  0
  2  8  2  0  0  0  0
  3  6  1  0  0  0  0
  4  6  1  0  0  0  0
  5  6  1  0  0  0  0
  5 10  1  0  0  0  0
  6 11  1  0  0  0  0
  8  9  1  0  0  0  0
  1 12  1  0  0  0  0
  3 13  1  0  0  0  0
  3 14  1  0  0  0  0
  3 15  1  0  0  0  0
  4 16  1  0  0  0  0
  4 17  1  0  0  0  0
  5 18  1  0  0  0  0
  5 19  1  0  0  0  0
  9 20  1  0  0  0  0
 10 21  1  0  0  0  0
 10 22  1  0  0  0  0
 11 23  1  0  0  0  0
M  END
> <FRED Chemgauss4 score>
-8.634878

$$$$
L-Methionine	P10000023
  -OEChem-05122015313D

 20 19  0     1  0  0  0  0  0999 V2000
  124.6949  108.4978  107.7229 C   0  0  0  0  0  0  0  0  0  0  0  0
  124.4538  103.6129  108.4306 C   0  0  0  0  0  0  0  0  0  0  0  0
  126.1593  106.3521  107.6202 C   0  0  0  0  0  0  0  0  0  0  0  0
  125.4163  105.4470  106.6346 C   0  0  0  0  0  0  0  0  0  0  0  0
  126.0290  107.8511  107.3112 C   0  0  2  0  0  0  0  0  0  0  0  0
  127.2417  108.5326  107.8643 N   0  3  0  0  0  0  0  0  0  0  0  0
  124.7428  109.7291  108.0011 O   0  5  0  0  0  0  0  0  0  0  0  0
  123.6953  107.7237  107.7094 O   0  0  0  0  0  0  0  0  0  0  0  0
  125.6470  103.6986  107.0763 S   0  0  0  0  0  0  0  0  0  0  0  0
  124.4388  102.6038  108.8495 H   0  0  0  0  0  0  0  0  0  0  0  0
  123.4554  103.8606  108.0618 H   0  0  0  0  0  0  0  0  0  0  0  0
  124.7312  104.3214  109.2149 H   0  0  0  0  0  0  0  0  0  0  0  0
  127.2250  106.0850  107.6272 H   0  0  0  0  0  0  0  0  0  0  0  0
  125.7922  106.1690  108.6386 H   0  0  0  0  0  0  0  0  0  0  0  0
  125.7905  105.5833  105.6159 H   0  0  0  0  0  0  0  0  0  0  0  0
  124.3433  105.6587  106.6338 H   0  0  0  0  0  0  0  0  0  0  0  0
  126.1030  107.9827  106.2244 H   0  0  0  0  0  0  0  0  0  0  0  0
  128.0682  108.2791  107.3213 H   0  0  0  0  0  0  0  0  0  0  0  0
  127.3906  108.2546  108.8355 H   0  0  0  0  0  0  0  0  0  0  0  0
  127.1249  109.5462  107.8285 H   0  0  0  0  0  0  0  0  0  0  0  0
  1  5  1  0  0  0  0
  1  7  1  0  0  0  0
  1  8  2  0  0  0  0
  2  9  1  0  0  0  0
  3  4  1  0  0  0  0
  3  5  1  0  0  0  0
  4  9  1  0  0  0  0
  5  6  1  0  0  0  0
  2 10  1  0  0  0  0
  2 11  1  0  0  0  0
  2 12  1  0  0  0  0
  3 13  1  0  0  0  0
  3 14  1  0  0  0  0
  4 15  1  0  0  0  0
  4 16  1  0  0  0  0
  5 17  1  0  0  0  0
  6 18  1  0  0  0  0
  6 19  1  0  0  0  0
  6 20  1  0  0  0  0
M  CHG  2   6   1   7  -1
M  END
> <FRED Chemgauss4 score>
-8.632565

$$$$
C11616542	P120183584
  -OEChem-05122015313D

 20 20  0     1  0  0  0  0  0999 V2000
  124.8799  108.2385  108.0852 C   0  0  0  0  0  0  0  0  0  0  0  0
  123.9612  106.2577  105.8959 C   0  0  0  0  0  0  0  0  0  0  0  0
  126.1524  107.7326  107.4590 C   0  0  2  0  0  0  0  0  0  0  0  0
  126.2801  106.3546  108.0760 C   0  0  2  0  0  0  0  0  0  0  0  0
  124.8295  105.9316  108.2404 C   0  0  2  0  0  0  0  0  0  0  0  0
  124.2396  105.2698  107.0034 C   0  0  1  0  0  0  0  0  0  0  0  0
  124.5535  109.4076  108.2119 O   0  0  0  0  0  0  0  0  0  0  0  0
  122.9201  106.8949  105.7737 O   0  0  0  0  0  0  0  0  0  0  0  0
  124.1241  107.1670  108.4868 O   0  0  0  0  0  0  0  0  0  0  0  0
  127.2604  108.5615  107.6869 O   0  0  0  0  0  0  0  0  0  0  0  0
  126.8989  106.4365  109.3600 O   0  0  0  0  0  0  0  0  0  0  0  0
  123.0030  104.6763  107.3560 O   0  0  0  0  0  0  0  0  0  0  0  0
  124.7616  106.3516  105.1411 H   0  0  0  0  0  0  0  0  0  0  0  0
  125.9761  107.6570  106.3739 H   0  0  0  0  0  0  0  0  0  0  0  0
  126.8812  105.6655  107.4619 H   0  0  0  0  0  0  0  0  0  0  0  0
  124.6888  105.2874  109.1151 H   0  0  0  0  0  0  0  0  0  0  0  0
  124.9164  104.4978  106.6286 H   0  0  0  0  0  0  0  0  0  0  0  0
  127.0608  109.4388  107.3072 H   0  0  0  0  0  0  0  0  0  0  0  0
  126.9504  105.5296  109.6975 H   0  0  0  0  0  0  0  0  0  0  0  0
  122.6604  104.2364  106.5594 H   0  0  0  0  0  0  0  0  0  0  0  0
  1  3  1  0  0  0  0
  1  7  2  0  0  0  0
  1  9  1  0  0  0  0
  2  6  1  0  0  0  0
  2  8  2  0  0  0  0
  3  4  1  0  0  0  0
  3 10  1  0  0  0  0
  4  5  1  0  0  0  0
  4 11  1  0  0  0  0
  5  6  1  0  0  0  0
  5  9  1  0  0  0  0
  6 12  1  0  0  0  0
  2 13  1  0  0  0  0
  3 14  1  0  0  0  0
  4 15  1  0  0  0  0
  5 16  1  0  0  0  0
  6 17  1  0  0  0  0
 10 18  1  0  0  0  0
 11 19  1  0  0  0  0
 12 20  1  0  0  0  0
M  END
> <FRED Chemgauss4 score>
-8.629563

$$$$
Schulte-2016
  -OEChem-05122015313D

 80 83  0     1  0  0  0  0  0999 V2000
  122.8886  112.4283  113.3124 C   0  0  0  0  0  0  0  0  0  0  0  0
  118.9311  113.5446  108.9341 C   0  0  0  0  0  0  0  0  0  0  0  0
  124.2122  112.3253  112.8846 C   0  0  0  0  0  0  0  0  0  0  0  0
  118.1935  113.2780  107.7807 C   0  0  0  0  0  0  0  0  0  0  0  0
  122.9904  107.5377  106.8897 C   0  0  0  0  0  0  0  0  0  0  0  0
  117.6366  106.1524  104.6943 C   0  0  0  0  0  0  0  0  0  0  0  0
  121.9605  111.4522  112.9496 C   0  0  0  0  0  0  0  0  0  0  0  0
  119.7100  112.5417  109.5113 C   0  0  0  0  0  0  0  0  0  0  0  0
  123.2889  108.5773  107.7704 C   0  0  0  0  0  0  0  0  0  0  0  0
  117.4119  107.3998  105.2765 C   0  0  0  0  0  0  0  0  0  0  0  0
  124.6078  111.2464  112.0940 C   0  0  0  0  0  0  0  0  0  0  0  0
  118.2347  112.0084  107.2044 C   0  0  0  0  0  0  0  0  0  0  0  0
  123.6961  106.3367  106.9635 C   0  0  0  0  0  0  0  0  0  0  0  0
  118.4920  105.2390  105.3106 C   0  0  0  0  0  0  0  0  0  0  0  0
  124.9989  107.2151  108.7987 C   0  0  0  0  0  0  0  0  0  0  0  0
  118.8980  106.8207  107.0912 C   0  0  0  0  0  0  0  0  0  0  0  0
  124.2932  108.4160  108.7249 C   0  0  0  0  0  0  0  0  0  0  0  0
  118.0426  107.7340  106.4749 C   0  0  0  0  0  0  0  0  0  0  0  0
  122.3560  110.3733  112.1590 C   0  0  0  0  0  0  0  0  0  0  0  0
  119.7513  111.2721  108.9350 C   0  0  0  0  0  0  0  0  0  0  0  0
  124.7004  106.1755  107.9180 C   0  0  0  0  0  0  0  0  0  0  0  0
  119.1227  105.5732  106.5090 C   0  0  0  0  0  0  0  0  0  0  0  0
  123.6796  110.2703  111.7312 C   0  0  0  0  0  0  0  0  0  0  0  0
  119.0137  111.0055  107.7815 C   0  0  0  0  0  0  0  0  0  0  0  0
  116.6771  111.1606  111.4802 C   0  0  0  0  0  0  0  0  0  0  0  0
  125.0314  103.9823  107.0600 C   0  0  0  0  0  0  0  0  0  0  0  0
  120.1410  103.4246  106.4615 C   0  0  0  0  0  0  0  0  0  0  0  0
  121.3440  109.3332  111.7781 C   0  0  0  0  0  0  0  0  0  0  0  0
  120.5943  110.2056  109.5697 C   0  0  0  0  0  0  0  0  0  0  0  0
  124.6145  109.5347  109.6719 C   0  0  0  0  0  0  0  0  0  0  0  0
  117.8011  109.0762  107.1007 C   0  0  0  0  0  0  0  0  0  0  0  0
  118.2235  109.2831  112.3694 C   0  0  0  0  0  0  0  0  0  0  0  0
  118.9764  109.0424  111.0629 C   0  0  0  0  0  0  0  0  0  0  0  0
  117.6959  110.7121  112.5413 C   0  0  2  0  0  0  0  0  0  0  0  0
  116.9638  110.8131  113.8068 N   0  0  0  0  0  0  0  0  0  0  0  0
  120.1857  109.8955  110.9897 N   0  3  1  0  0  0  0  0  0  0  0  0
  115.6551  110.4316  111.3418 O   0  5  0  0  0  0  0  0  0  0  0  0
  116.9910  112.2226  110.8676 O   0  0  0  0  0  0  0  0  0  0  0  0
  125.3886  105.0033  107.9903 O   0  0  0  0  0  0  0  0  0  0  0  0
  119.9570  104.6816  107.1107 O   0  0  0  0  0  0  0  0  0  0  0  0
  124.0822  109.2233  110.9578 O   0  0  0  0  0  0  0  0  0  0  0  0
  119.0423  109.7706  107.2065 O   0  0  0  0  0  0  0  0  0  0  0  0
  122.5799  113.2686  113.9276 H   0  0  0  0  0  0  0  0  0  0  0  0
  118.8988  114.5330  109.3837 H   0  0  0  0  0  0  0  0  0  0  0  0
  124.9343  113.0860  113.1666 H   0  0  0  0  0  0  0  0  0  0  0  0
  117.5864  114.0589  107.3322 H   0  0  0  0  0  0  0  0  0  0  0  0
  122.2082  107.6631  106.1469 H   0  0  0  0  0  0  0  0  0  0  0  0
  117.1452  105.8921  103.7616 H   0  0  0  0  0  0  0  0  0  0  0  0
  120.9312  111.5424  113.2867 H   0  0  0  0  0  0  0  0  0  0  0  0
  120.2799  112.7591  110.4108 H   0  0  0  0  0  0  0  0  0  0  0  0
  122.7340  109.5094  107.7050 H   0  0  0  0  0  0  0  0  0  0  0  0
  116.7441  108.1051  104.7887 H   0  0  0  0  0  0  0  0  0  0  0  0
  125.6403  111.1717  111.7638 H   0  0  0  0  0  0  0  0  0  0  0  0
  117.6579  111.8067  106.3059 H   0  0  0  0  0  0  0  0  0  0  0  0
  123.4589  105.5308  106.2746 H   0  0  0  0  0  0  0  0  0  0  0  0
  118.6629  104.2691  104.8521 H   0  0  0  0  0  0  0  0  0  0  0  0
  125.7826  107.0866  109.5417 H   0  0  0  0  0  0  0  0  0  0  0  0
  119.3913  107.0786  108.0254 H   0  0  0  0  0  0  0  0  0  0  0  0
  125.6566  103.1016  107.2266 H   0  0  0  0  0  0  0  0  0  0  0  0
  125.1689  104.3524  106.0409 H   0  0  0  0  0  0  0  0  0  0  0  0
  123.9826  103.7155  107.2103 H   0  0  0  0  0  0  0  0  0  0  0  0
  120.8291  102.8090  107.0460 H   0  0  0  0  0  0  0  0  0  0  0  0
  120.5431  103.5870  105.4583 H   0  0  0  0  0  0  0  0  0  0  0  0
  119.1758  102.9181  106.3874 H   0  0  0  0  0  0  0  0  0  0  0  0
  121.7949  108.5499  111.1594 H   0  0  0  0  0  0  0  0  0  0  0  0
  120.9171  108.8532  112.6653 H   0  0  0  0  0  0  0  0  0  0  0  0
  120.5298  109.2655  109.0114 H   0  0  0  0  0  0  0  0  0  0  0  0
  121.6482  110.5022  109.6032 H   0  0  0  0  0  0  0  0  0  0  0  0
  125.6973  109.6761  109.7582 H   0  0  0  0  0  0  0  0  0  0  0  0
  124.1791  110.4766  109.3213 H   0  0  0  0  0  0  0  0  0  0  0  0
  117.1090  109.6718  106.4957 H   0  0  0  0  0  0  0  0  0  0  0  0
  117.3652  108.9655  108.0995 H   0  0  0  0  0  0  0  0  0  0  0  0
  117.3929  108.5664  112.4173 H   0  0  0  0  0  0  0  0  0  0  0  0
  118.8869  109.0361  113.2093 H   0  0  0  0  0  0  0  0  0  0  0  0
  119.3243  108.0065  111.0047 H   0  0  0  0  0  0  0  0  0  0  0  0
  118.3723  109.2659  110.1794 H   0  0  0  0  0  0  0  0  0  0  0  0
  118.5324  111.4193  112.5706 H   0  0  0  0  0  0  0  0  0  0  0  0
  116.2866  111.5361  113.8945 H   0  0  0  0  0  0  0  0  0  0  0  0
  117.3090  110.2984  114.5847 H   0  0  0  0  0  0  0  0  0  0  0  0
  119.9597  110.8063  111.4262 H   0  0  0  0  0  0  0  0  0  0  0  0
  1  3  1  0  0  0  0
  1  7  2  0  0  0  0
  2  4  1  0  0  0  0
  2  8  2  0  0  0  0
  3 11  2  0  0  0  0
  4 12  2  0  0  0  0
  5  9  1  0  0  0  0
  5 13  2  0  0  0  0
  6 10  2  0  0  0  0
  6 14  1  0  0  0  0
  7 19  1  0  0  0  0
  8 20  1  0  0  0  0
  9 17  2  0  0  0  0
 10 18  1  0  0  0  0
 11 23  1  0  0  0  0
 12 24  1  0  0  0  0
 13 21  1  0  0  0  0
 14 22  2  0  0  0  0
 15 17  1  0  0  0  0
 15 21  2  0  0  0  0
 16 18  2  0  0  0  0
 16 22  1  0  0  0  0
 17 30  1  0  0  0  0
 18 31  1  0  0  0  0
 19 23  2  0  0  0  0
 19 28  1  0  0  0  0
 20 24  2  0  0  0  0
 20 29  1  0  0  0  0
 21 39  1  0  0  0  0
 22 40  1  0  0  0  0
 23 41  1  0  0  0  0
 24 42  1  0  0  0  0
 25 34  1  0  0  0  0
 25 37  1  0  0  0  0
 25 38  2  0  0  0  0
 26 39  1  0  0  0  0
 27 40  1  0  0  0  0
 28 36  1  0  0  0  0
 29 36  1  0  0  0  0
 30 41  1  0  0  0  0
 31 42  1  0  0  0  0
 32 33  1  0  0  0  0
 32 34  1  0  0  0  0
 33 36  1  0  0  0  0
 34 35  1  0  0  0  0
  1 43  1  0  0  0  0
  2 44  1  0  0  0  0
  3 45  1  0  0  0  0
  4 46  1  0  0  0  0
  5 47  1  0  0  0  0
  6 48  1  0  0  0  0
  7 49  1  0  0  0  0
  8 50  1  0  0  0  0
  9 51  1  0  0  0  0
 10 52  1  0  0  0  0
 11 53  1  0  0  0  0
 12 54  1  0  0  0  0
 13 55  1  0  0  0  0
 14 56  1  0  0  0  0
 15 57  1  0  0  0  0
 16 58  1  0  0  0  0
 26 59  1  0  0  0  0
 26 60  1  0  0  0  0
 26 61  1  0  0  0  0
 27 62  1  0  0  0  0
 27 63  1  0  0  0  0
 27 64  1  0  0  0  0
 28 65  1  0  0  0  0
 28 66  1  0  0  0  0
 29 67  1  0  0  0  0
 29 68  1  0  0  0  0
 30 69  1  0  0  0  0
 30 70  1  0  0  0  0
 31 71  1  0  0  0  0
 31 72  1  0  0  0  0
 32 73  1  0  0  0  0
 32 74  1  0  0  0  0
 33 75  1  0  0  0  0
 33 76  1  0  0  0  0
 34 77  1  0  0  0  0
 35 78  1  0  0  0  0
 35 79  1  0  0  0  0
 36 80  1  0  0  0  0
M  CHG  2  36   1  37  -1
M  END
> <FRED Chemgauss4 score>
-8.622914

$$$$
C70947907	P128809630
  -OEChem-05122015313D

 25 25  0     1  0  0  0  0  0999 V2000
  125.9641  104.3530  108.4651 C   0  0  0  0  0  0  0  0  0  0  0  0
  125.1938  104.9072  107.5140 C   0  0  0  0  0  0  0  0  0  0  0  0
  126.7569  105.2374  109.3493 C   0  0  0  0  0  0  0  0  0  0  0  0
  125.7769  107.0352  108.0691 C   0  0  0  0  0  0  0  0  0  0  0  0
  124.3731  104.0496  106.5949 C   0  0  0  0  0  0  0  0  0  0  0  0
  123.6746  108.7080  109.3771 C   0  0  0  0  0  0  0  0  0  0  0  0
  124.2829  109.0224  108.0176 C   0  0  0  0  0  0  0  0  0  0  0  0
  125.7178  108.5259  107.9008 C   0  0  2  0  0  0  0  0  0  0  0  0
  125.0824  106.2628  107.2931 N   0  0  0  0  0  0  0  0  0  0  0  0
  126.6005  106.5812  109.0768 N   0  0  0  0  0  0  0  0  0  0  0  0
  126.2818  108.7635  106.6022 N   0  0  0  0  0  0  0  0  0  0  0  0
  127.4745  104.7772  110.2308 O   0  0  0  0  0  0  0  0  0  0  0  0
  126.0337  103.2826  108.6177 H   0  0  0  0  0  0  0  0  0  0  0  0
  123.3917  103.8860  107.0333 H   0  0  0  0  0  0  0  0  0  0  0  0
  124.8722  103.0945  106.4489 H   0  0  0  0  0  0  0  0  0  0  0  0
  124.2662  104.5481  105.6343 H   0  0  0  0  0  0  0  0  0  0  0  0
  123.6844  107.6307  109.5709 H   0  0  0  0  0  0  0  0  0  0  0  0
  124.2481  109.1998  110.1694 H   0  0  0  0  0  0  0  0  0  0  0  0
  122.6405  109.0609  109.4423 H   0  0  0  0  0  0  0  0  0  0  0  0
  124.2540  110.1081  107.8626 H   0  0  0  0  0  0  0  0  0  0  0  0
  123.6561  108.5781  107.2339 H   0  0  0  0  0  0  0  0  0  0  0  0
  126.3715  108.9796  108.6492 H   0  0  0  0  0  0  0  0  0  0  0  0
  127.1094  107.2583  109.6376 H   0  0  0  0  0  0  0  0  0  0  0  0
  127.0044  108.1495  106.2578 H   0  0  0  0  0  0  0  0  0  0  0  0
  126.1036  109.6423  106.1398 H   0  0  0  0  0  0  0  0  0  0  0  0
  1  2  2  0  0  0  0
  1  3  1  0  0  0  0
  2  5  1  0  0  0  0
  2  9  1  0  0  0  0
  3 10  1  0  0  0  0
  3 12  2  0  0  0  0
  4  8  1  0  0  0  0
  4  9  2  0  0  0  0
  4 10  1  0  0  0  0
  6  7  1  0  0  0  0
  7  8  1  0  0  0  0
  8 11  1  0  0  0  0
  1 13  1  0  0  0  0
  5 14  1  0  0  0  0
  5 15  1  0  0  0  0
  5 16  1  0  0  0  0
  6 17  1  0  0  0  0
  6 18  1  0  0  0  0
  6 19  1  0  0  0  0
  7 20  1  0  0  0  0
  7 21  1  0  0  0  0
  8 22  1  0  0  0  0
 10 23  1  0  0  0  0
 11 24  1  0  0  0  0
 11 25  1  0  0  0  0
M  END
> <FRED Chemgauss4 score>
-8.622192

$$$$
C42436697	P64186413
  -OEChem-05122015313D

 25 25  0     0  0  0  0  0  0999 V2000
  125.7254  106.9940  107.2736 C   0  0  0  0  0  0  0  0  0  0  0  0
  122.6388  105.0779  108.1596 C   0  0  0  0  0  0  0  0  0  0  0  0
  125.5628  105.5542  107.5315 C   0  0  0  0  0  0  0  0  0  0  0  0
  124.5147  107.8317  109.3511 C   0  0  0  0  0  0  0  0  0  0  0  0
  124.4430  109.1327  110.1431 C   0  0  0  0  0  0  0  0  0  0  0  0
  124.4612  104.8915  106.6874 C   0  0  0  0  0  0  0  0  0  0  0  0
  126.3257  107.5673  106.2562 N   0  0  0  0  0  0  0  0  0  0  0  0
  126.2104  108.9219  106.4723 N   0  0  0  0  0  0  0  0  0  0  0  0
  125.5526  109.1711  107.5980 N   0  0  0  0  0  0  0  0  0  0  0  0
  125.2505  107.9644  108.0971 N   0  0  0  0  0  0  0  0  0  0  0  0
  123.7715  110.1805  109.4226 N   0  0  0  0  0  0  0  0  0  0  0  0
  123.2185  105.5329  106.9447 O   0  0  0  0  0  0  0  0  0  0  0  0
  121.6879  105.5903  108.3249 H   0  0  0  0  0  0  0  0  0  0  0  0
  123.3224  105.2792  108.9883 H   0  0  0  0  0  0  0  0  0  0  0  0
  122.4627  104.0019  108.0883 H   0  0  0  0  0  0  0  0  0  0  0  0
  126.5107  105.0087  107.3527 H   0  0  0  0  0  0  0  0  0  0  0  0
  125.3215  105.3750  108.5975 H   0  0  0  0  0  0  0  0  0  0  0  0
  125.0231  107.0589  109.9402 H   0  0  0  0  0  0  0  0  0  0  0  0
  123.5124  107.4536  109.1172 H   0  0  0  0  0  0  0  0  0  0  0  0
  123.8826  108.9761  111.0699 H   0  0  0  0  0  0  0  0  0  0  0  0
  125.4410  109.5002  110.4029 H   0  0  0  0  0  0  0  0  0  0  0  0
  124.6760  104.9937  105.6188 H   0  0  0  0  0  0  0  0  0  0  0  0
  124.3656  103.8274  106.9272 H   0  0  0  0  0  0  0  0  0  0  0  0
  123.9703  111.1410  109.6534 H   0  0  0  0  0  0  0  0  0  0  0  0
  122.9748  109.9505  108.8502 H   0  0  0  0  0  0  0  0  0  0  0  0
  1  3  1  0  0  0  0
  1  7  2  0  0  0  0
  1 10  1  0  0  0  0
  2 12  1  0  0  0  0
  3  6  1  0  0  0  0
  4  5  1  0  0  0  0
  4 10  1  0  0  0  0
  5 11  1  0  0  0  0
  6 12  1  0  0  0  0
  7  8  1  0  0  0  0
  8  9  2  0  0  0  0
  9 10  1  0  0  0  0
  2 13  1  0  0  0  0
  2 14  1  0  0  0  0
  2 15  1  0  0  0  0
  3 16  1  0  0  0  0
  3 17  1  0  0  0  0
  4 18  1  0  0  0  0
  4 19  1  0  0  0  0
  5 20  1  0  0  0  0
  5 21  1  0  0  0  0
  6 22  1  0  0  0  0
  6 23  1  0  0  0  0
 11 24  1  0  0  0  0
 11 25  1  0  0  0  0
M  END
> <FRED Chemgauss4 score>
-8.620712

$$$$
C82467311	P128880080
  -OEChem-05122015313D

 29 28  0     1  0  0  0  0  0999 V2000
  121.3886  105.4017  104.2357 C   0  0  0  0  0  0  0  0  0  0  0  0
  126.0884  108.0053  107.7108 C   0  0  0  0  0  0  0  0  0  0  0  0
  124.8416  104.5873  108.4188 C   0  0  0  0  0  0  0  0  0  0  0  0
  121.8108  106.0590  105.5381 C   0  0  0  0  0  0  0  0  0  0  0  0
  125.5622  106.8746  108.5645 C   0  0  0  0  0  0  0  0  0  0  0  0
  123.1923  105.6021  106.0031 C   0  0  0  0  0  0  0  0  0  0  0  0
  123.6038  106.3107  107.2918 C   0  0  0  0  0  0  0  0  0  0  0  0
  127.1902  108.6154  108.2709 N   0  0  0  0  0  0  0  0  0  0  0  0
  120.9691  103.2653  103.2672 N   0  0  0  0  0  0  0  0  0  0  0  0
  121.3360  104.0234  104.3600 N   0  0  0  0  0  0  0  0  0  0  0  0
  124.9274  105.8670  107.7131 N   0  0  2  0  0  0  0  0  0  0  0  0
  121.1326  106.0362  103.2154 O   0  0  0  0  0  0  0  0  0  0  0  0
  125.6180  108.3168  106.6201 O   0  0  0  0  0  0  0  0  0  0  0  0
  124.3673  103.8373  107.7805 H   0  0  0  0  0  0  0  0  0  0  0  0
  124.2496  104.6979  109.3314 H   0  0  0  0  0  0  0  0  0  0  0  0
  125.8413  104.2373  108.6898 H   0  0  0  0  0  0  0  0  0  0  0  0
  121.8063  107.1456  105.3905 H   0  0  0  0  0  0  0  0  0  0  0  0
  121.0607  105.8189  106.3012 H   0  0  0  0  0  0  0  0  0  0  0  0
  124.8145  107.2372  109.2752 H   0  0  0  0  0  0  0  0  0  0  0  0
  126.3910  106.4056  109.1016 H   0  0  0  0  0  0  0  0  0  0  0  0
  123.1861  104.5157  106.1601 H   0  0  0  0  0  0  0  0  0  0  0  0
  123.9290  105.8020  105.2141 H   0  0  0  0  0  0  0  0  0  0  0  0
  122.8843  106.0924  108.0881 H   0  0  0  0  0  0  0  0  0  0  0  0
  123.6158  107.3957  107.1409 H   0  0  0  0  0  0  0  0  0  0  0  0
  127.5655  108.3001  109.1592 H   0  0  0  0  0  0  0  0  0  0  0  0
  127.6665  109.3930  107.8250 H   0  0  0  0  0  0  0  0  0  0  0  0
  121.4905  102.3915  103.3252 H   0  0  0  0  0  0  0  0  0  0  0  0
  121.3207  103.7478  102.4412 H   0  0  0  0  0  0  0  0  0  0  0  0
  121.5642  103.5772  105.2430 H   0  0  0  0  0  0  0  0  0  0  0  0
  1  4  1  0  0  0  0
  1 10  1  0  0  0  0
  1 12  2  0  0  0  0
  2  5  1  0  0  0  0
  2  8  1  0  0  0  0
  2 13  2  0  0  0  0
  3 11  1  0  0  0  0
  4  6  1  0  0  0  0
  5 11  1  0  0  0  0
  6  7  1  0  0  0  0
  7 11  1  0  0  0  0
  9 10  1  0  0  0  0
  3 14  1  0  0  0  0
  3 15  1  0  0  0  0
  3 16  1  0  0  0  0
  4 17  1  0  0  0  0
  4 18  1  0  0  0  0
  5 19  1  0  0  0  0
  5 20  1  0  0  0  0
  6 21  1  0  0  0  0
  6 22  1  0  0  0  0
  7 23  1  0  0  0  0
  7 24  1  0  0  0  0
  8 25  1  0  0  0  0
  8 26  1  0  0  0  0
  9 27  1  0  0  0  0
  9 28  1  0  0  0  0
 10 29  1  0  0  0  0
M  END
> <FRED Chemgauss4 score>
-8.616680

$$$$
C39078638	P59214267
  -OEChem-05122015313D

 18 18  0     0  0  0  0  0  0999 V2000
  124.4952  106.4156  107.9566 C   0  0  0  0  0  0  0  0  0  0  0  0
  125.6172  106.5163  108.6779 C   0  0  0  0  0  0  0  0  0  0  0  0
  124.9074  108.6365  108.2823 C   0  0  0  0  0  0  0  0  0  0  0  0
  126.4388  105.4301  109.1728 C   0  0  0  0  0  0  0  0  0  0  0  0
  122.8363  107.9761  106.9364 C   0  0  0  0  0  0  0  0  0  0  0  0
  127.5288  105.6778  109.8779 N   0  0  0  0  0  0  0  0  0  0  0  0
  125.9087  107.8365  108.9016 N   0  0  0  0  0  0  0  0  0  0  0  0
  124.0274  107.6844  107.6923 N   0  0  0  0  0  0  0  0  0  0  0  0
  126.0933  104.1083  108.9135 N   0  0  0  0  0  0  0  0  0  0  0  0
  124.8348  109.8554  108.2690 O   0  0  0  0  0  0  0  0  0  0  0  0
  123.9815  105.5365  107.6023 H   0  0  0  0  0  0  0  0  0  0  0  0
  121.9715  108.0277  107.6030 H   0  0  0  0  0  0  0  0  0  0  0  0
  122.6606  107.1950  106.1917 H   0  0  0  0  0  0  0  0  0  0  0  0
  122.9410  108.9345  106.4209 H   0  0  0  0  0  0  0  0  0  0  0  0
  127.6472  106.6909  109.9834 H   0  0  0  0  0  0  0  0  0  0  0  0
  126.7047  108.1852  109.4214 H   0  0  0  0  0  0  0  0  0  0  0  0
  125.2622  103.8858  108.3755 H   0  0  0  0  0  0  0  0  0  0  0  0
  126.6495  103.3287  109.2478 H   0  0  0  0  0  0  0  0  0  0  0  0
  1  2  2  0  0  0  0
  1  8  1  0  0  0  0
  2  4  1  0  0  0  0
  2  7  1  0  0  0  0
  3  7  1  0  0  0  0
  3  8  1  0  0  0  0
  3 10  2  0  0  0  0
  4  6  2  0  0  0  0
  4  9  1  0  0  0  0
  5  8  1  0  0  0  0
  1 11  1  0  0  0  0
  5 12  1  0  0  0  0
  5 13  1  0  0  0  0
  5 14  1  0  0  0  0
  6 15  1  0  0  0  0
  7 16  1  0  0  0  0
  9 17  1  0  0  0  0
  9 18  1  0  0  0  0
M  END
> <FRED Chemgauss4 score>
-8.612537

$$$$
C97640642	P154823007
  -OEChem-05122015313D

 40 41  0     1  0  0  0  0  0999 V2000
  120.8384  109.4876  109.9179 C   0  0  0  0  0  0  0  0  0  0  0  0
  124.6958  108.7899  107.4397 C   0  0  0  0  0  0  0  0  0  0  0  0
  126.6298  107.9067  107.3388 C   0  0  0  0  0  0  0  0  0  0  0  0
  121.3519  108.5562  108.9957 C   0  0  0  0  0  0  0  0  0  0  0  0
  124.6413  107.6907  108.2639 C   0  0  0  0  0  0  0  0  0  0  0  0
  122.5107  108.1014  109.5761 C   0  0  0  0  0  0  0  0  0  0  0  0
  126.3516  105.9519  108.8739 C   0  0  0  0  0  0  0  0  0  0  0  0
  124.0772  112.2929  112.3878 C   0  0  0  0  0  0  0  0  0  0  0  0
  123.2531  110.7171  114.0034 C   0  0  0  0  0  0  0  0  0  0  0  0
  123.6820  108.6250  111.7533 C   0  0  0  0  0  0  0  0  0  0  0  0
  124.4020  109.9376  112.0425 C   0  0  0  0  0  0  0  0  0  0  0  0
  123.5107  107.1169  109.1199 C   0  0  1  0  0  0  0  0  0  0  0  0
  125.9362  108.9186  106.8666 N   0  0  0  0  0  0  0  0  0  0  0  0
  121.6077  109.6178  111.0020 N   0  0  0  0  0  0  0  0  0  0  0  0
  125.8874  107.1349  108.1887 N   0  0  0  0  0  0  0  0  0  0  0  0
  122.6165  108.7621  110.7646 N   0  0  0  0  0  0  0  0  0  0  0  0
  122.2038  105.1906  109.3439 N   0  0  0  0  0  0  0  0  0  0  0  0
  122.8770  105.9964  108.3877 N   0  0  0  0  0  0  0  0  0  0  0  0
  123.5077  110.9603  112.5840 N   0  0  0  0  0  0  0  0  0  0  0  0
  120.5785  108.0913  107.3659 Br  0  0  0  0  0  0  0  0  0  0  0  0
  119.9364  110.0795  109.8504 H   0  0  0  0  0  0  0  0  0  0  0  0
  123.9062  109.4965  107.2281 H   0  0  0  0  0  0  0  0  0  0  0  0
  127.6617  107.6843  107.1036 H   0  0  0  0  0  0  0  0  0  0  0  0
  126.7691  106.2612  109.8357 H   0  0  0  0  0  0  0  0  0  0  0  0
  125.5136  105.2655  109.0238 H   0  0  0  0  0  0  0  0  0  0  0  0
  127.1147  105.4581  108.2657 H   0  0  0  0  0  0  0  0  0  0  0  0
  124.2651  112.4685  111.3254 H   0  0  0  0  0  0  0  0  0  0  0  0
  125.0211  112.3844  112.9320 H   0  0  0  0  0  0  0  0  0  0  0  0
  123.3861  113.0569  112.7540 H   0  0  0  0  0  0  0  0  0  0  0  0
  122.8277  109.7199  114.1433 H   0  0  0  0  0  0  0  0  0  0  0  0
  122.5497  111.4577  114.3935 H   0  0  0  0  0  0  0  0  0  0  0  0
  124.1847  110.7852  114.5716 H   0  0  0  0  0  0  0  0  0  0  0  0
  124.3897  107.8851  111.3605 H   0  0  0  0  0  0  0  0  0  0  0  0
  123.2449  108.2025  112.6659 H   0  0  0  0  0  0  0  0  0  0  0  0
  125.1875  109.7772  112.7873 H   0  0  0  0  0  0  0  0  0  0  0  0
  124.8638  110.3498  111.1395 H   0  0  0  0  0  0  0  0  0  0  0  0
  123.9775  106.6152  109.9936 H   0  0  0  0  0  0  0  0  0  0  0  0
  122.2301  105.6432  110.2573 H   0  0  0  0  0  0  0  0  0  0  0  0
  121.2198  105.1505  109.0813 H   0  0  0  0  0  0  0  0  0  0  0  0
  123.6062  105.4639  107.9320 H   0  0  0  0  0  0  0  0  0  0  0  0
  1  4  1  0  0  0  0
  1 14  2  0  0  0  0
  2  5  2  0  0  0  0
  2 13  1  0  0  0  0
  3 13  2  0  0  0  0
  3 15  1  0  0  0  0
  4  6  2  0  0  0  0
  4 20  1  0  0  0  0
  5 12  1  0  0  0  0
  5 15  1  0  0  0  0
  6 12  1  0  0  0  0
  6 16  1  0  0  0  0
  7 15  1  0  0  0  0
  8 19  1  0  0  0  0
  9 19  1  0  0  0  0
 10 11  1  0  0  0  0
 10 16  1  0  0  0  0
 11 19  1  0  0  0  0
 12 18  1  0  0  0  0
 14 16  1  0  0  0  0
 17 18  1  0  0  0  0
  1 21  1  0  0  0  0
  2 22  1  0  0  0  0
  3 23  1  0  0  0  0
  7 24  1  0  0  0  0
  7 25  1  0  0  0  0
  7 26  1  0  0  0  0
  8 27  1  0  0  0  0
  8 28  1  0  0  0  0
  8 29  1  0  0  0  0
  9 30  1  0  0  0  0
  9 31  1  0  0  0  0
  9 32  1  0  0  0  0
 10 33  1  0  0  0  0
 10 34  1  0  0  0  0
 11 35  1  0  0  0  0
 11 36  1  0  0  0  0
 12 37  1  0  0  0  0
 17 38  1  0  0  0  0
 17 39  1  0  0  0  0
 18 40  1  0  0  0  0
M  END
> <FRED Chemgauss4 score>
-8.611777

$$$$
C83440903	P130531180
  -OEChem-05122015313D

 29 29  0     1  0  0  0  0  0999 V2000
  125.5866  105.3416  108.0881 C   0  0  0  0  0  0  0  0  0  0  0  0
  125.4272  107.3630  108.5840 C   0  0  0  0  0  0  0  0  0  0  0  0
  123.6211  109.0961  108.9394 C   0  0  0  0  0  0  0  0  0  0  0  0
  120.5899  104.8859  106.8836 C   0  0  0  0  0  0  0  0  0  0  0  0
  125.3640  104.0382  107.3636 C   0  0  0  0  0  0  0  0  0  0  0  0
  124.1618  104.1176  106.4224 C   0  0  0  0  0  0  0  0  0  0  0  0
  122.8878  104.4855  107.1701 C   0  0  0  0  0  0  0  0  0  0  0  0
  125.1147  108.7973  108.6883 C   0  0  2  0  0  0  0  0  0  0  0  0
  124.9649  106.4976  107.7117 N   0  0  0  0  0  0  0  0  0  0  0  0
  126.4046  105.4372  109.1385 N   0  0  0  0  0  0  0  0  0  0  0  0
  126.2844  106.7399  109.4365 N   0  0  0  0  0  0  0  0  0  0  0  0
  125.5594  109.5597  107.5244 N   0  0  0  0  0  0  0  0  0  0  0  0
  121.8091  104.5280  106.2465 O   0  0  0  0  0  0  0  0  0  0  0  0
  123.0075  108.6618  108.1426 H   0  0  0  0  0  0  0  0  0  0  0  0
  123.2765  108.6855  109.8951 H   0  0  0  0  0  0  0  0  0  0  0  0
  123.4285  110.1746  108.9644 H   0  0  0  0  0  0  0  0  0  0  0  0
  119.7849  104.9085  106.1450 H   0  0  0  0  0  0  0  0  0  0  0  0
  120.6970  105.8677  107.3518 H   0  0  0  0  0  0  0  0  0  0  0  0
  120.3576  104.1425  107.6497 H   0  0  0  0  0  0  0  0  0  0  0  0
  125.2133  103.2304  108.0914 H   0  0  0  0  0  0  0  0  0  0  0  0
  126.2642  103.7720  106.7947 H   0  0  0  0  0  0  0  0  0  0  0  0
  124.0146  103.1611  105.9038 H   0  0  0  0  0  0  0  0  0  0  0  0
  124.3423  104.8545  105.6287 H   0  0  0  0  0  0  0  0  0  0  0  0
  122.6579  103.7417  107.9397 H   0  0  0  0  0  0  0  0  0  0  0  0
  122.9819  105.4692  107.6413 H   0  0  0  0  0  0  0  0  0  0  0  0
  125.6638  109.2673  109.5326 H   0  0  0  0  0  0  0  0  0  0  0  0
  126.8072  107.1194  110.2171 H   0  0  0  0  0  0  0  0  0  0  0  0
  126.4210  109.3004  107.0954 H   0  0  0  0  0  0  0  0  0  0  0  0
  125.1025  110.4236  107.3276 H   0  0  0  0  0  0  0  0  0  0  0  0
  1  5  1  0  0  0  0
  1  9  1  0  0  0  0
  1 10  2  0  0  0  0
  2  8  1  0  0  0  0
  2  9  2  0  0  0  0
  2 11  1  0  0  0  0
  3  8  1  0  0  0  0
  4 13  1  0  0  0  0
  5  6  1  0  0  0  0
  6  7  1  0  0  0  0
  7 13  1  0  0  0  0
  8 12  1  0  0  0  0
 10 11  1  0  0  0  0
  3 14  1  0  0  0  0
  3 15  1  0  0  0  0
  3 16  1  0  0  0  0
  4 17  1  0  0  0  0
  4 18  1  0  0  0  0
  4 19  1  0  0  0  0
  5 20  1  0  0  0  0
  5 21  1  0  0  0  0
  6 22  1  0  0  0  0
  6 23  1  0  0  0  0
  7 24  1  0  0  0  0
  7 25  1  0  0  0  0
  8 26  1  0  0  0  0
 11 27  1  0  0  0  0
 12 28  1  0  0  0  0
 12 29  1  0  0  0  0
M  END
> <FRED Chemgauss4 score>
-8.610619

$$$$
C87688032	P137156844
  -OEChem-05122015313D

 24 25  0     1  0  0  0  0  0999 V2000
  125.9033  107.5834  106.9411 C   0  0  0  0  0  0  0  0  0  0  0  0
  125.1026  109.1308  108.1638 C   0  0  0  0  0  0  0  0  0  0  0  0
  125.3238  106.9435  108.0113 C   0  0  0  0  0  0  0  0  0  0  0  0
  122.6207  108.2069  110.1921 C   0  0  0  0  0  0  0  0  0  0  0  0
  123.6701  109.0189  110.8843 C   0  0  0  0  0  0  0  0  0  0  0  0
  124.0714  107.7970  110.0918 C   0  0  0  0  0  0  0  0  0  0  0  0
  125.2094  105.4718  108.3642 C   0  0  1  0  0  0  0  0  0  0  0  0
  125.1219  104.5889  107.1199 C   0  0  0  0  0  0  0  0  0  0  0  0
  125.7624  108.9448  107.0422 N   0  0  0  0  0  0  0  0  0  0  0  0
  124.8155  107.9477  108.7861 N   0  0  0  0  0  0  0  0  0  0  0  0
  126.3203  105.0220  109.2071 N   0  0  0  0  0  0  0  0  0  0  0  0
  125.4205  103.2990  107.4093 F   0  0  0  0  0  0  0  0  0  0  0  0
  123.8541  104.5994  106.6343 F   0  0  0  0  0  0  0  0  0  0  0  0
  126.4156  107.1351  106.1020 H   0  0  0  0  0  0  0  0  0  0  0  0
  124.8103  110.0885  108.5726 H   0  0  0  0  0  0  0  0  0  0  0  0
  121.9665  107.5988  110.8048 H   0  0  0  0  0  0  0  0  0  0  0  0
  122.1450  108.6383  109.3197 H   0  0  0  0  0  0  0  0  0  0  0  0
  123.8995  109.9965  110.4782 H   0  0  0  0  0  0  0  0  0  0  0  0
  123.7252  108.9578  111.9644 H   0  0  0  0  0  0  0  0  0  0  0  0
  124.3928  106.9279  110.6235 H   0  0  0  0  0  0  0  0  0  0  0  0
  124.2848  105.3259  108.9368 H   0  0  0  0  0  0  0  0  0  0  0  0
  125.7925  104.9281  106.3242 H   0  0  0  0  0  0  0  0  0  0  0  0
  126.5292  104.0496  109.2198 H   0  0  0  0  0  0  0  0  0  0  0  0
  126.6824  105.6613  109.8777 H   0  0  0  0  0  0  0  0  0  0  0  0
  1  3  2  0  0  0  0
  1  9  1  0  0  0  0
  2  9  2  0  0  0  0
  2 10  1  0  0  0  0
  3  7  1  0  0  0  0
  3 10  1  0  0  0  0
  4  5  1  0  0  0  0
  4  6  1  0  0  0  0
  5  6  1  0  0  0  0
  6 10  1  0  0  0  0
  7  8  1  0  0  0  0
  7 11  1  0  0  0  0
  8 12  1  0  0  0  0
  8 13  1  0  0  0  0
  1 14  1  0  0  0  0
  2 15  1  0  0  0  0
  4 16  1  0  0  0  0
  4 17  1  0  0  0  0
  5 18  1  0  0  0  0
  5 19  1  0  0  0  0
  6 20  1  0  0  0  0
  7 21  1  0  0  0  0
  8 22  1  0  0  0  0
 11 23  1  0  0  0  0
 11 24  1  0  0  0  0
M  END
> <FRED Chemgauss4 score>
-8.606268

$$$$
C88067457	P137750758
  -OEChem-05122015313D

 29 29  0     1  0  0  0  0  0999 V2000
  124.7856  104.1529  108.0579 C   0  0  0  0  0  0  0  0  0  0  0  0
  124.2022  106.4968  108.0043 C   0  0  0  0  0  0  0  0  0  0  0  0
  126.0178  104.4726  108.6280 C   0  0  0  0  0  0  0  0  0  0  0  0
  125.4344  106.8165  108.5744 C   0  0  0  0  0  0  0  0  0  0  0  0
  123.8778  105.1650  107.7460 C   0  0  0  0  0  0  0  0  0  0  0  0
  126.3422  105.8044  108.8862 C   0  0  0  0  0  0  0  0  0  0  0  0
  119.6819  104.8695  105.5487 C   0  0  0  0  0  0  0  0  0  0  0  0
  122.5513  104.8210  107.1330 C   0  0  0  0  0  0  0  0  0  0  0  0
  120.9766  104.3997  103.3997 C   0  0  0  0  0  0  0  0  0  0  0  0
  121.0159  104.4571  104.9312 C   0  0  1  0  0  0  0  0  0  0  0  0
  120.0077  103.4185  102.9223 N   0  0  0  0  0  0  0  0  0  0  0  0
  121.6483  106.9309  105.7255 O   0  0  0  0  0  0  0  0  0  0  0  0
  127.5442  106.1161  109.4437 O   0  0  0  0  0  0  0  0  0  0  0  0
  122.3314  105.6340  105.4478 S   0  0  1  0  0  0  0  0  0  0  0  0
  124.5412  103.1127  107.8601 H   0  0  0  0  0  0  0  0  0  0  0  0
  123.5010  107.2920  107.7644 H   0  0  0  0  0  0  0  0  0  0  0  0
  126.7208  103.6796  108.8690 H   0  0  0  0  0  0  0  0  0  0  0  0
  125.6810  107.8557  108.7734 H   0  0  0  0  0  0  0  0  0  0  0  0
  119.3477  105.8413  105.1688 H   0  0  0  0  0  0  0  0  0  0  0  0
  118.9003  104.1345  105.3314 H   0  0  0  0  0  0  0  0  0  0  0  0
  119.7605  104.9500  106.6386 H   0  0  0  0  0  0  0  0  0  0  0  0
  122.4573  103.7382  106.9983 H   0  0  0  0  0  0  0  0  0  0  0  0
  121.7260  105.1416  107.7778 H   0  0  0  0  0  0  0  0  0  0  0  0
  120.7196  105.3818  102.9857 H   0  0  0  0  0  0  0  0  0  0  0  0
  121.9651  104.1353  103.0059 H   0  0  0  0  0  0  0  0  0  0  0  0
  121.3165  103.4830  105.3345 H   0  0  0  0  0  0  0  0  0  0  0  0
  120.1518  103.0153  102.0214 H   0  0  0  0  0  0  0  0  0  0  0  0
  119.1417  103.3369  103.4107 H   0  0  0  0  0  0  0  0  0  0  0  0
  127.6217  107.0763  109.5609 H   0  0  0  0  0  0  0  0  0  0  0  0
  1  3  2  0  0  0  0
  1  5  1  0  0  0  0
  2  4  1  0  0  0  0
  2  5  2  0  0  0  0
  3  6  1  0  0  0  0
  4  6  2  0  0  0  0
  5  8  1  0  0  0  0
  6 13  1  0  0  0  0
  7 10  1  0  0  0  0
  8 14  1  0  0  0  0
  9 10  1  0  0  0  0
  9 11  1  0  0  0  0
 10 14  1  0  0  0  0
 12 14  2  0  0  0  0
  1 15  1  0  0  0  0
  2 16  1  0  0  0  0
  3 17  1  0  0  0  0
  4 18  1  0  0  0  0
  7 19  1  0  0  0  0
  7 20  1  0  0  0  0
  7 21  1  0  0  0  0
  8 22  1  0  0  0  0
  8 23  1  0  0  0  0
  9 24  1  0  0  0  0
  9 25  1  0  0  0  0
 10 26  1  0  0  0  0
 11 27  1  0  0  0  0
 11 28  1  0  0  0  0
 13 29  1  0  0  0  0
M  END
> <FRED Chemgauss4 score>
-8.604677

$$$$
C85248959	P133376742
  -OEChem-05122015313D

 25 25  0     1  0  0  0  0  0999 V2000
  123.6930  106.5891  105.7449 C   0  0  0  0  0  0  0  0  0  0  0  0
  122.3169  105.9718  105.7443 C   0  0  0  0  0  0  0  0  0  0  0  0
  123.8130  104.6612  107.1075 C   0  0  0  0  0  0  0  0  0  0  0  0
  122.5323  104.5651  106.2979 C   0  0  1  0  0  0  0  0  0  0  0  0
  125.8891  106.0663  106.8638 C   0  0  0  0  0  0  0  0  0  0  0  0
  125.7273  108.3542  107.9803 C   0  0  0  0  0  0  0  0  0  0  0  0
  125.9972  106.8638  108.1636 C   0  0  2  0  0  0  0  0  0  0  0  0
  124.5084  105.7858  106.5327 N   0  0  0  0  0  0  0  0  0  0  0  0
  123.9846  107.6284  105.1715 O   0  0  0  0  0  0  0  0  0  0  0  0
  121.4570  104.1797  107.1349 O   0  0  0  0  0  0  0  0  0  0  0  0
  126.6945  108.8900  107.0824 O   0  0  0  0  0  0  0  0  0  0  0  0
  127.3036  106.7038  108.7179 O   0  0  0  0  0  0  0  0  0  0  0  0
  121.6346  106.5697  106.3613 H   0  0  0  0  0  0  0  0  0  0  0  0
  121.9602  105.9403  104.7061 H   0  0  0  0  0  0  0  0  0  0  0  0
  123.6356  104.8397  108.1760 H   0  0  0  0  0  0  0  0  0  0  0  0
  124.4459  103.7737  106.9745 H   0  0  0  0  0  0  0  0  0  0  0  0
  122.6108  103.8100  105.4903 H   0  0  0  0  0  0  0  0  0  0  0  0
  126.3301  106.6350  106.0383 H   0  0  0  0  0  0  0  0  0  0  0  0
  126.4368  105.1223  106.9514 H   0  0  0  0  0  0  0  0  0  0  0  0
  125.8140  108.8894  108.9310 H   0  0  0  0  0  0  0  0  0  0  0  0
  124.7385  108.5330  107.5459 H   0  0  0  0  0  0  0  0  0  0  0  0
  125.2934  106.4557  108.8985 H   0  0  0  0  0  0  0  0  0  0  0  0
  120.6573  104.2053  106.5869 H   0  0  0  0  0  0  0  0  0  0  0  0
  126.4933  109.8344  106.9898 H   0  0  0  0  0  0  0  0  0  0  0  0
  127.4159  105.7557  108.8835 H   0  0  0  0  0  0  0  0  0  0  0  0
  1  2  1  0  0  0  0
  1  8  1  0  0  0  0
  1  9  2  0  0  0  0
  2  4  1  0  0  0  0
  3  4  1  0  0  0  0
  3  8  1  0  0  0  0
  4 10  1  0  0  0  0
  5  7  1  0  0  0  0
  5  8  1  0  0  0  0
  6  7  1  0  0  0  0
  6 11  1  0  0  0  0
  7 12  1  0  0  0  0
  2 13  1  0  0  0  0
  2 14  1  0  0  0  0
  3 15  1  0  0  0  0
  3 16  1  0  0  0  0
  4 17  1  0  0  0  0
  5 18  1  0  0  0  0
  5 19  1  0  0  0  0
  6 20  1  0  0  0  0
  6 21  1  0  0  0  0
  7 22  1  0  0  0  0
 10 23  1  0  0  0  0
 11 24  1  0  0  0  0
 12 25  1  0  0  0  0
M  END
> <FRED Chemgauss4 score>
-8.601797

$$$$
C86525873	P135471823
  -OEChem-05122015313D

 26 26  0     1  0  0  0  0  0999 V2000
  125.3572  105.0680  108.3700 C   0  0  0  0  0  0  0  0  0  0  0  0
  125.0234  107.1173  108.5842 C   0  0  0  0  0  0  0  0  0  0  0  0
  120.6623  111.4604  110.0247 C   0  0  0  0  0  0  0  0  0  0  0  0
  121.9139  111.8865  110.7706 C   0  0  0  0  0  0  0  0  0  0  0  0
  122.8552  110.7162  111.0115 C   0  0  0  0  0  0  0  0  0  0  0  0
  124.1344  109.0774  109.9158 C   0  0  0  0  0  0  0  0  0  0  0  0
  124.5351  108.5491  108.5359 C   0  0  1  0  0  0  0  0  0  0  0  0
  124.5295  106.0736  107.9596 N   0  0  0  0  0  0  0  0  0  0  0  0
  126.3321  105.4239  109.2093 N   0  0  0  0  0  0  0  0  0  0  0  0
  126.0961  106.7392  109.3299 N   0  0  0  0  0  0  0  0  0  0  0  0
  125.5273  109.4095  107.9276 N   0  0  0  0  0  0  0  0  0  0  0  0
  123.2503  110.1789  109.7569 O   0  0  0  0  0  0  0  0  0  0  0  0
  125.2464  104.0435  108.0474 H   0  0  0  0  0  0  0  0  0  0  0  0
  120.9157  111.0036  109.0627 H   0  0  0  0  0  0  0  0  0  0  0  0
  120.1017  110.7262  110.6118 H   0  0  0  0  0  0  0  0  0  0  0  0
  120.0070  112.3167  109.8367 H   0  0  0  0  0  0  0  0  0  0  0  0
  121.6389  112.3409  111.7300 H   0  0  0  0  0  0  0  0  0  0  0  0
  122.4359  112.6683  110.2060 H   0  0  0  0  0  0  0  0  0  0  0  0
  123.7517  111.0400  111.5498 H   0  0  0  0  0  0  0  0  0  0  0  0
  122.3594  109.9282  111.5874 H   0  0  0  0  0  0  0  0  0  0  0  0
  123.6061  108.3089  110.4908 H   0  0  0  0  0  0  0  0  0  0  0  0
  125.0022  109.4136  110.4938 H   0  0  0  0  0  0  0  0  0  0  0  0
  123.6625  108.6149  107.8737 H   0  0  0  0  0  0  0  0  0  0  0  0
  126.6969  107.2973  109.9253 H   0  0  0  0  0  0  0  0  0  0  0  0
  125.4905  110.3945  108.1138 H   0  0  0  0  0  0  0  0  0  0  0  0
  126.0933  109.0425  107.1851 H   0  0  0  0  0  0  0  0  0  0  0  0
  1  8  1  0  0  0  0
  1  9  2  0  0  0  0
  2  7  1  0  0  0  0
  2  8  2  0  0  0  0
  2 10  1  0  0  0  0
  3  4  1  0  0  0  0
  4  5  1  0  0  0  0
  5 12  1  0  0  0  0
  6  7  1  0  0  0  0
  6 12  1  0  0  0  0
  7 11  1  0  0  0  0
  9 10  1  0  0  0  0
  1 13  1  0  0  0  0
  3 14  1  0  0  0  0
  3 15  1  0  0  0  0
  3 16  1  0  0  0  0
  4 17  1  0  0  0  0
  4 18  1  0  0  0  0
  5 19  1  0  0  0  0
  5 20  1  0  0  0  0
  6 21  1  0  0  0  0
  6 22  1  0  0  0  0
  7 23  1  0  0  0  0
 10 24  1  0  0  0  0
 11 25  1  0  0  0  0
 11 26  1  0  0  0  0
M  END
> <FRED Chemgauss4 score>
-8.598883

$$$$
C87395422	P136737161
  -OEChem-05122015313D

 25 26  0     1  0  0  0  0  0999 V2000
  122.0101  110.6015  111.9869 C   0  0  0  0  0  0  0  0  0  0  0  0
  126.0400  106.0729  106.9246 C   0  0  0  0  0  0  0  0  0  0  0  0
  122.6269  111.5640  111.2153 C   0  0  0  0  0  0  0  0  0  0  0  0
  125.2844  107.9792  107.4658 C   0  0  0  0  0  0  0  0  0  0  0  0
  123.7499  109.8137  110.5188 C   0  0  0  0  0  0  0  0  0  0  0  0
  122.3103  113.0060  111.2201 C   0  0  0  0  0  0  0  0  0  0  0  0
  124.7421  108.9602  109.7636 C   0  0  0  0  0  0  0  0  0  0  0  0
  124.6121  109.0971  108.2350 C   0  0  1  0  0  0  0  0  0  0  0  0
  125.8654  108.1356  106.2601 N   0  5  0  0  0  0  0  0  0  0  0  0
  125.3792  106.7145  107.8976 N   0  0  0  0  0  0  0  0  0  0  0  0
  126.3537  106.9016  105.9094 N   0  0  0  0  0  0  0  0  0  0  0  0
  123.6250  111.1142  110.3732 N   0  0  0  0  0  0  0  0  0  0  0  0
  125.1476  110.4446  107.8531 N   0  3  0  0  0  0  0  0  0  0  0  0
  122.6986  109.0670  111.6512 S   0  0  0  0  0  0  0  0  0  0  0  0
  121.2137  110.7187  112.7082 H   0  0  0  0  0  0  0  0  0  0  0  0
  126.2895  105.0220  106.9475 H   0  0  0  0  0  0  0  0  0  0  0  0
  122.9201  113.5439  111.9642 H   0  0  0  0  0  0  0  0  0  0  0  0
  122.4922  113.4725  110.2370 H   0  0  0  0  0  0  0  0  0  0  0  0
  121.2492  113.1956  111.4558 H   0  0  0  0  0  0  0  0  0  0  0  0
  124.6377  107.9118  110.0726 H   0  0  0  0  0  0  0  0  0  0  0  0
  125.7504  109.2584  110.0823 H   0  0  0  0  0  0  0  0  0  0  0  0
  123.5515  109.1447  107.9591 H   0  0  0  0  0  0  0  0  0  0  0  0
  125.9724  110.3400  107.2623 H   0  0  0  0  0  0  0  0  0  0  0  0
  125.4063  110.9687  108.6893 H   0  0  0  0  0  0  0  0  0  0  0  0
  124.4401  110.9711  107.3405 H   0  0  0  0  0  0  0  0  0  0  0  0
  1  3  2  0  0  0  0
  1 14  1  0  0  0  0
  2 10  1  0  0  0  0
  2 11  2  0  0  0  0
  3  6  1  0  0  0  0
  3 12  1  0  0  0  0
  4  8  1  0  0  0  0
  4  9  1  0  0  0  0
  4 10  2  0  0  0  0
  5  7  1  0  0  0  0
  5 12  2  0  0  0  0
  5 14  1  0  0  0  0
  7  8  1  0  0  0  0
  8 13  1  0  0  0  0
  9 11  1  0  0  0  0
  1 15  1  0  0  0  0
  2 16  1  0  0  0  0
  6 17  1  0  0  0  0
  6 18  1  0  0  0  0
  6 19  1  0  0  0  0
  7 20  1  0  0  0  0
  7 21  1  0  0  0  0
  8 22  1  0  0  0  0
 13 23  1  0  0  0  0
 13 24  1  0  0  0  0
 13 25  1  0  0  0  0
M  CHG  2   9  -1  13   1
M  END
> <FRED Chemgauss4 score>
-8.595295

$$$$
C62314433	P95618880
  -OEChem-05122015313D

 23 23  0     1  0  0  0  0  0999 V2000
  124.4797  107.5947  108.6288 C   0  0  0  0  0  0  0  0  0  0  0  0
  125.1352  107.9600  107.4800 C   0  0  0  0  0  0  0  0  0  0  0  0
  125.7742  107.1076  106.4691 C   0  0  0  0  0  0  0  0  0  0  0  0
  123.3522  109.0033  110.4094 C   0  0  0  0  0  0  0  0  0  0  0  0
  123.3458  110.2898  112.5739 C   0  0  0  0  0  0  0  0  0  0  0  0
  123.7478  110.3088  111.1023 C   0  0  2  0  0  0  0  0  0  0  0  0
  125.1289  109.3221  107.3606 N   0  0  0  0  0  0  0  0  0  0  0  0
  124.4844  109.8208  108.4100 N   0  0  0  0  0  0  0  0  0  0  0  0
  124.0961  108.7834  109.1692 N   0  0  0  0  0  0  0  0  0  0  0  0
  125.7143  107.7331  105.1844 O   0  0  0  0  0  0  0  0  0  0  0  0
  123.9821  109.1871  113.2106 O   0  0  0  0  0  0  0  0  0  0  0  0
  123.0641  111.3874  110.4612 O   0  0  0  0  0  0  0  0  0  0  0  0
  124.2618  106.6401  109.0865 H   0  0  0  0  0  0  0  0  0  0  0  0
  126.8395  106.9083  106.6950 H   0  0  0  0  0  0  0  0  0  0  0  0
  125.2852  106.1180  106.3849 H   0  0  0  0  0  0  0  0  0  0  0  0
  122.2884  109.0015  110.1432 H   0  0  0  0  0  0  0  0  0  0  0  0
  123.5351  108.1379  111.0579 H   0  0  0  0  0  0  0  0  0  0  0  0
  122.2639  110.1651  112.6869 H   0  0  0  0  0  0  0  0  0  0  0  0
  123.6645  111.2051  113.0821 H   0  0  0  0  0  0  0  0  0  0  0  0
  124.8227  110.5015  111.0048 H   0  0  0  0  0  0  0  0  0  0  0  0
  126.1485  107.1266  104.5668 H   0  0  0  0  0  0  0  0  0  0  0  0
  123.7055  109.2055  114.1404 H   0  0  0  0  0  0  0  0  0  0  0  0
  123.3478  111.3777  109.5350 H   0  0  0  0  0  0  0  0  0  0  0  0
  1  2  2  0  0  0  0
  1  9  1  0  0  0  0
  2  3  1  0  0  0  0
  2  7  1  0  0  0  0
  3 10  1  0  0  0  0
  4  6  1  0  0  0  0
  4  9  1  0  0  0  0
  5  6  1  0  0  0  0
  5 11  1  0  0  0  0
  6 12  1  0  0  0  0
  7  8  2  0  0  0  0
  8  9  1  0  0  0  0
  1 13  1  0  0  0  0
  3 14  1  0  0  0  0
  3 15  1  0  0  0  0
  4 16  1  0  0  0  0
  4 17  1  0  0  0  0
  5 18  1  0  0  0  0
  5 19  1  0  0  0  0
  6 20  1  0  0  0  0
 10 21  1  0  0  0  0
 11 22  1  0  0  0  0
 12 23  1  0  0  0  0
M  END
> <FRED Chemgauss4 score>
-8.591593

$$$$
C72313242	P112387662
  -OEChem-05122015313D

 23 24  0     1  0  0  0  0  0999 V2000
  125.1433  107.1447  106.9505 C   0  0  0  0  0  0  0  0  0  0  0  0
  123.3039  106.5371  105.9404 C   0  0  0  0  0  0  0  0  0  0  0  0
  125.6369  104.6409  108.2195 C   0  0  0  0  0  0  0  0  0  0  0  0
  126.1744  105.9203  108.8702 C   0  0  0  0  0  0  0  0  0  0  0  0
  124.2684  104.8906  107.5839 C   0  0  0  0  0  0  0  0  0  0  0  0
  126.3483  107.0364  107.8229 C   0  0  2  0  0  0  0  0  0  0  0  0
  122.1335  105.7319  105.5482 C   0  0  0  0  0  0  0  0  0  0  0  0
  124.7854  108.1218  106.1413 N   0  0  0  0  0  0  0  0  0  0  0  0
  123.6173  107.7384  105.5078 N   0  0  0  0  0  0  0  0  0  0  0  0
  124.2349  106.1278  106.8369 N   0  0  0  0  0  0  0  0  0  0  0  0
  126.6285  108.3008  108.5003 N   0  0  0  0  0  0  0  0  0  0  0  0
  126.3444  104.3012  107.4525 H   0  0  0  0  0  0  0  0  0  0  0  0
  125.5585  103.8403  108.9631 H   0  0  0  0  0  0  0  0  0  0  0  0
  125.4766  106.2351  109.6582 H   0  0  0  0  0  0  0  0  0  0  0  0
  127.1342  105.7118  109.3584 H   0  0  0  0  0  0  0  0  0  0  0  0
  124.0083  104.0696  106.9080 H   0  0  0  0  0  0  0  0  0  0  0  0
  123.4962  104.9703  108.3575 H   0  0  0  0  0  0  0  0  0  0  0  0
  127.2047  106.7873  107.1844 H   0  0  0  0  0  0  0  0  0  0  0  0
  122.3603  105.0957  104.6759 H   0  0  0  0  0  0  0  0  0  0  0  0
  121.7917  105.0700  106.3634 H   0  0  0  0  0  0  0  0  0  0  0  0
  121.2649  106.3611  105.2850 H   0  0  0  0  0  0  0  0  0  0  0  0
  126.4425  109.1467  108.0078 H   0  0  0  0  0  0  0  0  0  0  0  0
  127.1762  108.2743  109.3323 H   0  0  0  0  0  0  0  0  0  0  0  0
  1  6  1  0  0  0  0
  1  8  2  0  0  0  0
  1 10  1  0  0  0  0
  2  7  1  0  0  0  0
  2  9  2  0  0  0  0
  2 10  1  0  0  0  0
  3  4  1  0  0  0  0
  3  5  1  0  0  0  0
  4  6  1  0  0  0  0
  5 10  1  0  0  0  0
  6 11  1  0  0  0  0
  8  9  1  0  0  0  0
  3 12  1  0  0  0  0
  3 13  1  0  0  0  0
  4 14  1  0  0  0  0
  4 15  1  0  0  0  0
  5 16  1  0  0  0  0
  5 17  1  0  0  0  0
  6 18  1  0  0  0  0
  7 19  1  0  0  0  0
  7 20  1  0  0  0  0
  7 21  1  0  0  0  0
 11 22  1  0  0  0  0
 11 23  1  0  0  0  0
M  END
> <FRED Chemgauss4 score>
-8.591242

$$$$
C59696613	P90963035
  -OEChem-05122015313D

 17 17  0     0  0  0  0  0  0999 V2000
  126.1862  106.3627  108.4856 C   0  0  0  0  0  0  0  0  0  0  0  0
  125.1337  105.6117  108.1670 C   0  0  0  0  0  0  0  0  0  0  0  0
  126.3998  107.5821  107.6633 C   0  0  0  0  0  0  0  0  0  0  0  0
  124.5070  107.1022  106.3666 C   0  0  0  0  0  0  0  0  0  0  0  0
  123.1624  105.0576  106.8614 C   0  0  0  0  0  0  0  0  0  0  0  0
  125.5960  107.8969  106.6816 N   0  0  0  0  0  0  0  0  0  0  0  0
  124.2885  105.9442  107.1336 N   0  0  0  0  0  0  0  0  0  0  0  0
  127.4762  108.3855  107.9600 N   0  0  0  0  0  0  0  0  0  0  0  0
  123.7601  107.4142  105.4374 O   0  0  0  0  0  0  0  0  0  0  0  0
  122.1746  105.2479  107.8558 O   0  0  0  0  0  0  0  0  0  0  0  0
  126.8629  106.1197  109.2937 H   0  0  0  0  0  0  0  0  0  0  0  0
  124.9047  104.7046  108.7153 H   0  0  0  0  0  0  0  0  0  0  0  0
  123.5174  104.0243  106.8821 H   0  0  0  0  0  0  0  0  0  0  0  0
  122.7542  105.3053  105.8786 H   0  0  0  0  0  0  0  0  0  0  0  0
  128.0651  108.1169  108.7109 H   0  0  0  0  0  0  0  0  0  0  0  0
  127.6166  109.1984  107.4101 H   0  0  0  0  0  0  0  0  0  0  0  0
  121.9004  106.1797  107.8111 H   0  0  0  0  0  0  0  0  0  0  0  0
  1  2  2  0  0  0  0
  1  3  1  0  0  0  0
  2  7  1  0  0  0  0
  3  6  2  0  0  0  0
  3  8  1  0  0  0  0
  4  6  1  0  0  0  0
  4  7  1  0  0  0  0
  4  9  2  0  0  0  0
  5  7  1  0  0  0  0
  5 10  1  0  0  0  0
  1 11  1  0  0  0  0
  2 12  1  0  0  0  0
  5 13  1  0  0  0  0
  5 14  1  0  0  0  0
  8 15  1  0  0  0  0
  8 16  1  0  0  0  0
 10 17  1  0  0  0  0
M  END
> <FRED Chemgauss4 score>
-8.590685

$$$$
C85200009	P133290367
  -OEChem-05122015313D

 20 20  0     0  0  0  0  0  0999 V2000
  126.5360  107.7939  107.4035 C   0  0  0  0  0  0  0  0  0  0  0  0
  124.6107  107.5607  106.5265 C   0  0  0  0  0  0  0  0  0  0  0  0
  126.1131  106.5391  107.7737 C   0  0  0  0  0  0  0  0  0  0  0  0
  122.8594  105.4693  108.2574 C   0  0  0  0  0  0  0  0  0  0  0  0
  126.7514  105.4922  108.5898 C   0  0  0  0  0  0  0  0  0  0  0  0
  124.0036  105.2587  107.2927 C   0  0  0  0  0  0  0  0  0  0  0  0
  125.5961  108.4248  106.6275 N   0  0  0  0  0  0  0  0  0  0  0  0
  124.8780  106.4042  107.2048 N   0  0  0  0  0  0  0  0  0  0  0  0
  122.0409  104.3630  108.3420 N   0  0  0  0  0  0  0  0  0  0  0  0
  122.6740  106.5039  108.8916 O   0  0  0  0  0  0  0  0  0  0  0  0
  127.8525  106.0398  109.3168 O   0  0  0  0  0  0  0  0  0  0  0  0
  127.4690  108.2774  107.6551 H   0  0  0  0  0  0  0  0  0  0  0  0
  123.6891  107.7152  105.9819 H   0  0  0  0  0  0  0  0  0  0  0  0
  126.0524  105.0459  109.3208 H   0  0  0  0  0  0  0  0  0  0  0  0
  127.1328  104.6588  107.9719 H   0  0  0  0  0  0  0  0  0  0  0  0
  123.6094  105.0518  106.2914 H   0  0  0  0  0  0  0  0  0  0  0  0
  124.6034  104.3973  107.6076 H   0  0  0  0  0  0  0  0  0  0  0  0
  122.2130  103.5182  107.8062 H   0  0  0  0  0  0  0  0  0  0  0  0
  121.2304  104.3589  108.9525 H   0  0  0  0  0  0  0  0  0  0  0  0
  128.2296  105.3104  109.8311 H   0  0  0  0  0  0  0  0  0  0  0  0
  1  3  2  0  0  0  0
  1  7  1  0  0  0  0
  2  7  2  0  0  0  0
  2  8  1  0  0  0  0
  3  5  1  0  0  0  0
  3  8  1  0  0  0  0
  4  6  1  0  0  0  0
  4  9  1  0  0  0  0
  4 10  2  0  0  0  0
  5 11  1  0  0  0  0
  6  8  1  0  0  0  0
  1 12  1  0  0  0  0
  2 13  1  0  0  0  0
  5 14  1  0  0  0  0
  5 15  1  0  0  0  0
  6 16  1  0  0  0  0
  6 17  1  0  0  0  0
  9 18  1  0  0  0  0
  9 19  1  0  0  0  0
 11 20  1  0  0  0  0
M  END
> <FRED Chemgauss4 score>
-8.590552

$$$$
C70294142	P108366885
  -OEChem-05122015313D

 41 42  0     1  0  0  0  0  0999 V2000
  121.9119  105.4355  108.5946 C   0  0  0  0  0  0  0  0  0  0  0  0
  123.0994  105.2333  106.5003 C   0  0  0  0  0  0  0  0  0  0  0  0
  120.7621  104.9254  107.9918 C   0  0  0  0  0  0  0  0  0  0  0  0
  121.9496  104.7231  105.8976 C   0  0  0  0  0  0  0  0  0  0  0  0
  123.0806  105.5895  107.8488 C   0  0  0  0  0  0  0  0  0  0  0  0
  120.7809  104.5692  106.6433 C   0  0  0  0  0  0  0  0  0  0  0  0
  125.9589  107.2040  107.1193 C   0  0  0  0  0  0  0  0  0  0  0  0
  126.3224  105.7382  107.1847 C   0  0  0  0  0  0  0  0  0  0  0  0
  124.3306  106.1463  108.5046 C   0  0  1  0  0  0  0  0  0  0  0  0
  125.5858  105.2565  108.4387 C   0  0  1  0  0  0  0  0  0  0  0  0
  124.8664  109.7426  107.3058 C   0  0  0  0  0  0  0  0  0  0  0  0
  122.6890  108.5237  107.5546 C   0  0  0  0  0  0  0  0  0  0  0  0
  124.1047  108.9916  109.5709 C   0  0  0  0  0  0  0  0  0  0  0  0
  119.0681  105.1623  104.5872 C   0  0  0  0  0  0  0  0  0  0  0  0
  124.1241  108.6455  108.0775 C   0  0  0  0  0  0  0  0  0  0  0  0
  124.8068  107.3804  107.8876 N   0  0  0  0  0  0  0  0  0  0  0  0
  125.3665  103.8191  108.4569 N   0  0  0  0  0  0  0  0  0  0  0  0
  126.5673  108.0405  106.4682 O   0  0  0  0  0  0  0  0  0  0  0  0
  119.3122  103.9176  105.8732 S   0  0  0  0  0  0  0  0  0  0  0  0
  121.8879  105.7105  109.6457 H   0  0  0  0  0  0  0  0  0  0  0  0
  124.0053  105.3503  105.9115 H   0  0  0  0  0  0  0  0  0  0  0  0
  119.8604  104.8133  108.5894 H   0  0  0  0  0  0  0  0  0  0  0  0
  121.9838  104.4513  104.8453 H   0  0  0  0  0  0  0  0  0  0  0  0
  125.9625  105.2523  106.2712 H   0  0  0  0  0  0  0  0  0  0  0  0
  127.4045  105.6087  107.2730 H   0  0  0  0  0  0  0  0  0  0  0  0
  124.0821  106.3610  109.5801 H   0  0  0  0  0  0  0  0  0  0  0  0
  126.2152  105.5083  109.3036 H   0  0  0  0  0  0  0  0  0  0  0  0
  125.8976  109.8493  107.6622 H   0  0  0  0  0  0  0  0  0  0  0  0
  124.9024  109.5212  106.2333 H   0  0  0  0  0  0  0  0  0  0  0  0
  124.3772  110.7153  107.4335 H   0  0  0  0  0  0  0  0  0  0  0  0
  122.1372  107.7438  108.0922 H   0  0  0  0  0  0  0  0  0  0  0  0
  122.6770  108.2545  106.4920 H   0  0  0  0  0  0  0  0  0  0  0  0
  122.1409  109.4653  107.6702 H   0  0  0  0  0  0  0  0  0  0  0  0
  123.5789  108.2221  110.1479 H   0  0  0  0  0  0  0  0  0  0  0  0
  125.1199  109.0804  109.9730 H   0  0  0  0  0  0  0  0  0  0  0  0
  123.5873  109.9413  109.7505 H   0  0  0  0  0  0  0  0  0  0  0  0
  118.1823  104.9173  103.9961 H   0  0  0  0  0  0  0  0  0  0  0  0
  119.9395  105.1909  103.9284 H   0  0  0  0  0  0  0  0  0  0  0  0
  118.9325  106.1458  105.0436 H   0  0  0  0  0  0  0  0  0  0  0  0
  124.6356  103.4566  109.0354 H   0  0  0  0  0  0  0  0  0  0  0  0
  126.0675  103.2259  108.0606 H   0  0  0  0  0  0  0  0  0  0  0  0
  1  3  2  0  0  0  0
  1  5  1  0  0  0  0
  2  4  1  0  0  0  0
  2  5  2  0  0  0  0
  3  6  1  0  0  0  0
  4  6  2  0  0  0  0
  5  9  1  0  0  0  0
  6 19  1  0  0  0  0
  7  8  1  0  0  0  0
  7 16  1  0  0  0  0
  7 18  2  0  0  0  0
  8 10  1  0  0  0  0
  9 10  1  0  0  0  0
  9 16  1  0  0  0  0
 10 17  1  0  0  0  0
 11 15  1  0  0  0  0
 12 15  1  0  0  0  0
 13 15  1  0  0  0  0
 14 19  1  0  0  0  0
 15 16  1  0  0  0  0
  1 20  1  0  0  0  0
  2 21  1  0  0  0  0
  3 22  1  0  0  0  0
  4 23  1  0  0  0  0
  8 24  1  0  0  0  0
  8 25  1  0  0  0  0
  9 26  1  0  0  0  0
 10 27  1  0  0  0  0
 11 28  1  0  0  0  0
 11 29  1  0  0  0  0
 11 30  1  0  0  0  0
 12 31  1  0  0  0  0
 12 32  1  0  0  0  0
 12 33  1  0  0  0  0
 13 34  1  0  0  0  0
 13 35  1  0  0  0  0
 13 36  1  0  0  0  0
 14 37  1  0  0  0  0
 14 38  1  0  0  0  0
 14 39  1  0  0  0  0
 17 40  1  0  0  0  0
 17 41  1  0  0  0  0
M  END
> <FRED Chemgauss4 score>
-8.590288

$$$$
C43232489	P65406561
  -OEChem-05122015313D

 27 28  0     1  0  0  0  0  0999 V2000
  125.5960  103.8673  108.5296 C   0  0  0  0  0  0  0  0  0  0  0  0
  125.0230  109.5445  108.0230 C   0  0  0  0  0  0  0  0  0  0  0  0
  125.9580  105.1932  108.5679 C   0  0  0  0  0  0  0  0  0  0  0  0
  124.4362  107.8120  109.2433 C   0  0  0  0  0  0  0  0  0  0  0  0
  124.7941  104.7274  106.7555 C   0  0  0  0  0  0  0  0  0  0  0  0
  125.0230  108.1369  108.0447 C   0  0  0  0  0  0  0  0  0  0  0  0
  123.4987  109.1705  111.1286 C   0  0  0  0  0  0  0  0  0  0  0  0
  124.9415  107.4311  105.5755 C   0  0  0  0  0  0  0  0  0  0  0  0
  125.5523  107.1840  106.9769 C   0  0  2  0  0  0  0  0  0  0  0  0
  124.8719  103.5837  107.3987 N   0  0  0  0  0  0  0  0  0  0  0  0
  124.4793  110.0771  109.1206 N   0  0  0  0  0  0  0  0  0  0  0  0
  125.4376  105.7311  107.4246 N   0  0  0  0  0  0  0  0  0  0  0  0
  124.1321  108.9986  109.8432 N   0  0  0  0  0  0  0  0  0  0  0  0
  123.4883  107.2683  105.5881 N   0  0  0  0  0  0  0  0  0  0  0  0
  125.8201  103.1025  109.2588 H   0  0  0  0  0  0  0  0  0  0  0  0
  125.3952  110.2065  107.2539 H   0  0  0  0  0  0  0  0  0  0  0  0
  126.5199  105.7778  109.2829 H   0  0  0  0  0  0  0  0  0  0  0  0
  124.2136  106.8612  109.7084 H   0  0  0  0  0  0  0  0  0  0  0  0
  124.2911  104.8881  105.8117 H   0  0  0  0  0  0  0  0  0  0  0  0
  124.2838  109.2180  111.8878 H   0  0  0  0  0  0  0  0  0  0  0  0
  122.9136  110.0944  111.1255 H   0  0  0  0  0  0  0  0  0  0  0  0
  122.8319  108.3249  111.3189 H   0  0  0  0  0  0  0  0  0  0  0  0
  125.1723  108.4520  105.2471 H   0  0  0  0  0  0  0  0  0  0  0  0
  125.3558  106.7535  104.8220 H   0  0  0  0  0  0  0  0  0  0  0  0
  126.6239  107.4134  106.8685 H   0  0  0  0  0  0  0  0  0  0  0  0
  123.0363  107.0410  104.7302 H   0  0  0  0  0  0  0  0  0  0  0  0
  122.9898  107.5855  106.3900 H   0  0  0  0  0  0  0  0  0  0  0  0
  1  3  2  0  0  0  0
  1 10  1  0  0  0  0
  2  6  1  0  0  0  0
  2 11  2  0  0  0  0
  3 12  1  0  0  0  0
  4  6  2  0  0  0  0
  4 13  1  0  0  0  0
  5 10  2  0  0  0  0
  5 12  1  0  0  0  0
  6  9  1  0  0  0  0
  7 13  1  0  0  0  0
  8  9  1  0  0  0  0
  8 14  1  0  0  0  0
  9 12  1  0  0  0  0
 11 13  1  0  0  0  0
  1 15  1  0  0  0  0
  2 16  1  0  0  0  0
  3 17  1  0  0  0  0
  4 18  1  0  0  0  0
  5 19  1  0  0  0  0
  7 20  1  0  0  0  0
  7 21  1  0  0  0  0
  7 22  1  0  0  0  0
  8 23  1  0  0  0  0
  8 24  1  0  0  0  0
  9 25  1  0  0  0  0
 14 26  1  0  0  0  0
 14 27  1  0  0  0  0
M  END
> <FRED Chemgauss4 score>
-8.588501

$$$$
C80739801	P126048467
  -OEChem-05122015313D

 33 34  0     1  0  0  0  0  0999 V2000
  119.9957  108.1071  107.6457 C   0  0  0  0  0  0  0  0  0  0  0  0
  118.8767  106.5230  106.8420 C   0  0  0  0  0  0  0  0  0  0  0  0
  119.7118  103.9277  106.3029 C   0  0  0  0  0  0  0  0  0  0  0  0
  120.6041  104.7867  106.8216 C   0  0  0  0  0  0  0  0  0  0  0  0
  118.3378  104.4621  106.0635 C   0  0  0  0  0  0  0  0  0  0  0  0
  117.3249  103.5073  105.4821 C   0  0  0  0  0  0  0  0  0  0  0  0
  125.6137  106.9399  107.9427 C   0  0  0  0  0  0  0  0  0  0  0  0
  122.9011  105.4725  107.2467 C   0  0  0  0  0  0  0  0  0  0  0  0
  124.3032  104.8463  107.1655 C   0  0  1  0  0  0  0  0  0  0  0  0
  125.4560  105.8415  106.8969 C   0  0  1  0  0  0  0  0  0  0  0  0
  118.7579  107.7888  107.1890 N   0  0  0  0  0  0  0  0  0  0  0  0
  120.8960  107.1294  107.6127 N   0  0  0  0  0  0  0  0  0  0  0  0
  117.9476  105.6765  106.3164 N   0  0  0  0  0  0  0  0  0  0  0  0
  120.1841  106.0950  107.0935 N   0  0  0  0  0  0  0  0  0  0  0  0
  124.5614  104.1289  108.4186 N   0  0  0  0  0  0  0  0  0  0  0  0
  121.8671  104.4753  107.0959 N   0  0  0  0  0  0  0  0  0  0  0  0
  125.2816  106.4721  105.6285 O   0  0  0  0  0  0  0  0  0  0  0  0
  120.2542  109.0875  108.0169 H   0  0  0  0  0  0  0  0  0  0  0  0
  119.9451  102.8988  106.0612 H   0  0  0  0  0  0  0  0  0  0  0  0
  116.8118  102.9990  106.2915 H   0  0  0  0  0  0  0  0  0  0  0  0
  117.8373  102.7846  104.8555 H   0  0  0  0  0  0  0  0  0  0  0  0
  116.6129  104.0667  104.8842 H   0  0  0  0  0  0  0  0  0  0  0  0
  124.7023  107.5341  108.0535 H   0  0  0  0  0  0  0  0  0  0  0  0
  125.8529  106.4967  108.9162 H   0  0  0  0  0  0  0  0  0  0  0  0
  126.4481  107.6065  107.7018 H   0  0  0  0  0  0  0  0  0  0  0  0
  122.7631  106.2557  106.4941 H   0  0  0  0  0  0  0  0  0  0  0  0
  122.7641  105.9488  108.2252 H   0  0  0  0  0  0  0  0  0  0  0  0
  124.2948  104.1117  106.3492 H   0  0  0  0  0  0  0  0  0  0  0  0
  126.4018  105.2882  106.8380 H   0  0  0  0  0  0  0  0  0  0  0  0
  125.5068  103.9282  108.6503 H   0  0  0  0  0  0  0  0  0  0  0  0
  123.7887  103.6999  108.8735 H   0  0  0  0  0  0  0  0  0  0  0  0
  122.1003  103.4882  107.2020 H   0  0  0  0  0  0  0  0  0  0  0  0
  126.0775  107.0034  105.4747 H   0  0  0  0  0  0  0  0  0  0  0  0
  1 11  1  0  0  0  0
  1 12  2  0  0  0  0
  2 11  2  0  0  0  0
  2 13  1  0  0  0  0
  2 14  1  0  0  0  0
  3  4  2  0  0  0  0
  3  5  1  0  0  0  0
  4 14  1  0  0  0  0
  4 16  1  0  0  0  0
  5  6  1  0  0  0  0
  5 13  2  0  0  0  0
  7 10  1  0  0  0  0
  8  9  1  0  0  0  0
  8 16  1  0  0  0  0
  9 10  1  0  0  0  0
  9 15  1  0  0  0  0
 10 17  1  0  0  0  0
 12 14  1  0  0  0  0
  1 18  1  0  0  0  0
  3 19  1  0  0  0  0
  6 20  1  0  0  0  0
  6 21  1  0  0  0  0
  6 22  1  0  0  0  0
  7 23  1  0  0  0  0
  7 24  1  0  0  0  0
  7 25  1  0  0  0  0
  8 26  1  0  0  0  0
  8 27  1  0  0  0  0
  9 28  1  0  0  0  0
 10 29  1  0  0  0  0
 15 30  1  0  0  0  0
 15 31  1  0  0  0  0
 16 32  1  0  0  0  0
 17 33  1  0  0  0  0
M  END
> <FRED Chemgauss4 score>
-8.588092

$$$$
C41050702	P62310475
  -OEChem-05122015313D

 19 19  0     1  0  0  0  0  0999 V2000
  124.3166  106.9277  106.2408 C   0  0  0  0  0  0  0  0  0  0  0  0
  126.0373  107.8731  106.9496 C   0  0  0  0  0  0  0  0  0  0  0  0
  123.4696  104.6496  106.9466 C   0  0  0  0  0  0  0  0  0  0  0  0
  123.2413  105.8778  106.0615 C   0  0  1  0  0  0  0  0  0  0  0  0
  125.3644  106.7559  107.0994 N   0  0  0  0  0  0  0  0  0  0  0  0
  124.2989  108.0809  105.5691 N   0  0  0  0  0  0  0  0  0  0  0  0
  125.4100  108.6669  106.0407 N   0  0  0  0  0  0  0  0  0  0  0  0
  127.1758  108.3040  107.5315 N   0  0  0  0  0  0  0  0  0  0  0  0
  121.9293  106.4413  106.2978 N   0  0  0  0  0  0  0  0  0  0  0  0
  122.4430  103.6946  106.6976 O   0  0  0  0  0  0  0  0  0  0  0  0
  124.4285  104.1731  106.7149 H   0  0  0  0  0  0  0  0  0  0  0  0
  123.4520  104.9033  108.0121 H   0  0  0  0  0  0  0  0  0  0  0  0
  123.2218  105.5505  105.0142 H   0  0  0  0  0  0  0  0  0  0  0  0
  125.6690  109.5860  105.7027 H   0  0  0  0  0  0  0  0  0  0  0  0
  127.6600  107.7591  108.2609 H   0  0  0  0  0  0  0  0  0  0  0  0
  127.5670  109.2398  107.3455 H   0  0  0  0  0  0  0  0  0  0  0  0
  121.1740  105.8234  106.5301 H   0  0  0  0  0  0  0  0  0  0  0  0
  121.7577  107.3924  106.0289 H   0  0  0  0  0  0  0  0  0  0  0  0
  122.6236  102.9363  107.2750 H   0  0  0  0  0  0  0  0  0  0  0  0
  1  4  1  0  0  0  0
  1  5  1  0  0  0  0
  1  6  2  0  0  0  0
  2  5  2  0  0  0  0
  2  7  1  0  0  0  0
  2  8  1  0  0  0  0
  3  4  1  0  0  0  0
  3 10  1  0  0  0  0
  4  9  1  0  0  0  0
  6  7  1  0  0  0  0
  3 11  1  0  0  0  0
  3 12  1  0  0  0  0
  4 13  1  0  0  0  0
  7 14  1  0  0  0  0
  8 15  1  0  0  0  0
  8 16  1  0  0  0  0
  9 17  1  0  0  0  0
  9 18  1  0  0  0  0
 10 19  1  0  0  0  0
M  END
> <FRED Chemgauss4 score>
-8.582587

$$$$
C36227544	P53841356
  -OEChem-05122015313D

 40 40  0     1  0  0  0  0  0999 V2000
  123.8734  105.2560  108.0893 C   0  0  0  0  0  0  0  0  0  0  0  0
  125.4247  108.3429  107.1686 C   0  0  0  0  0  0  0  0  0  0  0  0
  125.1118  109.2661  108.3459 C   0  0  0  0  0  0  0  0  0  0  0  0
  125.6564  106.9100  107.6378 C   0  0  0  0  0  0  0  0  0  0  0  0
  124.2078  107.2727  109.6050 C   0  0  0  0  0  0  0  0  0  0  0  0
  123.9389  108.7222  109.1760 C   0  0  1  0  0  0  0  0  0  0  0  0
  118.7921  105.7497  105.4750 C   0  0  0  0  0  0  0  0  0  0  0  0
  123.6799  109.6082  110.3919 C   0  0  0  0  0  0  0  0  0  0  0  0
  121.5861  104.8941  107.1844 C   0  0  0  0  0  0  0  0  0  0  0  0
  121.4006  106.1527  106.3475 C   0  0  0  0  0  0  0  0  0  0  0  0
  122.4082  105.1670  108.4342 C   0  0  1  0  0  0  0  0  0  0  0  0
  124.5279  106.4361  108.4405 N   0  0  0  0  0  0  0  0  0  0  0  0
  122.3494  104.1049  109.3948 N   0  0  0  0  0  0  0  0  0  0  0  0
  124.4176  104.3048  107.5225 O   0  0  0  0  0  0  0  0  0  0  0  0
  120.5762  106.9705  104.0056 O   0  0  0  0  0  0  0  0  0  0  0  0
  120.8227  104.4917  104.4137 O   0  0  0  0  0  0  0  0  0  0  0  0
  123.3787  110.9154  109.9397 O   0  0  0  0  0  0  0  0  0  0  0  0
  120.4685  105.8194  104.8860 S   0  0  0  0  0  0  0  0  0  0  0  0
  124.5858  108.3647  106.4620 H   0  0  0  0  0  0  0  0  0  0  0  0
  126.3087  108.7077  106.6341 H   0  0  0  0  0  0  0  0  0  0  0  0
  126.0045  109.3631  108.9768 H   0  0  0  0  0  0  0  0  0  0  0  0
  124.8747  110.2685  107.9705 H   0  0  0  0  0  0  0  0  0  0  0  0
  125.8209  106.2603  106.7725 H   0  0  0  0  0  0  0  0  0  0  0  0
  126.5529  106.8519  108.2664 H   0  0  0  0  0  0  0  0  0  0  0  0
  125.0701  107.2217  110.2815 H   0  0  0  0  0  0  0  0  0  0  0  0
  123.3477  106.8864  110.1555 H   0  0  0  0  0  0  0  0  0  0  0  0
  123.0396  108.7347  108.5452 H   0  0  0  0  0  0  0  0  0  0  0  0
  118.1372  105.5449  104.6265 H   0  0  0  0  0  0  0  0  0  0  0  0
  118.7200  104.9513  106.2151 H   0  0  0  0  0  0  0  0  0  0  0  0
  118.5450  106.7122  105.9252 H   0  0  0  0  0  0  0  0  0  0  0  0
  124.5673  109.6403  111.0234 H   0  0  0  0  0  0  0  0  0  0  0  0
  122.8359  109.2198  110.9613 H   0  0  0  0  0  0  0  0  0  0  0  0
  120.6032  104.4824  107.4501 H   0  0  0  0  0  0  0  0  0  0  0  0
  122.0806  104.1247  106.5771 H   0  0  0  0  0  0  0  0  0  0  0  0
  122.3630  106.5598  106.0233 H   0  0  0  0  0  0  0  0  0  0  0  0
  120.8565  106.9263  106.8970 H   0  0  0  0  0  0  0  0  0  0  0  0
  122.1188  106.0965  108.9245 H   0  0  0  0  0  0  0  0  0  0  0  0
  121.4645  103.6570  109.5857 H   0  0  0  0  0  0  0  0  0  0  0  0
  123.1333  103.9512  110.0129 H   0  0  0  0  0  0  0  0  0  0  0  0
  123.2178  111.4608  110.7287 H   0  0  0  0  0  0  0  0  0  0  0  0
  1 11  1  0  0  0  0
  1 12  1  0  0  0  0
  1 14  2  0  0  0  0
  2  3  1  0  0  0  0
  2  4  1  0  0  0  0
  3  6  1  0  0  0  0
  4 12  1  0  0  0  0
  5  6  1  0  0  0  0
  5 12  1  0  0  0  0
  6  8  1  0  0  0  0
  7 18  1  0  0  0  0
  8 17  1  0  0  0  0
  9 10  1  0  0  0  0
  9 11  1  0  0  0  0
 10 18  1  0  0  0  0
 11 13  1  0  0  0  0
 15 18  2  0  0  0  0
 16 18  2  0  0  0  0
  2 19  1  0  0  0  0
  2 20  1  0  0  0  0
  3 21  1  0  0  0  0
  3 22  1  0  0  0  0
  4 23  1  0  0  0  0
  4 24  1  0  0  0  0
  5 25  1  0  0  0  0
  5 26  1  0  0  0  0
  6 27  1  0  0  0  0
  7 28  1  0  0  0  0
  7 29  1  0  0  0  0
  7 30  1  0  0  0  0
  8 31  1  0  0  0  0
  8 32  1  0  0  0  0
  9 33  1  0  0  0  0
  9 34  1  0  0  0  0
 10 35  1  0  0  0  0
 10 36  1  0  0  0  0
 11 37  1  0  0  0  0
 13 38  1  0  0  0  0
 13 39  1  0  0  0  0
 17 40  1  0  0  0  0
M  END
> <FRED Chemgauss4 score>
-8.581873

$$$$
C88001846	P137647841
  -OEChem-05122015313D

 30 31  0     1  0  0  0  0  0999 V2000
  123.5616  106.6553  105.6997 C   0  0  0  0  0  0  0  0  0  0  0  0
  124.6155  107.8578  107.1669 C   0  0  0  0  0  0  0  0  0  0  0  0
  125.3640  104.9507  108.5151 C   0  0  0  0  0  0  0  0  0  0  0  0
  124.6372  104.1208  107.5038 C   0  0  0  0  0  0  0  0  0  0  0  0
  124.0714  105.4582  107.9202 C   0  0  0  0  0  0  0  0  0  0  0  0
  122.8827  105.5057  105.0750 C   0  0  0  0  0  0  0  0  0  0  0  0
  123.8955  108.4549  111.1310 C   0  0  0  0  0  0  0  0  0  0  0  0
  124.6315  109.4516  109.1341 C   0  0  0  0  0  0  0  0  0  0  0  0
  125.3053  108.2572  108.4535 C   0  0  2  0  0  0  0  0  0  0  0  0
  123.7622  107.8401  105.1684 N   0  0  0  0  0  0  0  0  0  0  0  0
  124.4327  108.6052  106.1018 N   0  0  0  0  0  0  0  0  0  0  0  0
  124.0827  106.6220  106.9576 N   0  0  0  0  0  0  0  0  0  0  0  0
  126.7066  108.5376  108.2237 N   0  0  0  0  0  0  0  0  0  0  0  0
  123.5056  108.9946  109.8766 O   0  0  0  0  0  0  0  0  0  0  0  0
  125.3483  104.6193  109.5462 H   0  0  0  0  0  0  0  0  0  0  0  0
  126.2918  105.4187  108.2086 H   0  0  0  0  0  0  0  0  0  0  0  0
  125.0762  104.0299  106.5177 H   0  0  0  0  0  0  0  0  0  0  0  0
  124.1294  103.2298  107.8525 H   0  0  0  0  0  0  0  0  0  0  0  0
  123.1985  105.4731  108.5358 H   0  0  0  0  0  0  0  0  0  0  0  0
  123.5973  104.8710  104.5243 H   0  0  0  0  0  0  0  0  0  0  0  0
  122.3752  104.8676  105.8196 H   0  0  0  0  0  0  0  0  0  0  0  0
  122.0999  105.8217  104.3632 H   0  0  0  0  0  0  0  0  0  0  0  0
  123.0099  108.1147  111.6733 H   0  0  0  0  0  0  0  0  0  0  0  0
  124.4195  109.2192  111.7105 H   0  0  0  0  0  0  0  0  0  0  0  0
  124.5638  107.6074  110.9611 H   0  0  0  0  0  0  0  0  0  0  0  0
  125.3161  109.9389  109.8369 H   0  0  0  0  0  0  0  0  0  0  0  0
  124.2856  110.1954  108.4081 H   0  0  0  0  0  0  0  0  0  0  0  0
  125.2960  107.4099  109.1508 H   0  0  0  0  0  0  0  0  0  0  0  0
  127.1995  107.9990  107.5358 H   0  0  0  0  0  0  0  0  0  0  0  0
  127.1984  109.1095  108.8851 H   0  0  0  0  0  0  0  0  0  0  0  0
  1  6  1  0  0  0  0
  1 10  2  0  0  0  0
  1 12  1  0  0  0  0
  2  9  1  0  0  0  0
  2 11  2  0  0  0  0
  2 12  1  0  0  0  0
  3  4  1  0  0  0  0
  3  5  1  0  0  0  0
  4  5  1  0  0  0  0
  5 12  1  0  0  0  0
  7 14  1  0  0  0  0
  8  9  1  0  0  0  0
  8 14  1  0  0  0  0
  9 13  1  0  0  0  0
 10 11  1  0  0  0  0
  3 15  1  0  0  0  0
  3 16  1  0  0  0  0
  4 17  1  0  0  0  0
  4 18  1  0  0  0  0
  5 19  1  0  0  0  0
  6 20  1  0  0  0  0
  6 21  1  0  0  0  0
  6 22  1  0  0  0  0
  7 23  1  0  0  0  0
  7 24  1  0  0  0  0
  7 25  1  0  0  0  0
  8 26  1  0  0  0  0
  8 27  1  0  0  0  0
  9 28  1  0  0  0  0
 13 29  1  0  0  0  0
 13 30  1  0  0  0  0
M  END
> <FRED Chemgauss4 score>
-8.580604

$$$$
C22061976	P32822232
  -OEChem-05122015313D

 23 23  0     1  0  0  0  0  0999 V2000
  124.3847  106.9093  106.5921 C   0  0  0  0  0  0  0  0  0  0  0  0
  125.8786  107.0872  106.3765 C   0  0  2  0  0  0  0  0  0  0  0  0
  126.6125  107.4840  107.6612 C   0  0  2  0  0  0  0  0  0  0  0  0
  126.1002  106.7703  108.9279 C   0  0  1  0  0  0  0  0  0  0  0  0
  125.0689  105.6687  108.6493 C   0  0  2  0  0  0  0  0  0  0  0  0
  125.6573  104.3304  108.2021 C   0  0  0  0  0  0  0  0  0  0  0  0
  124.0691  106.1652  107.7136 N   0  0  0  0  0  0  0  0  0  0  0  0
  123.5427  107.3543  105.8154 O   0  0  0  0  0  0  0  0  0  0  0  0
  126.1316  108.0357  105.3554 O   0  0  0  0  0  0  0  0  0  0  0  0
  126.4524  108.8952  107.8589 O   0  0  0  0  0  0  0  0  0  0  0  0
  127.2005  106.2405  109.6620 O   0  0  0  0  0  0  0  0  0  0  0  0
  126.1295  103.6422  109.3455 O   0  0  0  0  0  0  0  0  0  0  0  0
  126.2593  106.1180  106.0425 H   0  0  0  0  0  0  0  0  0  0  0  0
  127.6915  107.3131  107.5281 H   0  0  0  0  0  0  0  0  0  0  0  0
  125.6210  107.5274  109.5979 H   0  0  0  0  0  0  0  0  0  0  0  0
  124.5059  105.5085  109.5821 H   0  0  0  0  0  0  0  0  0  0  0  0
  126.4860  104.5004  107.5153 H   0  0  0  0  0  0  0  0  0  0  0  0
  124.8893  103.7323  107.7123 H   0  0  0  0  0  0  0  0  0  0  0  0
  123.1105  105.9601  107.8878 H   0  0  0  0  0  0  0  0  0  0  0  0
  125.7159  107.6979  104.5442 H   0  0  0  0  0  0  0  0  0  0  0  0
  126.9261  109.1131  108.6759 H   0  0  0  0  0  0  0  0  0  0  0  0
  127.7642  106.9939  109.8961 H   0  0  0  0  0  0  0  0  0  0  0  0
  126.4983  102.7964  109.0380 H   0  0  0  0  0  0  0  0  0  0  0  0
  1  2  1  0  0  0  0
  1  7  1  0  0  0  0
  1  8  2  0  0  0  0
  2  3  1  0  0  0  0
  2  9  1  0  0  0  0
  3  4  1  0  0  0  0
  3 10  1  0  0  0  0
  4  5  1  0  0  0  0
  4 11  1  0  0  0  0
  5  6  1  0  0  0  0
  5  7  1  0  0  0  0
  6 12  1  0  0  0  0
  2 13  1  0  0  0  0
  3 14  1  0  0  0  0
  4 15  1  0  0  0  0
  5 16  1  0  0  0  0
  6 17  1  0  0  0  0
  6 18  1  0  0  0  0
  7 19  1  0  0  0  0
  9 20  1  0  0  0  0
 10 21  1  0  0  0  0
 11 22  1  0  0  0  0
 12 23  1  0  0  0  0
M  END
> <FRED Chemgauss4 score>
-8.579728

$$$$
C93827756	P147015387
  -OEChem-05122015313D

 49 50  0     1  0  0  0  0  0999 V2000
  125.4778  108.3618  107.1658 C   0  0  0  0  0  0  0  0  0  0  0  0
  122.6829  108.1090  108.8413 C   0  0  0  0  0  0  0  0  0  0  0  0
  124.1082  107.6556  109.1380 C   0  0  0  0  0  0  0  0  0  0  0  0
  123.4377  106.9418  106.8807 C   0  0  0  0  0  0  0  0  0  0  0  0
  120.0593  108.1229  108.0142 C   0  0  0  0  0  0  0  0  0  0  0  0
  118.8908  106.2919  106.5365 C   0  0  0  0  0  0  0  0  0  0  0  0
  122.2284  107.0828  107.8111 C   0  0  2  0  0  0  0  0  0  0  0  0
  120.4153  106.3690  106.3554 C   0  0  1  0  0  0  0  0  0  0  0  0
  118.8320  108.5832  107.2134 C   0  0  2  0  0  0  0  0  0  0  0  0
  124.6654  107.2458  107.7640 C   0  0  1  0  0  0  0  0  0  0  0  0
  117.7250  109.0750  108.1374 C   0  0  0  0  0  0  0  0  0  0  0  0
  120.2665  105.4358  104.0416 C   0  0  0  0  0  0  0  0  0  0  0  0
  125.8456  103.7992  108.5530 C   0  0  0  0  0  0  0  0  0  0  0  0
  120.7725  106.5622  104.8784 C   0  0  0  0  0  0  0  0  0  0  0  0
  124.9127  104.9567  108.4418 C   0  0  0  0  0  0  0  0  0  0  0  0
  121.0150  107.4879  107.1063 N   0  0  1  0  0  0  0  0  0  0  0  0
  126.5569  108.7344  107.9320 N   0  0  0  0  0  0  0  0  0  0  0  0
  125.5788  106.1147  107.8618 N   0  0  0  0  0  0  0  0  0  0  0  0
  125.1944  108.8675  106.0826 O   0  0  0  0  0  0  0  0  0  0  0  0
  118.2844  107.5679  106.3641 O   0  0  0  0  0  0  0  0  0  0  0  0
  122.0558  108.1086  109.7382 H   0  0  0  0  0  0  0  0  0  0  0  0
  122.6858  109.1237  108.4241 H   0  0  0  0  0  0  0  0  0  0  0  0
  124.6877  108.4434  109.6310 H   0  0  0  0  0  0  0  0  0  0  0  0
  124.0701  106.7978  109.8227 H   0  0  0  0  0  0  0  0  0  0  0  0
  123.4628  105.9357  106.4444 H   0  0  0  0  0  0  0  0  0  0  0  0
  123.3754  107.6448  106.0394 H   0  0  0  0  0  0  0  0  0  0  0  0
  120.5115  108.9942  108.4940 H   0  0  0  0  0  0  0  0  0  0  0  0
  119.7496  107.4198  108.7934 H   0  0  0  0  0  0  0  0  0  0  0  0
  118.4324  105.5733  105.8413 H   0  0  0  0  0  0  0  0  0  0  0  0
  118.6494  105.9541  107.5525 H   0  0  0  0  0  0  0  0  0  0  0  0
  122.0505  106.1216  108.3134 H   0  0  0  0  0  0  0  0  0  0  0  0
  120.8754  105.4311  106.6930 H   0  0  0  0  0  0  0  0  0  0  0  0
  119.1172  109.4575  106.5622 H   0  0  0  0  0  0  0  0  0  0  0  0
  117.4035  108.2689  108.7974 H   0  0  0  0  0  0  0  0  0  0  0  0
  116.8706  109.4124  107.5502 H   0  0  0  0  0  0  0  0  0  0  0  0
  118.0864  109.9055  108.7445 H   0  0  0  0  0  0  0  0  0  0  0  0
  120.7029  104.4942  104.3951 H   0  0  0  0  0  0  0  0  0  0  0  0
  120.5500  105.5685  102.9921 H   0  0  0  0  0  0  0  0  0  0  0  0
  119.1768  105.3530  104.1129 H   0  0  0  0  0  0  0  0  0  0  0  0
  126.2221  103.5046  107.5674 H   0  0  0  0  0  0  0  0  0  0  0  0
  126.6918  104.0412  109.2052 H   0  0  0  0  0  0  0  0  0  0  0  0
  125.3203  102.9390  108.9849 H   0  0  0  0  0  0  0  0  0  0  0  0
  120.3418  107.5034  104.5320 H   0  0  0  0  0  0  0  0  0  0  0  0
  121.8576  106.6344  104.7850 H   0  0  0  0  0  0  0  0  0  0  0  0
  124.5406  105.2456  109.4294 H   0  0  0  0  0  0  0  0  0  0  0  0
  124.0602  104.7081  107.8029 H   0  0  0  0  0  0  0  0  0  0  0  0
  126.7217  108.2510  108.8088 H   0  0  0  0  0  0  0  0  0  0  0  0
  127.1951  109.4735  107.6558 H   0  0  0  0  0  0  0  0  0  0  0  0
  125.9172  105.8759  106.9303 H   0  0  0  0  0  0  0  0  0  0  0  0
  1 10  1  0  0  0  0
  1 17  1  0  0  0  0
  1 19  2  0  0  0  0
  2  3  1  0  0  0  0
  2  7  1  0  0  0  0
  3 10  1  0  0  0  0
  4  7  1  0  0  0  0
  4 10  1  0  0  0  0
  5  9  1  0  0  0  0
  5 16  1  0  0  0  0
  6  8  1  0  0  0  0
  6 20  1  0  0  0  0
  7 16  1  0  0  0  0
  8 14  1  0  0  0  0
  8 16  1  0  0  0  0
  9 11  1  0  0  0  0
  9 20  1  0  0  0  0
 10 18  1  0  0  0  0
 12 14  1  0  0  0  0
 13 15  1  0  0  0  0
 15 18  1  0  0  0  0
  2 21  1  0  0  0  0
  2 22  1  0  0  0  0
  3 23  1  0  0  0  0
  3 24  1  0  0  0  0
  4 25  1  0  0  0  0
  4 26  1  0  0  0  0
  5 27  1  0  0  0  0
  5 28  1  0  0  0  0
  6 29  1  0  0  0  0
  6 30  1  0  0  0  0
  7 31  1  0  0  0  0
  8 32  1  0  0  0  0
  9 33  1  0  0  0  0
 11 34  1  0  0  0  0
 11 35  1  0  0  0  0
 11 36  1  0  0  0  0
 12 37  1  0  0  0  0
 12 38  1  0  0  0  0
 12 39  1  0  0  0  0
 13 40  1  0  0  0  0
 13 41  1  0  0  0  0
 13 42  1  0  0  0  0
 14 43  1  0  0  0  0
 14 44  1  0  0  0  0
 15 45  1  0  0  0  0
 15 46  1  0  0  0  0
 17 47  1  0  0  0  0
 17 48  1  0  0  0  0
 18 49  1  0  0  0  0
M  END
> <FRED Chemgauss4 score>
-8.577107

$$$$
C82432959	P128823808
  -OEChem-05122015313D

 31 32  0     1  0  0  0  0  0999 V2000
  119.9075  104.1685  106.7202 C   0  0  0  0  0  0  0  0  0  0  0  0
  118.5325  105.7550  106.3694 C   0  0  0  0  0  0  0  0  0  0  0  0
  120.5692  105.3164  107.0877 C   0  0  0  0  0  0  0  0  0  0  0  0
  124.8568  108.5559  108.0058 C   0  0  0  0  0  0  0  0  0  0  0  0
  124.2292  107.5174  108.9143 C   0  0  0  0  0  0  0  0  0  0  0  0
  124.4652  106.0729  108.4947 C   0  0  0  0  0  0  0  0  0  0  0  0
  125.1788  106.7984  106.2349 C   0  0  0  0  0  0  0  0  0  0  0  0
  124.2479  105.8625  106.9974 C   0  0  2  0  0  0  0  0  0  0  0  0
  119.8839  107.7352  107.0816 C   0  0  0  0  0  0  0  0  0  0  0  0
  121.9511  105.5413  107.6298 C   0  0  0  0  0  0  0  0  0  0  0  0
  118.6402  104.4484  106.2736 N   0  0  0  0  0  0  0  0  0  0  0  0
  119.6759  106.3243  106.8570 N   0  0  0  0  0  0  0  0  0  0  0  0
  125.1536  108.1671  106.7190 N   0  0  0  0  0  0  0  0  0  0  0  0
  122.8502  106.0830  106.6215 N   0  0  0  0  0  0  0  0  0  0  0  0
  125.0144  109.7143  108.3968 O   0  0  0  0  0  0  0  0  0  0  0  0
  120.2770  103.1537  106.7534 H   0  0  0  0  0  0  0  0  0  0  0  0
  117.6611  106.3377  106.1034 H   0  0  0  0  0  0  0  0  0  0  0  0
  124.6399  107.6816  109.9186 H   0  0  0  0  0  0  0  0  0  0  0  0
  123.1506  107.7085  108.9627 H   0  0  0  0  0  0  0  0  0  0  0  0
  125.4924  105.7770  108.7831 H   0  0  0  0  0  0  0  0  0  0  0  0
  123.7907  105.4095  109.0724 H   0  0  0  0  0  0  0  0  0  0  0  0
  126.2199  106.4504  106.2903 H   0  0  0  0  0  0  0  0  0  0  0  0
  124.9094  106.8458  105.1691 H   0  0  0  0  0  0  0  0  0  0  0  0
  124.5123  104.8127  106.7475 H   0  0  0  0  0  0  0  0  0  0  0  0
  119.5694  107.9641  108.1032 H   0  0  0  0  0  0  0  0  0  0  0  0
  120.9425  107.9735  106.9450 H   0  0  0  0  0  0  0  0  0  0  0  0
  119.2924  108.3070  106.3611 H   0  0  0  0  0  0  0  0  0  0  0  0
  121.9265  106.2422  108.4713 H   0  0  0  0  0  0  0  0  0  0  0  0
  122.3858  104.6061  107.9981 H   0  0  0  0  0  0  0  0  0  0  0  0
  125.3740  108.9011  106.0502 H   0  0  0  0  0  0  0  0  0  0  0  0
  122.6702  105.6270  105.7285 H   0  0  0  0  0  0  0  0  0  0  0  0
  1  3  2  0  0  0  0
  1 11  1  0  0  0  0
  2 11  2  0  0  0  0
  2 12  1  0  0  0  0
  3 10  1  0  0  0  0
  3 12  1  0  0  0  0
  4  5  1  0  0  0  0
  4 13  1  0  0  0  0
  4 15  2  0  0  0  0
  5  6  1  0  0  0  0
  6  8  1  0  0  0  0
  7  8  1  0  0  0  0
  7 13  1  0  0  0  0
  8 14  1  0  0  0  0
  9 12  1  0  0  0  0
 10 14  1  0  0  0  0
  1 16  1  0  0  0  0
  2 17  1  0  0  0  0
  5 18  1  0  0  0  0
  5 19  1  0  0  0  0
  6 20  1  0  0  0  0
  6 21  1  0  0  0  0
  7 22  1  0  0  0  0
  7 23  1  0  0  0  0
  8 24  1  0  0  0  0
  9 25  1  0  0  0  0
  9 26  1  0  0  0  0
  9 27  1  0  0  0  0
 10 28  1  0  0  0  0
 10 29  1  0  0  0  0
 13 30  1  0  0  0  0
 14 31  1  0  0  0  0
M  END
> <FRED Chemgauss4 score>
-8.567826

$$$$
C89190673	P139492299
  -OEChem-05122015313D

 36 37  0     1  0  0  0  0  0999 V2000
  123.9989  104.8968  106.8625 C   0  0  0  0  0  0  0  0  0  0  0  0
  123.9624  107.1866  106.0928 C   0  0  0  0  0  0  0  0  0  0  0  0
  125.3049  105.0714  107.3201 C   0  0  0  0  0  0  0  0  0  0  0  0
  125.2684  107.3612  106.5504 C   0  0  0  0  0  0  0  0  0  0  0  0
  118.8623  103.9507  106.1678 C   0  0  0  0  0  0  0  0  0  0  0  0
  123.3276  105.9543  106.2489 C   0  0  0  0  0  0  0  0  0  0  0  0
  125.9397  106.3036  107.1640 C   0  0  0  0  0  0  0  0  0  0  0  0
  117.5275  104.3382  105.9441 C   0  0  0  0  0  0  0  0  0  0  0  0
  119.4978  105.1091  106.5430 C   0  0  0  0  0  0  0  0  0  0  0  0
  116.4052  103.4855  105.5175 C   0  0  0  0  0  0  0  0  0  0  0  0
  121.8243  104.6412  104.6840 C   0  0  0  0  0  0  0  0  0  0  0  0
  118.7191  107.4794  106.8424 C   0  0  0  0  0  0  0  0  0  0  0  0
  120.9397  105.3749  106.9213 C   0  0  0  0  0  0  0  0  0  0  0  0
  121.8873  105.7628  105.7459 C   0  0  1  0  0  0  0  0  0  0  0  0
  117.3257  105.6408  106.1592 N   0  0  0  0  0  0  0  0  0  0  0  0
  118.5422  106.0820  106.5222 N   0  0  0  0  0  0  0  0  0  0  0  0
  121.3746  106.9610  105.0852 N   0  0  0  0  0  0  0  0  0  0  0  0
  127.5508  106.5187  107.7287 Cl  0  0  0  0  0  0  0  0  0  0  0  0
  123.5112  103.9336  106.9877 H   0  0  0  0  0  0  0  0  0  0  0  0
  123.4462  108.0157  105.6160 H   0  0  0  0  0  0  0  0  0  0  0  0
  125.8153  104.2383  107.7966 H   0  0  0  0  0  0  0  0  0  0  0  0
  125.7504  108.3269  106.4218 H   0  0  0  0  0  0  0  0  0  0  0  0
  119.3031  102.9690  106.0702 H   0  0  0  0  0  0  0  0  0  0  0  0
  115.8770  103.0545  106.3854 H   0  0  0  0  0  0  0  0  0  0  0  0
  115.6619  104.0425  104.9194 H   0  0  0  0  0  0  0  0  0  0  0  0
  116.7374  102.6463  104.8804 H   0  0  0  0  0  0  0  0  0  0  0  0
  120.8111  104.4774  104.3029 H   0  0  0  0  0  0  0  0  0  0  0  0
  122.4717  104.8695  103.8282 H   0  0  0  0  0  0  0  0  0  0  0  0
  122.1665  103.6863  105.1021 H   0  0  0  0  0  0  0  0  0  0  0  0
  118.9852  108.0053  105.9217 H   0  0  0  0  0  0  0  0  0  0  0  0
  117.7888  107.8790  107.2556 H   0  0  0  0  0  0  0  0  0  0  0  0
  119.5143  107.5819  107.5860 H   0  0  0  0  0  0  0  0  0  0  0  0
  120.9465  106.1712  107.6795 H   0  0  0  0  0  0  0  0  0  0  0  0
  121.3290  104.4870  107.4391 H   0  0  0  0  0  0  0  0  0  0  0  0
  121.6054  107.1018  104.1260 H   0  0  0  0  0  0  0  0  0  0  0  0
  120.9937  107.6837  105.6560 H   0  0  0  0  0  0  0  0  0  0  0  0
  1  3  2  0  0  0  0
  1  6  1  0  0  0  0
  2  4  1  0  0  0  0
  2  6  2  0  0  0  0
  3  7  1  0  0  0  0
  4  7  2  0  0  0  0
  5  8  1  0  0  0  0
  5  9  2  0  0  0  0
  6 14  1  0  0  0  0
  7 18  1  0  0  0  0
  8 10  1  0  0  0  0
  8 15  2  0  0  0  0
  9 13  1  0  0  0  0
  9 16  1  0  0  0  0
 11 14  1  0  0  0  0
 12 16  1  0  0  0  0
 13 14  1  0  0  0  0
 14 17  1  0  0  0  0
 15 16  1  0  0  0  0
  1 19  1  0  0  0  0
  2 20  1  0  0  0  0
  3 21  1  0  0  0  0
  4 22  1  0  0  0  0
  5 23  1  0  0  0  0
 10 24  1  0  0  0  0
 10 25  1  0  0  0  0
 10 26  1  0  0  0  0
 11 27  1  0  0  0  0
 11 28  1  0  0  0  0
 11 29  1  0  0  0  0
 12 30  1  0  0  0  0
 12 31  1  0  0  0  0
 12 32  1  0  0  0  0
 13 33  1  0  0  0  0
 13 34  1  0  0  0  0
 17 35  1  0  0  0  0
 17 36  1  0  0  0  0
M  END
> <FRED Chemgauss4 score>
-8.565735

$$$$
C87395652	P136731630
  -OEChem-05122015313D

 26 27  0     1  0  0  0  0  0999 V2000
  124.7954  106.3703  106.3472 C   0  0  0  0  0  0  0  0  0  0  0  0
  124.7550  105.1674  107.0118 C   0  0  0  0  0  0  0  0  0  0  0  0
  116.9102  104.1145  105.5572 C   0  0  0  0  0  0  0  0  0  0  0  0
  116.8675  105.4459  105.9143 C   0  0  0  0  0  0  0  0  0  0  0  0
  122.8341  105.6084  106.0257 C   0  0  0  0  0  0  0  0  0  0  0  0
  118.9803  105.0544  106.3533 C   0  0  0  0  0  0  0  0  0  0  0  0
  115.6786  106.3187  105.8479 C   0  0  0  0  0  0  0  0  0  0  0  0
  120.4141  105.2654  106.7833 C   0  0  0  0  0  0  0  0  0  0  0  0
  121.3936  105.3910  105.5950 C   0  0  1  0  0  0  0  0  0  0  0  0
  123.5965  106.6393  105.7357 N   0  0  0  0  0  0  0  0  0  0  0  0
  118.0535  105.9865  106.3715 N   0  0  0  0  0  0  0  0  0  0  0  0
  123.4922  104.6914  106.7972 N   0  0  0  0  0  0  0  0  0  0  0  0
  120.9451  106.4677  104.7016 N   0  0  0  0  0  0  0  0  0  0  0  0
  118.4951  103.5049  105.7976 S   0  0  0  0  0  0  0  0  0  0  0  0
  125.6263  107.0570  106.2791 H   0  0  0  0  0  0  0  0  0  0  0  0
  125.4827  104.6244  107.5970 H   0  0  0  0  0  0  0  0  0  0  0  0
  116.1148  103.4885  105.1780 H   0  0  0  0  0  0  0  0  0  0  0  0
  115.1099  106.2875  106.7916 H   0  0  0  0  0  0  0  0  0  0  0  0
  115.9482  107.3707  105.6535 H   0  0  0  0  0  0  0  0  0  0  0  0
  114.9943  106.0240  105.0340 H   0  0  0  0  0  0  0  0  0  0  0  0
  120.7006  104.4116  107.4134 H   0  0  0  0  0  0  0  0  0  0  0  0
  120.4768  106.1439  107.4390 H   0  0  0  0  0  0  0  0  0  0  0  0
  121.3456  104.4657  105.0067 H   0  0  0  0  0  0  0  0  0  0  0  0
  123.1158  103.8188  107.1437 H   0  0  0  0  0  0  0  0  0  0  0  0
  119.9672  106.6119  104.6095 H   0  0  0  0  0  0  0  0  0  0  0  0
  121.6148  106.8612  104.0830 H   0  0  0  0  0  0  0  0  0  0  0  0
  1  2  2  0  0  0  0
  1 10  1  0  0  0  0
  2 12  1  0  0  0  0
  3  4  2  0  0  0  0
  3 14  1  0  0  0  0
  4  7  1  0  0  0  0
  4 11  1  0  0  0  0
  5  9  1  0  0  0  0
  5 10  2  0  0  0  0
  5 12  1  0  0  0  0
  6  8  1  0  0  0  0
  6 11  2  0  0  0  0
  6 14  1  0  0  0  0
  8  9  1  0  0  0  0
  9 13  1  0  0  0  0
  1 15  1  0  0  0  0
  2 16  1  0  0  0  0
  3 17  1  0  0  0  0
  7 18  1  0  0  0  0
  7 19  1  0  0  0  0
  7 20  1  0  0  0  0
  8 21  1  0  0  0  0
  8 22  1  0  0  0  0
  9 23  1  0  0  0  0
 12 24  1  0  0  0  0
 13 25  1  0  0  0  0
 13 26  1  0  0  0  0
M  END
> <FRED Chemgauss4 score>
-8.563019

$$$$
C97761907	P155131893
  -OEChem-05122015313D

 49 51  0     1  0  0  0  0  0999 V2000
  123.5647  106.6811  106.4328 C   0  0  0  0  0  0  0  0  0  0  0  0
  124.5990  106.8747  105.4976 C   0  0  0  0  0  0  0  0  0  0  0  0
  124.2144  106.4062  107.6113 C   0  0  0  0  0  0  0  0  0  0  0  0
  117.2090  108.9031  105.2898 C   0  0  0  0  0  0  0  0  0  0  0  0
  117.5951  108.6684  103.8200 C   0  0  0  0  0  0  0  0  0  0  0  0
  117.2018  107.3772  105.4784 C   0  0  0  0  0  0  0  0  0  0  0  0
  119.5822  104.7619  103.9466 C   0  0  0  0  0  0  0  0  0  0  0  0
  119.6327  107.2216  104.4855 C   0  0  0  0  0  0  0  0  0  0  0  0
  118.0850  104.8835  103.6957 C   0  0  0  0  0  0  0  0  0  0  0  0
  120.0522  105.8204  104.9545 C   0  0  2  0  0  0  0  0  0  0  0  0
  118.1223  107.2592  104.2245 C   0  0  0  0  0  0  0  0  0  0  0  0
  124.4736  107.1981  104.0655 C   0  0  0  0  0  0  0  0  0  0  0  0
  123.6991  106.1101  108.9614 C   0  0  0  0  0  0  0  0  0  0  0  0
  126.6418  106.2267  108.2365 C   0  0  0  0  0  0  0  0  0  0  0  0
  122.0752  106.7569  106.1969 C   0  0  0  0  0  0  0  0  0  0  0  0
  121.5643  105.7456  105.1535 C   0  0  1  0  0  0  0  0  0  0  0  0
  125.8135  106.7349  106.0357 N   0  0  0  0  0  0  0  0  0  0  0  0
  125.5464  106.4506  107.3217 N   0  0  0  0  0  0  0  0  0  0  0  0
  121.2439  104.1356  106.8184 N   0  0  0  0  0  0  0  0  0  0  0  0
  121.9082  104.3864  105.5834 N   0  0  0  0  0  0  0  0  0  0  0  0
  117.7651  106.2116  103.2877 O   0  0  0  0  0  0  0  0  0  0  0  0
  117.9818  109.4162  105.8730 H   0  0  0  0  0  0  0  0  0  0  0  0
  116.2521  109.4049  105.4536 H   0  0  0  0  0  0  0  0  0  0  0  0
  116.7358  108.6395  103.1394 H   0  0  0  0  0  0  0  0  0  0  0  0
  118.3331  109.3679  103.4169 H   0  0  0  0  0  0  0  0  0  0  0  0
  117.6189  107.0277  106.4268 H   0  0  0  0  0  0  0  0  0  0  0  0
  116.2124  106.9238  105.3447 H   0  0  0  0  0  0  0  0  0  0  0  0
  119.8189  103.7544  104.3065 H   0  0  0  0  0  0  0  0  0  0  0  0
  120.1159  104.9074  102.9986 H   0  0  0  0  0  0  0  0  0  0  0  0
  119.9221  107.9659  105.2372 H   0  0  0  0  0  0  0  0  0  0  0  0
  120.1680  107.4785  103.5622 H   0  0  0  0  0  0  0  0  0  0  0  0
  117.7779  104.2003  102.8981 H   0  0  0  0  0  0  0  0  0  0  0  0
  117.5096  104.6320  104.5934 H   0  0  0  0  0  0  0  0  0  0  0  0
  119.5725  105.6115  105.9196 H   0  0  0  0  0  0  0  0  0  0  0  0
  124.4554  108.2890  103.9021 H   0  0  0  0  0  0  0  0  0  0  0  0
  125.3082  106.7862  103.4710 H   0  0  0  0  0  0  0  0  0  0  0  0
  123.5520  106.7797  103.6234 H   0  0  0  0  0  0  0  0  0  0  0  0
  123.5451  105.0271  109.1002 H   0  0  0  0  0  0  0  0  0  0  0  0
  124.3874  106.4540  109.7527 H   0  0  0  0  0  0  0  0  0  0  0  0
  122.7359  106.6127  109.1571 H   0  0  0  0  0  0  0  0  0  0  0  0
  126.8815  105.1602  108.2211 H   0  0  0  0  0  0  0  0  0  0  0  0
  127.5062  106.8175  107.9209 H   0  0  0  0  0  0  0  0  0  0  0  0
  126.3428  106.5380  109.2413 H   0  0  0  0  0  0  0  0  0  0  0  0
  121.5414  106.6208  107.1471 H   0  0  0  0  0  0  0  0  0  0  0  0
  121.8437  107.7814  105.8739 H   0  0  0  0  0  0  0  0  0  0  0  0
  122.0525  105.9232  104.1875 H   0  0  0  0  0  0  0  0  0  0  0  0
  120.6363  104.9221  107.0462 H   0  0  0  0  0  0  0  0  0  0  0  0
  120.6268  103.3339  106.6948 H   0  0  0  0  0  0  0  0  0  0  0  0
  122.9134  104.3268  105.7185 H   0  0  0  0  0  0  0  0  0  0  0  0
  1  2  1  0  0  0  0
  1  3  2  0  0  0  0
  1 15  1  0  0  0  0
  2 12  1  0  0  0  0
  2 17  2  0  0  0  0
  3 13  1  0  0  0  0
  3 18  1  0  0  0  0
  4  5  1  0  0  0  0
  4  6  1  0  0  0  0
  5 11  1  0  0  0  0
  6 11  1  0  0  0  0
  7  9  1  0  0  0  0
  7 10  1  0  0  0  0
  8 10  1  0  0  0  0
  8 11  1  0  0  0  0
  9 21  1  0  0  0  0
 10 16  1  0  0  0  0
 11 21  1  0  0  0  0
 14 18  1  0  0  0  0
 15 16  1  0  0  0  0
 16 20  1  0  0  0  0
 17 18  1  0  0  0  0
 19 20  1  0  0  0  0
  4 22  1  0  0  0  0
  4 23  1  0  0  0  0
  5 24  1  0  0  0  0
  5 25  1  0  0  0  0
  6 26  1  0  0  0  0
  6 27  1  0  0  0  0
  7 28  1  0  0  0  0
  7 29  1  0  0  0  0
  8 30  1  0  0  0  0
  8 31  1  0  0  0  0
  9 32  1  0  0  0  0
  9 33  1  0  0  0  0
 10 34  1  0  0  0  0
 12 35  1  0  0  0  0
 12 36  1  0  0  0  0
 12 37  1  0  0  0  0
 13 38  1  0  0  0  0
 13 39  1  0  0  0  0
 13 40  1  0  0  0  0
 14 41  1  0  0  0  0
 14 42  1  0  0  0  0
 14 43  1  0  0  0  0
 15 44  1  0  0  0  0
 15 45  1  0  0  0  0
 16 46  1  0  0  0  0
 19 47  1  0  0  0  0
 19 48  1  0  0  0  0
 20 49  1  0  0  0  0
M  END
> <FRED Chemgauss4 score>
-8.562449

$$$$
C77293168	P120587004
  -OEChem-05122015313D

 28 28  0     1  0  0  0  0  0999 V2000
  126.9442  106.5991  107.7553 C   0  0  1  0  0  0  0  0  0  0  0  0
  125.9384  105.8705  108.6432 C   0  0  1  0  0  0  0  0  0  0  0  0
  126.3166  107.8482  107.1405 C   0  0  2  0  0  0  0  0  0  0  0  0
  124.6066  105.6394  107.9211 C   0  0  2  0  0  0  0  0  0  0  0  0
  124.9641  107.5451  106.4969 C   0  0  1  0  0  0  0  0  0  0  0  0
  123.2769  104.3473  106.2201 C   0  0  0  0  0  0  0  0  0  0  0  0
  124.6501  104.5619  106.8363 C   0  0  2  0  0  0  0  0  0  0  0  0
  124.0981  106.8745  107.4103 O   0  0  0  0  0  0  0  0  0  0  0  0
  128.0624  107.0057  108.5470 O   0  0  0  0  0  0  0  0  0  0  0  0
  126.5029  104.6361  109.0720 O   0  0  0  0  0  0  0  0  0  0  0  0
  127.1902  108.3663  106.1371 O   0  0  0  0  0  0  0  0  0  0  0  0
  124.3791  108.7910  106.1130 O   0  0  0  0  0  0  0  0  0  0  0  0
  122.3696  103.9692  107.2500 O   0  0  0  0  0  0  0  0  0  0  0  0
  125.0787  103.3398  107.4286 O   0  0  0  0  0  0  0  0  0  0  0  0
  127.3430  105.9348  106.9797 H   0  0  0  0  0  0  0  0  0  0  0  0
  125.7655  106.4771  109.5416 H   0  0  0  0  0  0  0  0  0  0  0  0
  126.2098  108.6303  107.9029 H   0  0  0  0  0  0  0  0  0  0  0  0
  123.8776  105.2945  108.6651 H   0  0  0  0  0  0  0  0  0  0  0  0
  125.0884  106.9568  105.5806 H   0  0  0  0  0  0  0  0  0  0  0  0
  122.8988  105.2662  105.7600 H   0  0  0  0  0  0  0  0  0  0  0  0
  123.2968  103.5466  105.4743 H   0  0  0  0  0  0  0  0  0  0  0  0
  125.3775  104.8328  106.0672 H   0  0  0  0  0  0  0  0  0  0  0  0
  127.7114  107.5933  109.2323 H   0  0  0  0  0  0  0  0  0  0  0  0
  125.8370  104.2054  109.6308 H   0  0  0  0  0  0  0  0  0  0  0  0
  127.2933  107.6657  105.4756 H   0  0  0  0  0  0  0  0  0  0  0  0
  123.5251  108.5782  105.7082 H   0  0  0  0  0  0  0  0  0  0  0  0
  121.5064  103.8403  106.8263 H   0  0  0  0  0  0  0  0  0  0  0  0
  124.4295  103.1220  108.1157 H   0  0  0  0  0  0  0  0  0  0  0  0
  1  2  1  0  0  0  0
  1  3  1  0  0  0  0
  1  9  1  0  0  0  0
  2  4  1  0  0  0  0
  2 10  1  0  0  0  0
  3  5  1  0  0  0  0
  3 11  1  0  0  0  0
  4  7  1  0  0  0  0
  4  8  1  0  0  0  0
  5  8  1  0  0  0  0
  5 12  1  0  0  0  0
  6  7  1  0  0  0  0
  6 13  1  0  0  0  0
  7 14  1  0  0  0  0
  1 15  1  0  0  0  0
  2 16  1  0  0  0  0
  3 17  1  0  0  0  0
  4 18  1  0  0  0  0
  5 19  1  0  0  0  0
  6 20  1  0  0  0  0
  6 21  1  0  0  0  0
  7 22  1  0  0  0  0
  9 23  1  0  0  0  0
 10 24  1  0  0  0  0
 11 25  1  0  0  0  0
 12 26  1  0  0  0  0
 13 27  1  0  0  0  0
 14 28  1  0  0  0  0
M  END
> <FRED Chemgauss4 score>
-8.562265

$$$$
C87602094	P137029746
  -OEChem-05122015313D

 21 22  0     1  0  0  0  0  0999 V2000
  121.1288  104.6813  105.7415 C   0  0  0  0  0  0  0  0  0  0  0  0
  121.7046  105.7678  105.1376 C   0  0  0  0  0  0  0  0  0  0  0  0
  122.7587  106.6191  105.7246 C   0  0  0  0  0  0  0  0  0  0  0  0
  124.4094  107.7059  107.0135 C   0  0  0  0  0  0  0  0  0  0  0  0
  124.7063  108.4904  109.3987 C   0  0  0  0  0  0  0  0  0  0  0  0
  125.3882  108.1493  108.0761 C   0  0  1  0  0  0  0  0  0  0  0  0
  120.2469  104.9381  103.8092 N   0  5  0  0  0  0  0  0  0  0  0  0
  120.2092  104.1465  104.9195 N   0  0  0  0  0  0  0  0  0  0  0  0
  121.1615  105.9443  103.9205 N   0  0  0  0  0  0  0  0  0  0  0  0
  123.2714  107.6517  105.0901 N   0  0  0  0  0  0  0  0  0  0  0  0
  124.2404  108.2885  105.8456 N   0  0  0  0  0  0  0  0  0  0  0  0
  126.4460  107.1280  108.3487 N   0  3  0  0  0  0  0  0  0  0  0  0
  123.4084  106.3404  107.2873 S   0  0  0  0  0  0  0  0  0  0  0  0
  121.3409  104.2737  106.7209 H   0  0  0  0  0  0  0  0  0  0  0  0
  124.1368  107.6440  109.7985 H   0  0  0  0  0  0  0  0  0  0  0  0
  125.4448  108.7803  110.1545 H   0  0  0  0  0  0  0  0  0  0  0  0
  124.0114  109.3283  109.2731 H   0  0  0  0  0  0  0  0  0  0  0  0
  125.9389  109.0315  107.7291 H   0  0  0  0  0  0  0  0  0  0  0  0
  127.3620  107.4819  108.0679 H   0  0  0  0  0  0  0  0  0  0  0  0
  126.2541  106.2709  107.8269 H   0  0  0  0  0  0  0  0  0  0  0  0
  126.4746  106.9036  109.3448 H   0  0  0  0  0  0  0  0  0  0  0  0
  1  2  1  0  0  0  0
  1  8  2  0  0  0  0
  2  3  1  0  0  0  0
  2  9  2  0  0  0  0
  3 10  2  0  0  0  0
  3 13  1  0  0  0  0
  4  6  1  0  0  0  0
  4 11  2  0  0  0  0
  4 13  1  0  0  0  0
  5  6  1  0  0  0  0
  6 12  1  0  0  0  0
  7  8  1  0  0  0  0
  7  9  1  0  0  0  0
 10 11  1  0  0  0  0
  1 14  1  0  0  0  0
  5 15  1  0  0  0  0
  5 16  1  0  0  0  0
  5 17  1  0  0  0  0
  6 18  1  0  0  0  0
 12 19  1  0  0  0  0
 12 20  1  0  0  0  0
 12 21  1  0  0  0  0
M  CHG  2   7  -1  12   1
M  END
> <FRED Chemgauss4 score>
-8.556771

$$$$
C86503752	P135438226
  -OEChem-05122015313D

 33 33  0     0  0  0  0  0  0999 V2000
  123.9236  108.6304  111.1431 C   0  0  0  0  0  0  0  0  0  0  0  0
  123.3036  108.4931  112.3746 C   0  0  0  0  0  0  0  0  0  0  0  0
  121.8514  110.2186  111.9362 C   0  0  0  0  0  0  0  0  0  0  0  0
  123.4590  109.6233  110.2877 C   0  0  0  0  0  0  0  0  0  0  0  0
  122.4035  110.4369  110.6843 C   0  0  0  0  0  0  0  0  0  0  0  0
  122.9056  108.5911  106.7709 C   0  0  0  0  0  0  0  0  0  0  0  0
  123.3252  106.7281  108.4059 C   0  0  0  0  0  0  0  0  0  0  0  0
  126.5136  106.6992  107.3120 C   0  0  0  0  0  0  0  0  0  0  0  0
  124.8483  108.7637  108.4018 C   0  0  0  0  0  0  0  0  0  0  0  0
  123.9802  107.8191  107.5482 C   0  0  0  0  0  0  0  0  0  0  0  0
  122.2758  109.2643  112.7947 N   0  0  0  0  0  0  0  0  0  0  0  0
  121.8966  111.4540  109.8554 N   0  0  0  0  0  0  0  0  0  0  0  0
  124.0603  109.7859  109.0503 N   0  0  0  0  0  0  0  0  0  0  0  0
  124.4480  105.7489  106.0224 O   0  0  0  0  0  0  0  0  0  0  0  0
  125.3785  107.9960  105.3468 O   0  0  0  0  0  0  0  0  0  0  0  0
  125.0588  107.0132  106.3531 S   0  0  0  0  0  0  0  0  0  0  0  0
  124.7447  107.9785  110.8648 H   0  0  0  0  0  0  0  0  0  0  0  0
  123.6281  107.7338  113.0784 H   0  0  0  0  0  0  0  0  0  0  0  0
  121.0257  110.8210  112.3029 H   0  0  0  0  0  0  0  0  0  0  0  0
  123.3544  109.3760  106.1514 H   0  0  0  0  0  0  0  0  0  0  0  0
  122.3499  107.9261  106.0997 H   0  0  0  0  0  0  0  0  0  0  0  0
  122.1807  109.0633  107.4423 H   0  0  0  0  0  0  0  0  0  0  0  0
  124.0682  106.1585  108.9739 H   0  0  0  0  0  0  0  0  0  0  0  0
  122.6209  107.1617  109.1252 H   0  0  0  0  0  0  0  0  0  0  0  0
  122.7613  106.0235  107.7844 H   0  0  0  0  0  0  0  0  0  0  0  0
  127.2466  106.2037  106.6734 H   0  0  0  0  0  0  0  0  0  0  0  0
  126.9021  107.6535  107.6708 H   0  0  0  0  0  0  0  0  0  0  0  0
  126.2411  106.0571  108.1509 H   0  0  0  0  0  0  0  0  0  0  0  0
  125.6094  109.2486  107.7792 H   0  0  0  0  0  0  0  0  0  0  0  0
  125.3881  108.1963  109.1689 H   0  0  0  0  0  0  0  0  0  0  0  0
  121.1040  111.9863  110.1589 H   0  0  0  0  0  0  0  0  0  0  0  0
  122.2732  111.5708  108.9344 H   0  0  0  0  0  0  0  0  0  0  0  0
  123.9425  110.6720  108.5723 H   0  0  0  0  0  0  0  0  0  0  0  0
  1  2  2  0  0  0  0
  1  4  1  0  0  0  0
  2 11  1  0  0  0  0
  3  5  1  0  0  0  0
  3 11  2  0  0  0  0
  4  5  2  0  0  0  0
  4 13  1  0  0  0  0
  5 12  1  0  0  0  0
  6 10  1  0  0  0  0
  7 10  1  0  0  0  0
  8 16  1  0  0  0  0
  9 10  1  0  0  0  0
  9 13  1  0  0  0  0
 10 16  1  0  0  0  0
 14 16  2  0  0  0  0
 15 16  2  0  0  0  0
  1 17  1  0  0  0  0
  2 18  1  0  0  0  0
  3 19  1  0  0  0  0
  6 20  1  0  0  0  0
  6 21  1  0  0  0  0
  6 22  1  0  0  0  0
  7 23  1  0  0  0  0
  7 24  1  0  0  0  0
  7 25  1  0  0  0  0
  8 26  1  0  0  0  0
  8 27  1  0  0  0  0
  8 28  1  0  0  0  0
  9 29  1  0  0  0  0
  9 30  1  0  0  0  0
 12 31  1  0  0  0  0
 12 32  1  0  0  0  0
 13 33  1  0  0  0  0
M  END
> <FRED Chemgauss4 score>
-8.556365

$$$$
C95023555	P148959325
  -OEChem-05122015313D

 33 34  0     1  0  0  0  0  0999 V2000
  119.3864  106.5225  106.6568 C   0  0  0  0  0  0  0  0  0  0  0  0
  118.1434  104.1082  106.0173 C   0  0  0  0  0  0  0  0  0  0  0  0
  120.0864  105.3227  106.7834 C   0  0  0  0  0  0  0  0  0  0  0  0
  119.4650  104.1155  106.4636 C   0  0  0  0  0  0  0  0  0  0  0  0
  118.0648  106.5151  106.2106 C   0  0  0  0  0  0  0  0  0  0  0  0
  117.4433  105.3080  105.8908 C   0  0  0  0  0  0  0  0  0  0  0  0
  123.2538  105.4160  108.6609 C   0  0  0  0  0  0  0  0  0  0  0  0
  121.8056  105.8810  108.5232 C   0  0  0  0  0  0  0  0  0  0  0  0
  122.5319  104.8669  106.4502 C   0  0  0  0  0  0  0  0  0  0  0  0
  123.7480  105.4003  107.2177 C   0  0  2  0  0  0  0  0  0  0  0  0
  126.3333  106.4423  107.4714 C   0  0  0  0  0  0  0  0  0  0  0  0
  124.9981  104.5616  107.0205 C   0  0  0  0  0  0  0  0  0  0  0  0
  121.3915  105.3517  107.2261 N   0  0  3  0  0  0  0  0  0  0  0  0
  120.1559  102.8891  106.5848 N   0  0  0  0  0  0  0  0  0  0  0  0
  126.0391  105.0957  107.8222 O   0  0  0  0  0  0  0  0  0  0  0  0
  117.2502  108.0339  106.0745 Cl  0  0  0  0  0  0  0  0  0  0  0  0
  115.8087  105.2340  105.3328 Cl  0  0  0  0  0  0  0  0  0  0  0  0
  119.8763  107.4612  106.9077 H   0  0  0  0  0  0  0  0  0  0  0  0
  117.6637  103.1634  105.7694 H   0  0  0  0  0  0  0  0  0  0  0  0
  123.8411  106.0779  109.3043 H   0  0  0  0  0  0  0  0  0  0  0  0
  123.2819  104.4077  109.0927 H   0  0  0  0  0  0  0  0  0  0  0  0
  121.1846  105.4979  109.3394 H   0  0  0  0  0  0  0  0  0  0  0  0
  121.7517  106.9757  108.5161 H   0  0  0  0  0  0  0  0  0  0  0  0
  122.5235  105.2516  105.4241 H   0  0  0  0  0  0  0  0  0  0  0  0
  122.5138  103.7716  106.4172 H   0  0  0  0  0  0  0  0  0  0  0  0
  123.9498  106.4319  106.8986 H   0  0  0  0  0  0  0  0  0  0  0  0
  127.1376  106.8182  108.1086 H   0  0  0  0  0  0  0  0  0  0  0  0
  125.4378  107.0563  107.5965 H   0  0  0  0  0  0  0  0  0  0  0  0
  126.6528  106.4760  106.4272 H   0  0  0  0  0  0  0  0  0  0  0  0
  125.3088  104.5842  105.9733 H   0  0  0  0  0  0  0  0  0  0  0  0
  124.8129  103.5277  107.3209 H   0  0  0  0  0  0  0  0  0  0  0  0
  119.6703  102.0375  106.3938 H   0  0  0  0  0  0  0  0  0  0  0  0
  121.0859  102.8901  106.9489 H   0  0  0  0  0  0  0  0  0  0  0  0
  1  3  1  0  0  0  0
  1  5  2  0  0  0  0
  2  4  1  0  0  0  0
  2  6  2  0  0  0  0
  3  4  2  0  0  0  0
  3 13  1  0  0  0  0
  4 14  1  0  0  0  0
  5  6  1  0  0  0  0
  5 16  1  0  0  0  0
  6 17  1  0  0  0  0
  7  8  1  0  0  0  0
  7 10  1  0  0  0  0
  8 13  1  0  0  0  0
  9 10  1  0  0  0  0
  9 13  1  0  0  0  0
 10 12  1  0  0  0  0
 11 15  1  0  0  0  0
 12 15  1  0  0  0  0
  1 18  1  0  0  0  0
  2 19  1  0  0  0  0
  7 20  1  0  0  0  0
  7 21  1  0  0  0  0
  8 22  1  0  0  0  0
  8 23  1  0  0  0  0
  9 24  1  0  0  0  0
  9 25  1  0  0  0  0
 10 26  1  0  0  0  0
 11 27  1  0  0  0  0
 11 28  1  0  0  0  0
 11 29  1  0  0  0  0
 12 30  1  0  0  0  0
 12 31  1  0  0  0  0
 14 32  1  0  0  0  0
 14 33  1  0  0  0  0
M  END
> <FRED Chemgauss4 score>
-8.556339

$$$$
C85418703	P133700532
  -OEChem-05122015313D

 27 27  0     0  0  0  0  0  0999 V2000
  121.1113  105.1111  105.8458 C   0  0  0  0  0  0  0  0  0  0  0  0
  122.0773  106.0789  105.9601 C   0  0  0  0  0  0  0  0  0  0  0  0
  125.2555  109.2200  107.8864 C   0  0  0  0  0  0  0  0  0  0  0  0
  123.0417  106.3238  107.0844 C   0  0  0  0  0  0  0  0  0  0  0  0
  124.6248  107.8551  108.0385 C   0  0  0  0  0  0  0  0  0  0  0  0
  119.4748  104.6461  103.9935 C   0  0  0  0  0  0  0  0  0  0  0  0
  119.9361  103.3341  103.3734 C   0  0  0  0  0  0  0  0  0  0  0  0
  122.0733  106.8664  104.8423 N   0  0  0  0  0  0  0  0  0  0  0  0
  121.1251  106.4150  104.0285 N   0  0  0  0  0  0  0  0  0  0  0  0
  120.5494  105.3627  104.6321 N   0  0  0  0  0  0  0  0  0  0  0  0
  126.4008  109.1853  107.1201 N   0  0  0  0  0  0  0  0  0  0  0  0
  123.6748  107.6414  106.9865 N   0  0  0  0  0  0  0  0  0  0  0  0
  124.7788  110.2512  108.3527 O   0  0  0  0  0  0  0  0  0  0  0  0
  120.9583  103.5888  102.4187 O   0  0  0  0  0  0  0  0  0  0  0  0
  120.7906  104.3040  106.4893 H   0  0  0  0  0  0  0  0  0  0  0  0
  122.5301  106.2665  108.0514 H   0  0  0  0  0  0  0  0  0  0  0  0
  123.8363  105.5703  107.0917 H   0  0  0  0  0  0  0  0  0  0  0  0
  124.0976  107.7727  108.9928 H   0  0  0  0  0  0  0  0  0  0  0  0
  125.3984  107.0853  107.9717 H   0  0  0  0  0  0  0  0  0  0  0  0
  118.6975  104.4755  104.7475 H   0  0  0  0  0  0  0  0  0  0  0  0
  119.0586  105.3080  103.2254 H   0  0  0  0  0  0  0  0  0  0  0  0
  120.3556  102.6853  104.1487 H   0  0  0  0  0  0  0  0  0  0  0  0
  119.1149  102.8068  102.8772 H   0  0  0  0  0  0  0  0  0  0  0  0
  126.7379  108.3135  106.7256 H   0  0  0  0  0  0  0  0  0  0  0  0
  126.9464  110.0175  106.9197 H   0  0  0  0  0  0  0  0  0  0  0  0
  122.9358  108.3545  107.0202 H   0  0  0  0  0  0  0  0  0  0  0  0
  121.2194  102.7287  102.0521 H   0  0  0  0  0  0  0  0  0  0  0  0
  1  2  2  0  0  0  0
  1 10  1  0  0  0  0
  2  4  1  0  0  0  0
  2  8  1  0  0  0  0
  3  5  1  0  0  0  0
  3 11  1  0  0  0  0
  3 13  2  0  0  0  0
  4 12  1  0  0  0  0
  5 12  1  0  0  0  0
  6  7  1  0  0  0  0
  6 10  1  0  0  0  0
  7 14  1  0  0  0  0
  8  9  2  0  0  0  0
  9 10  1  0  0  0  0
  1 15  1  0  0  0  0
  4 16  1  0  0  0  0
  4 17  1  0  0  0  0
  5 18  1  0  0  0  0
  5 19  1  0  0  0  0
  6 20  1  0  0  0  0
  6 21  1  0  0  0  0
  7 22  1  0  0  0  0
  7 23  1  0  0  0  0
 11 24  1  0  0  0  0
 11 25  1  0  0  0  0
 12 26  1  0  0  0  0
 14 27  1  0  0  0  0
M  END
> <FRED Chemgauss4 score>
-8.555038

$$$$
C95836526	P150813888
  -OEChem-05122015313D

 27 27  0     1  0  0  0  0  0999 V2000
  123.8584  107.2443  109.0896 C   0  0  0  0  0  0  0  0  0  0  0  0
  123.4753  108.2080  110.0158 C   0  0  0  0  0  0  0  0  0  0  0  0
  124.9673  108.9473  107.8541 C   0  0  0  0  0  0  0  0  0  0  0  0
  124.6187  107.6127  107.9854 C   0  0  0  0  0  0  0  0  0  0  0  0
  123.8752  109.5159  109.7937 C   0  0  0  0  0  0  0  0  0  0  0  0
  123.6952  111.2286  112.9572 C   0  0  0  0  0  0  0  0  0  0  0  0
  123.3457  110.0727  112.0443 C   0  0  0  0  0  0  0  0  0  0  0  0
  124.5330  106.9100  105.5555 C   0  0  0  0  0  0  0  0  0  0  0  0
  125.0442  106.6055  106.9772 C   0  0  1  0  0  0  0  0  0  0  0  0
  124.6139  109.9118  108.7329 N   0  0  0  0  0  0  0  0  0  0  0  0
  126.4921  106.4459  106.9519 N   0  0  0  0  0  0  0  0  0  0  0  0
  125.3721  107.8754  104.9298 O   0  0  0  0  0  0  0  0  0  0  0  0
  123.5100  110.4838  110.6924 O   0  0  0  0  0  0  0  0  0  0  0  0
  123.5604  106.2097  109.2360 H   0  0  0  0  0  0  0  0  0  0  0  0
  122.8822  107.9367  110.8823 H   0  0  0  0  0  0  0  0  0  0  0  0
  125.5597  109.2939  107.0129 H   0  0  0  0  0  0  0  0  0  0  0  0
  124.7329  111.5412  112.8112 H   0  0  0  0  0  0  0  0  0  0  0  0
  123.0382  112.0835  112.7663 H   0  0  0  0  0  0  0  0  0  0  0  0
  123.5551  110.9478  114.0063 H   0  0  0  0  0  0  0  0  0  0  0  0
  122.3067  109.7650  112.1954 H   0  0  0  0  0  0  0  0  0  0  0  0
  124.0036  109.2197  112.2359 H   0  0  0  0  0  0  0  0  0  0  0  0
  124.5557  106.0033  104.9409 H   0  0  0  0  0  0  0  0  0  0  0  0
  123.5095  107.3003  105.5675 H   0  0  0  0  0  0  0  0  0  0  0  0
  124.6738  105.5991  107.2492 H   0  0  0  0  0  0  0  0  0  0  0  0
  126.9129  106.0806  106.1232 H   0  0  0  0  0  0  0  0  0  0  0  0
  126.9896  106.5098  107.8155 H   0  0  0  0  0  0  0  0  0  0  0  0
  125.0067  108.0284  104.0443 H   0  0  0  0  0  0  0  0  0  0  0  0
  1  2  2  0  0  0  0
  1  4  1  0  0  0  0
  2  5  1  0  0  0  0
  3  4  2  0  0  0  0
  3 10  1  0  0  0  0
  4  9  1  0  0  0  0
  5 10  2  0  0  0  0
  5 13  1  0  0  0  0
  6  7  1  0  0  0  0
  7 13  1  0  0  0  0
  8  9  1  0  0  0  0
  8 12  1  0  0  0  0
  9 11  1  0  0  0  0
  1 14  1  0  0  0  0
  2 15  1  0  0  0  0
  3 16  1  0  0  0  0
  6 17  1  0  0  0  0
  6 18  1  0  0  0  0
  6 19  1  0  0  0  0
  7 20  1  0  0  0  0
  7 21  1  0  0  0  0
  8 22  1  0  0  0  0
  8 23  1  0  0  0  0
  9 24  1  0  0  0  0
 11 25  1  0  0  0  0
 11 26  1  0  0  0  0
 12 27  1  0  0  0  0
M  END
> <FRED Chemgauss4 score>
-8.554212

$$$$
C70590896	P108886031
  -OEChem-05122015313D

 28 28  0     1  0  0  0  0  0999 V2000
  125.0112  107.3102  106.7264 C   0  0  0  0  0  0  0  0  0  0  0  0
  126.1301  107.7211  107.6504 C   0  0  0  0  0  0  0  0  0  0  0  0
  125.5605  105.4068  108.0161 C   0  0  0  0  0  0  0  0  0  0  0  0
  126.1829  106.6117  108.6983 C   0  0  1  0  0  0  0  0  0  0  0  0
  119.1736  103.5446  106.4893 C   0  0  0  0  0  0  0  0  0  0  0  0
  123.7621  105.1705  106.2684 C   0  0  0  0  0  0  0  0  0  0  0  0
  121.3181  104.4459  106.1550 C   0  0  0  0  0  0  0  0  0  0  0  0
  122.3665  105.2824  106.8821 C   0  0  1  0  0  0  0  0  0  0  0  0
  124.7208  105.9776  106.9923 N   0  0  0  0  0  0  0  0  0  0  0  0
  124.5055  108.0397  105.8860 O   0  0  0  0  0  0  0  0  0  0  0  0
  127.5202  106.3244  109.0651 O   0  0  0  0  0  0  0  0  0  0  0  0
  122.4062  104.8655  108.2474 O   0  0  0  0  0  0  0  0  0  0  0  0
  120.0668  104.5985  106.8183 O   0  0  0  0  0  0  0  0  0  0  0  0
  127.0674  107.8179  107.0886 H   0  0  0  0  0  0  0  0  0  0  0  0
  125.8587  108.6838  108.1038 H   0  0  0  0  0  0  0  0  0  0  0  0
  126.3020  104.7385  107.5595 H   0  0  0  0  0  0  0  0  0  0  0  0
  124.9146  104.8404  108.7003 H   0  0  0  0  0  0  0  0  0  0  0  0
  125.6380  106.8892  109.6227 H   0  0  0  0  0  0  0  0  0  0  0  0
  118.2262  103.6920  107.0135 H   0  0  0  0  0  0  0  0  0  0  0  0
  119.6163  102.5876  106.7767 H   0  0  0  0  0  0  0  0  0  0  0  0
  118.9961  103.5526  105.4113 H   0  0  0  0  0  0  0  0  0  0  0  0
  124.1008  104.1294  106.2968 H   0  0  0  0  0  0  0  0  0  0  0  0
  123.7424  105.4886  105.2209 H   0  0  0  0  0  0  0  0  0  0  0  0
  121.5826  103.3841  106.1700 H   0  0  0  0  0  0  0  0  0  0  0  0
  121.1860  104.7781  105.1203 H   0  0  0  0  0  0  0  0  0  0  0  0
  122.0550  106.3337  106.8842 H   0  0  0  0  0  0  0  0  0  0  0  0
  127.8900  107.1448  109.4267 H   0  0  0  0  0  0  0  0  0  0  0  0
  123.0293  105.4568  108.6957 H   0  0  0  0  0  0  0  0  0  0  0  0
  1  2  1  0  0  0  0
  1  9  1  0  0  0  0
  1 10  2  0  0  0  0
  2  4  1  0  0  0  0
  3  4  1  0  0  0  0
  3  9  1  0  0  0  0
  4 11  1  0  0  0  0
  5 13  1  0  0  0  0
  6  8  1  0  0  0  0
  6  9  1  0  0  0  0
  7  8  1  0  0  0  0
  7 13  1  0  0  0  0
  8 12  1  0  0  0  0
  2 14  1  0  0  0  0
  2 15  1  0  0  0  0
  3 16  1  0  0  0  0
  3 17  1  0  0  0  0
  4 18  1  0  0  0  0
  5 19  1  0  0  0  0
  5 20  1  0  0  0  0
  5 21  1  0  0  0  0
  6 22  1  0  0  0  0
  6 23  1  0  0  0  0
  7 24  1  0  0  0  0
  7 25  1  0  0  0  0
  8 26  1  0  0  0  0
 11 27  1  0  0  0  0
 12 28  1  0  0  0  0
M  END
> <FRED Chemgauss4 score>
-8.551384

$$$$
C83574842	P130736246
  -OEChem-05122015313D

 26 27  0     1  0  0  0  0  0999 V2000
  123.4825  108.3361  111.1336 C   0  0  0  0  0  0  0  0  0  0  0  0
  123.2520  109.0646  112.2749 C   0  0  0  0  0  0  0  0  0  0  0  0
  124.0587  109.2572  110.2385 C   0  0  0  0  0  0  0  0  0  0  0  0
  124.4920  108.9571  108.8561 C   0  0  0  0  0  0  0  0  0  0  0  0
  124.8519  107.8684  107.1119 C   0  0  0  0  0  0  0  0  0  0  0  0
  123.8768  105.7344  106.1662 C   0  0  0  0  0  0  0  0  0  0  0  0
  123.6511  111.4580  112.9029 C   0  0  0  0  0  0  0  0  0  0  0  0
  124.9665  106.7981  106.0480 C   0  0  1  0  0  0  0  0  0  0  0  0
  124.1862  110.4778  110.7657 N   0  0  0  0  0  0  0  0  0  0  0  0
  124.3605  107.7087  108.3188 N   0  0  0  0  0  0  0  0  0  0  0  0
  125.2546  109.1571  106.9486 N   0  0  0  0  0  0  0  0  0  0  0  0
  125.0338  109.8792  108.0576 N   0  0  0  0  0  0  0  0  0  0  0  0
  123.6869  110.3287  112.0045 N   0  0  0  0  0  0  0  0  0  0  0  0
  124.9606  107.3695  104.7208 N   0  0  0  0  0  0  0  0  0  0  0  0
  123.2618  107.2895  110.9805 H   0  0  0  0  0  0  0  0  0  0  0  0
  122.8260  108.7957  113.2316 H   0  0  0  0  0  0  0  0  0  0  0  0
  122.8798  106.1791  106.0751 H   0  0  0  0  0  0  0  0  0  0  0  0
  123.9866  104.9828  105.3763 H   0  0  0  0  0  0  0  0  0  0  0  0
  123.9240  105.2038  107.1238 H   0  0  0  0  0  0  0  0  0  0  0  0
  124.5887  111.4718  113.4648 H   0  0  0  0  0  0  0  0  0  0  0  0
  123.5382  112.3795  112.3250 H   0  0  0  0  0  0  0  0  0  0  0  0
  122.7993  111.3537  113.5807 H   0  0  0  0  0  0  0  0  0  0  0  0
  125.9367  106.2958  106.1463 H   0  0  0  0  0  0  0  0  0  0  0  0
  125.2692  110.8653  108.1305 H   0  0  0  0  0  0  0  0  0  0  0  0
  124.7037  106.7874  103.9438 H   0  0  0  0  0  0  0  0  0  0  0  0
  125.4020  108.2598  104.5749 H   0  0  0  0  0  0  0  0  0  0  0  0
  1  2  2  0  0  0  0
  1  3  1  0  0  0  0
  2 13  1  0  0  0  0
  3  4  1  0  0  0  0
  3  9  2  0  0  0  0
  4 10  2  0  0  0  0
  4 12  1  0  0  0  0
  5  8  1  0  0  0  0
  5 10  1  0  0  0  0
  5 11  2  0  0  0  0
  6  8  1  0  0  0  0
  7 13  1  0  0  0  0
  8 14  1  0  0  0  0
  9 13  1  0  0  0  0
 11 12  1  0  0  0  0
  1 15  1  0  0  0  0
  2 16  1  0  0  0  0
  6 17  1  0  0  0  0
  6 18  1  0  0  0  0
  6 19  1  0  0  0  0
  7 20  1  0  0  0  0
  7 21  1  0  0  0  0
  7 22  1  0  0  0  0
  8 23  1  0  0  0  0
 12 24  1  0  0  0  0
 14 25  1  0  0  0  0
 14 26  1  0  0  0  0
M  END
> <FRED Chemgauss4 score>
-8.547123

$$$$
C51840091	P77649079
  -OEChem-05122015313D

 32 32  0     1  0  0  0  0  0999 V2000
  124.3201  107.5299  109.4432 C   0  0  0  0  0  0  0  0  0  0  0  0
  124.7265  109.3455  108.0309 C   0  0  0  0  0  0  0  0  0  0  0  0
  124.6540  107.9756  108.1806 C   0  0  0  0  0  0  0  0  0  0  0  0
  124.1768  109.6637  110.2135 C   0  0  0  0  0  0  0  0  0  0  0  0
  120.7054  104.1424  105.9539 C   0  0  0  0  0  0  0  0  0  0  0  0
  124.5911  104.4412  108.0970 C   0  0  0  0  0  0  0  0  0  0  0  0
  123.0636  104.9715  106.2406 C   0  0  0  0  0  0  0  0  0  0  0  0
  121.6174  105.0963  106.7137 C   0  0  1  0  0  0  0  0  0  0  0  0
  124.0740  108.3491  110.4866 N   0  0  0  0  0  0  0  0  0  0  0  0
  124.4931  110.2222  109.0296 N   0  0  0  0  0  0  0  0  0  0  0  0
  123.8723  110.1153  112.5854 N   0  0  0  0  0  0  0  0  0  0  0  0
  123.9261  110.5509  111.2829 N   0  0  0  0  0  0  0  0  0  0  0  0
  123.9566  105.5015  107.2461 N   0  0  2  0  0  0  0  0  0  0  0  0
  124.4571  107.4794  105.6343 O   0  0  0  0  0  0  0  0  0  0  0  0
  126.3729  106.4902  106.9131 O   0  0  0  0  0  0  0  0  0  0  0  0
  121.1756  106.4324  106.4808 O   0  0  0  0  0  0  0  0  0  0  0  0
  124.9713  106.8603  106.8421 S   0  0  0  0  0  0  0  0  0  0  0  0
  124.2381  106.4708  109.6658 H   0  0  0  0  0  0  0  0  0  0  0  0
  124.9810  109.7979  107.0778 H   0  0  0  0  0  0  0  0  0  0  0  0
  120.7569  104.3173  104.8749 H   0  0  0  0  0  0  0  0  0  0  0  0
  120.9740  103.0994  106.1551 H   0  0  0  0  0  0  0  0  0  0  0  0
  119.6661  104.2672  106.2765 H   0  0  0  0  0  0  0  0  0  0  0  0
  125.2533  104.8992  108.8363 H   0  0  0  0  0  0  0  0  0  0  0  0
  125.1765  103.7580  107.4756 H   0  0  0  0  0  0  0  0  0  0  0  0
  123.8224  103.8669  108.6209 H   0  0  0  0  0  0  0  0  0  0  0  0
  123.3245  103.9232  106.0596 H   0  0  0  0  0  0  0  0  0  0  0  0
  123.2158  105.5289  105.3106 H   0  0  0  0  0  0  0  0  0  0  0  0
  121.5465  104.8997  107.7897 H   0  0  0  0  0  0  0  0  0  0  0  0
  123.0747  110.5600  113.0373 H   0  0  0  0  0  0  0  0  0  0  0  0
  124.6987  110.4557  113.0752 H   0  0  0  0  0  0  0  0  0  0  0  0
  123.9971  111.5415  111.1026 H   0  0  0  0  0  0  0  0  0  0  0  0
  120.2640  106.4814  106.8070 H   0  0  0  0  0  0  0  0  0  0  0  0
  1  3  1  0  0  0  0
  1  9  2  0  0  0  0
  2  3  2  0  0  0  0
  2 10  1  0  0  0  0
  3 17  1  0  0  0  0
  4  9  1  0  0  0  0
  4 10  2  0  0  0  0
  4 12  1  0  0  0  0
  5  8  1  0  0  0  0
  6 13  1  0  0  0  0
  7  8  1  0  0  0  0
  7 13  1  0  0  0  0
  8 16  1  0  0  0  0
 11 12  1  0  0  0  0
 13 17  1  0  0  0  0
 14 17  2  0  0  0  0
 15 17  2  0  0  0  0
  1 18  1  0  0  0  0
  2 19  1  0  0  0  0
  5 20  1  0  0  0  0
  5 21  1  0  0  0  0
  5 22  1  0  0  0  0
  6 23  1  0  0  0  0
  6 24  1  0  0  0  0
  6 25  1  0  0  0  0
  7 26  1  0  0  0  0
  7 27  1  0  0  0  0
  8 28  1  0  0  0  0
 11 29  1  0  0  0  0
 11 30  1  0  0  0  0
 12 31  1  0  0  0  0
 16 32  1  0  0  0  0
M  END
> <FRED Chemgauss4 score>
-8.545455

$$$$
C05725726	P08547959
  -OEChem-05122015313D

 30 30  0     1  0  0  0  0  0999 V2000
  124.7446  104.7249  107.6071 C   0  0  0  0  0  0  0  0  0  0  0  0
  126.5833  106.2206  107.3996 C   0  0  0  0  0  0  0  0  0  0  0  0
  123.4914  105.4471  107.0764 C   0  0  2  0  0  0  0  0  0  0  0  0
  126.4547  107.7316  107.5431 C   0  0  2  0  0  0  0  0  0  0  0  0
  123.7703  106.5909  106.0750 C   0  0  2  0  0  0  0  0  0  0  0  0
  125.0158  108.2229  107.7498 C   0  0  2  0  0  0  0  0  0  0  0  0
  124.0174  108.0203  106.5994 C   0  0  1  0  0  0  0  0  0  0  0  0
  122.5384  105.8448  108.2090 C   0  0  0  0  0  0  0  0  0  0  0  0
  125.6777  105.5610  108.2769 O   0  0  0  0  0  0  0  0  0  0  0  0
  127.0614  108.3397  106.4069 O   0  0  0  0  0  0  0  0  0  0  0  0
  122.5952  106.6656  105.2385 O   0  0  0  0  0  0  0  0  0  0  0  0
  125.0912  109.6286  108.0378 O   0  0  0  0  0  0  0  0  0  0  0  0
  124.4682  108.8140  105.4889 O   0  0  0  0  0  0  0  0  0  0  0  0
  122.1312  104.6676  108.8747 O   0  0  0  0  0  0  0  0  0  0  0  0
  124.4493  103.9444  108.3241 H   0  0  0  0  0  0  0  0  0  0  0  0
  125.2645  104.2038  106.7875 H   0  0  0  0  0  0  0  0  0  0  0  0
  126.4892  105.8986  106.3508 H   0  0  0  0  0  0  0  0  0  0  0  0
  127.5991  105.9172  107.6960 H   0  0  0  0  0  0  0  0  0  0  0  0
  122.9062  104.6659  106.4837 H   0  0  0  0  0  0  0  0  0  0  0  0
  127.0387  108.0258  108.4319 H   0  0  0  0  0  0  0  0  0  0  0  0
  124.5765  106.2898  105.4202 H   0  0  0  0  0  0  0  0  0  0  0  0
  124.6413  107.7838  108.6651 H   0  0  0  0  0  0  0  0  0  0  0  0
  123.0414  108.4876  106.8794 H   0  0  0  0  0  0  0  0  0  0  0  0
  121.6718  106.3493  107.7911 H   0  0  0  0  0  0  0  0  0  0  0  0
  123.0566  106.4996  108.9039 H   0  0  0  0  0  0  0  0  0  0  0  0
  127.9888  108.0592  106.4098 H   0  0  0  0  0  0  0  0  0  0  0  0
  122.5169  105.8015  104.8116 H   0  0  0  0  0  0  0  0  0  0  0  0
  125.6256  109.7171  108.8420 H   0  0  0  0  0  0  0  0  0  0  0  0
  123.7547  108.7804  104.8402 H   0  0  0  0  0  0  0  0  0  0  0  0
  121.5274  104.9344  109.5902 H   0  0  0  0  0  0  0  0  0  0  0  0
  1  3  1  0  0  0  0
  1  9  1  0  0  0  0
  2  4  1  0  0  0  0
  2  9  1  0  0  0  0
  3  5  1  0  0  0  0
  3  8  1  0  0  0  0
  4  6  1  0  0  0  0
  4 10  1  0  0  0  0
  5  7  1  0  0  0  0
  5 11  1  0  0  0  0
  6  7  1  0  0  0  0
  6 12  1  0  0  0  0
  7 13  1  0  0  0  0
  8 14  1  0  0  0  0
  1 15  1  0  0  0  0
  1 16  1  0  0  0  0
  2 17  1  0  0  0  0
  2 18  1  0  0  0  0
  3 19  1  0  0  0  0
  4 20  1  0  0  0  0
  5 21  1  0  0  0  0
  6 22  1  0  0  0  0
  7 23  1  0  0  0  0
  8 24  1  0  0  0  0
  8 25  1  0  0  0  0
 10 26  1  0  0  0  0
 11 27  1  0  0  0  0
 12 28  1  0  0  0  0
 13 29  1  0  0  0  0
 14 30  1  0  0  0  0
M  END
> <FRED Chemgauss4 score>
-8.542215

$$$$
C35798415	P53128470
  -OEChem-05122015313D

 38 38  0     0  0  0  0  0  0999 V2000
  116.3471  107.5322  104.5899 C   0  0  0  0  0  0  0  0  0  0  0  0
  115.5562  105.3201  105.1537 C   0  0  0  0  0  0  0  0  0  0  0  0
  117.5241  107.2922  105.2989 C   0  0  0  0  0  0  0  0  0  0  0  0
  116.7332  105.0800  105.8627 C   0  0  0  0  0  0  0  0  0  0  0  0
  115.3632  106.5462  104.5173 C   0  0  0  0  0  0  0  0  0  0  0  0
  117.7171  106.0660  105.9353 C   0  0  0  0  0  0  0  0  0  0  0  0
  114.1358  106.7952  103.7779 C   0  0  0  0  0  0  0  0  0  0  0  0
  126.6300  105.7912  108.8643 C   0  0  0  0  0  0  0  0  0  0  0  0
  118.9815  105.8084  106.6955 C   0  0  0  0  0  0  0  0  0  0  0  0
  123.5372  105.4199  107.4224 C   0  0  0  0  0  0  0  0  0  0  0  0
  122.0604  105.7036  107.2053 C   0  0  0  0  0  0  0  0  0  0  0  0
  114.2547  107.0781  102.4361 N   0  0  0  0  0  0  0  0  0  0  0  0
  124.2689  106.6099  107.8924 N   0  0  0  0  0  0  0  0  0  0  0  0
  121.3463  104.5352  106.7664 N   0  0  0  0  0  0  0  0  0  0  0  0
  126.3550  108.1313  107.7248 O   0  0  0  0  0  0  0  0  0  0  0  0
  126.2069  106.0541  106.3036 O   0  0  0  0  0  0  0  0  0  0  0  0
  119.2814  103.4202  105.6674 O   0  0  0  0  0  0  0  0  0  0  0  0
  120.3585  105.3898  104.5198 O   0  0  0  0  0  0  0  0  0  0  0  0
  112.6353  106.7153  104.5183 S   0  0  0  0  0  0  0  0  0  0  0  0
  125.9336  106.7561  107.5429 S   0  0  0  0  0  0  0  0  0  0  0  0
  119.9748  104.6918  105.7318 S   0  0  0  0  0  0  0  0  0  0  0  0
  116.2065  108.4909  104.0975 H   0  0  0  0  0  0  0  0  0  0  0  0
  114.7964  104.5444  105.1039 H   0  0  0  0  0  0  0  0  0  0  0  0
  118.2855  108.0659  105.3500 H   0  0  0  0  0  0  0  0  0  0  0  0
  116.8755  104.1215  106.3551 H   0  0  0  0  0  0  0  0  0  0  0  0
  127.7162  105.7993  108.7612 H   0  0  0  0  0  0  0  0  0  0  0  0
  126.3326  106.2410  109.8128 H   0  0  0  0  0  0  0  0  0  0  0  0
  126.2459  104.7730  108.7865 H   0  0  0  0  0  0  0  0  0  0  0  0
  118.7885  105.3421  107.6658 H   0  0  0  0  0  0  0  0  0  0  0  0
  119.5570  106.7244  106.8561 H   0  0  0  0  0  0  0  0  0  0  0  0
  124.0192  105.0831  106.4991 H   0  0  0  0  0  0  0  0  0  0  0  0
  123.6630  104.6441  108.1841 H   0  0  0  0  0  0  0  0  0  0  0  0
  121.5961  106.0315  108.1404 H   0  0  0  0  0  0  0  0  0  0  0  0
  121.9107  106.4832  106.4514 H   0  0  0  0  0  0  0  0  0  0  0  0
  115.1520  107.1219  101.9636 H   0  0  0  0  0  0  0  0  0  0  0  0
  113.4352  107.2662  101.8680 H   0  0  0  0  0  0  0  0  0  0  0  0
  123.9532  106.9599  108.8063 H   0  0  0  0  0  0  0  0  0  0  0  0
  121.2805  103.7574  107.4589 H   0  0  0  0  0  0  0  0  0  0  0  0
  1  3  2  0  0  0  0
  1  5  1  0  0  0  0
  2  4  1  0  0  0  0
  2  5  2  0  0  0  0
  3  6  1  0  0  0  0
  4  6  2  0  0  0  0
  5  7  1  0  0  0  0
  6  9  1  0  0  0  0
  7 12  1  0  0  0  0
  7 19  2  0  0  0  0
  8 20  1  0  0  0  0
  9 21  1  0  0  0  0
 10 11  1  0  0  0  0
 10 13  1  0  0  0  0
 11 14  1  0  0  0  0
 13 20  1  0  0  0  0
 14 21  1  0  0  0  0
 15 20  2  0  0  0  0
 16 20  2  0  0  0  0
 17 21  2  0  0  0  0
 18 21  2  0  0  0  0
  1 22  1  0  0  0  0
  2 23  1  0  0  0  0
  3 24  1  0  0  0  0
  4 25  1  0  0  0  0
  8 26  1  0  0  0  0
  8 27  1  0  0  0  0
  8 28  1  0  0  0  0
  9 29  1  0  0  0  0
  9 30  1  0  0  0  0
 10 31  1  0  0  0  0
 10 32  1  0  0  0  0
 11 33  1  0  0  0  0
 11 34  1  0  0  0  0
 12 35  1  0  0  0  0
 12 36  1  0  0  0  0
 13 37  1  0  0  0  0
 14 38  1  0  0  0  0
M  END
> <FRED Chemgauss4 score>
-8.539174

$$$$
C83467584	P130570487
  -OEChem-05122015313D

 31 31  0     1  0  0  0  0  0999 V2000
  124.5494  107.9712  107.0017 C   0  0  0  0  0  0  0  0  0  0  0  0
  124.8333  107.7284  109.3650 C   0  0  0  0  0  0  0  0  0  0  0  0
  124.6284  106.3636  108.7343 C   0  0  0  0  0  0  0  0  0  0  0  0
  125.2114  108.6307  108.1938 C   0  0  1  0  0  0  0  0  0  0  0  0
  120.1886  103.7570  106.3590 C   0  0  0  0  0  0  0  0  0  0  0  0
  121.4635  106.3164  107.5284 C   0  0  0  0  0  0  0  0  0  0  0  0
  121.5032  104.3694  105.8985 C   0  0  0  0  0  0  0  0  0  0  0  0
  123.6584  105.6615  106.5151 C   0  0  0  0  0  0  0  0  0  0  0  0
  122.2860  105.1461  106.9783 C   0  0  1  0  0  0  0  0  0  0  0  0
  124.2063  106.6762  107.3892 N   0  0  0  0  0  0  0  0  0  0  0  0
  126.6220  108.6644  107.9292 N   0  0  0  0  0  0  0  0  0  0  0  0
  124.4402  108.4768  105.8938 O   0  0  0  0  0  0  0  0  0  0  0  0
  122.4944  104.2562  108.0845 O   0  0  0  0  0  0  0  0  0  0  0  0
  123.9474  108.0823  109.9083 H   0  0  0  0  0  0  0  0  0  0  0  0
  125.6564  107.6681  110.0945 H   0  0  0  0  0  0  0  0  0  0  0  0
  125.5500  105.7740  108.7220 H   0  0  0  0  0  0  0  0  0  0  0  0
  123.8296  105.7997  109.2274 H   0  0  0  0  0  0  0  0  0  0  0  0
  124.8030  109.6300  108.3012 H   0  0  0  0  0  0  0  0  0  0  0  0
  120.3316  103.0927  107.2159 H   0  0  0  0  0  0  0  0  0  0  0  0
  119.7046  103.1924  105.5573 H   0  0  0  0  0  0  0  0  0  0  0  0
  119.4982  104.5490  106.6673 H   0  0  0  0  0  0  0  0  0  0  0  0
  122.0281  106.8614  108.2943 H   0  0  0  0  0  0  0  0  0  0  0  0
  120.5516  105.9564  108.0183 H   0  0  0  0  0  0  0  0  0  0  0  0
  121.1808  107.0266  106.7455 H   0  0  0  0  0  0  0  0  0  0  0  0
  121.3076  105.0251  105.0401 H   0  0  0  0  0  0  0  0  0  0  0  0
  122.1434  103.5723  105.4971 H   0  0  0  0  0  0  0  0  0  0  0  0
  123.5797  106.1253  105.5254 H   0  0  0  0  0  0  0  0  0  0  0  0
  124.3942  104.8534  106.4542 H   0  0  0  0  0  0  0  0  0  0  0  0
  127.2509  108.7521  108.7029 H   0  0  0  0  0  0  0  0  0  0  0  0
  126.9275  108.8044  106.9863 H   0  0  0  0  0  0  0  0  0  0  0  0
  121.6137  103.9877  108.3801 H   0  0  0  0  0  0  0  0  0  0  0  0
  1  4  1  0  0  0  0
  1 10  1  0  0  0  0
  1 12  2  0  0  0  0
  2  3  1  0  0  0  0
  2  4  1  0  0  0  0
  3 10  1  0  0  0  0
  4 11  1  0  0  0  0
  5  7  1  0  0  0  0
  6  9  1  0  0  0  0
  7  9  1  0  0  0  0
  8  9  1  0  0  0  0
  8 10  1  0  0  0  0
  9 13  1  0  0  0  0
  2 14  1  0  0  0  0
  2 15  1  0  0  0  0
  3 16  1  0  0  0  0
  3 17  1  0  0  0  0
  4 18  1  0  0  0  0
  5 19  1  0  0  0  0
  5 20  1  0  0  0  0
  5 21  1  0  0  0  0
  6 22  1  0  0  0  0
  6 23  1  0  0  0  0
  6 24  1  0  0  0  0
  7 25  1  0  0  0  0
  7 26  1  0  0  0  0
  8 27  1  0  0  0  0
  8 28  1  0  0  0  0
 11 29  1  0  0  0  0
 11 30  1  0  0  0  0
 13 31  1  0  0  0  0
M  END
> <FRED Chemgauss4 score>
-8.538218

$$$$
C87362366	P136701184
  -OEChem-05122015313D

 34 34  0     1  0  0  0  0  0999 V2000
  125.3011  108.1232  107.9905 C   0  0  0  0  0  0  0  0  0  0  0  0
  124.7636  105.2965  107.4029 C   0  0  0  0  0  0  0  0  0  0  0  0
  125.5509  106.1743  106.4277 C   0  0  0  0  0  0  0  0  0  0  0  0
  124.7369  105.8598  108.8178 C   0  0  0  0  0  0  0  0  0  0  0  0
  126.2714  107.3323  107.1149 C   0  0  1  0  0  0  0  0  0  0  0  0
  122.2016  107.9830  109.1217 C   0  0  0  0  0  0  0  0  0  0  0  0
  123.3981  109.5919  111.6256 C   0  0  0  0  0  0  0  0  0  0  0  0
  124.0588  109.2145  110.2977 C   0  0  0  0  0  0  0  0  0  0  0  0
  123.8456  110.9670  112.1026 C   0  0  0  0  0  0  0  0  0  0  0  0
  123.5785  107.8567  109.7657 C   0  0  2  0  0  0  0  0  0  0  0  0
  124.5182  107.3008  108.8068 N   0  0  0  0  0  0  0  0  0  0  0  0
  126.8605  108.2213  106.1469 N   0  0  0  0  0  0  0  0  0  0  0  0
  125.2659  109.3526  107.9957 O   0  0  0  0  0  0  0  0  0  0  0  0
  123.4730  111.9340  111.1306 O   0  0  0  0  0  0  0  0  0  0  0  0
  123.7247  105.1646  107.0351 H   0  0  0  0  0  0  0  0  0  0  0  0
  125.2025  104.2755  107.4139 H   0  0  0  0  0  0  0  0  0  0  0  0
  126.2837  105.5420  105.8816 H   0  0  0  0  0  0  0  0  0  0  0  0
  124.8561  106.5538  105.6456 H   0  0  0  0  0  0  0  0  0  0  0  0
  123.9258  105.4127  109.3822 H   0  0  0  0  0  0  0  0  0  0  0  0
  125.6804  105.6469  109.3065 H   0  0  0  0  0  0  0  0  0  0  0  0
  127.0320  106.9369  107.7811 H   0  0  0  0  0  0  0  0  0  0  0  0
  122.2222  108.6922  108.2879 H   0  0  0  0  0  0  0  0  0  0  0  0
  121.4636  108.3383  109.8493 H   0  0  0  0  0  0  0  0  0  0  0  0
  121.8503  107.0171  108.7419 H   0  0  0  0  0  0  0  0  0  0  0  0
  123.6326  108.8510  112.3996 H   0  0  0  0  0  0  0  0  0  0  0  0
  122.3059  109.5823  111.5215 H   0  0  0  0  0  0  0  0  0  0  0  0
  125.1488  109.2012  110.4263 H   0  0  0  0  0  0  0  0  0  0  0  0
  123.8327  109.9921  109.5572 H   0  0  0  0  0  0  0  0  0  0  0  0
  123.3669  111.2256  113.0524 H   0  0  0  0  0  0  0  0  0  0  0  0
  124.9323  111.0023  112.2296 H   0  0  0  0  0  0  0  0  0  0  0  0
  123.5162  107.1404  110.5931 H   0  0  0  0  0  0  0  0  0  0  0  0
  127.2688  107.8195  105.3326 H   0  0  0  0  0  0  0  0  0  0  0  0
  127.0187  109.1664  106.4175 H   0  0  0  0  0  0  0  0  0  0  0  0
  123.7714  112.7959  111.4636 H   0  0  0  0  0  0  0  0  0  0  0  0
  1  5  1  0  0  0  0
  1 11  1  0  0  0  0
  1 13  2  0  0  0  0
  2  3  1  0  0  0  0
  2  4  1  0  0  0  0
  3  5  1  0  0  0  0
  4 11  1  0  0  0  0
  5 12  1  0  0  0  0
  6 10  1  0  0  0  0
  7  8  1  0  0  0  0
  7  9  1  0  0  0  0
  8 10  1  0  0  0  0
  9 14  1  0  0  0  0
 10 11  1  0  0  0  0
  2 15  1  0  0  0  0
  2 16  1  0  0  0  0
  3 17  1  0  0  0  0
  3 18  1  0  0  0  0
  4 19  1  0  0  0  0
  4 20  1  0  0  0  0
  5 21  1  0  0  0  0
  6 22  1  0  0  0  0
  6 23  1  0  0  0  0
  6 24  1  0  0  0  0
  7 25  1  0  0  0  0
  7 26  1  0  0  0  0
  8 27  1  0  0  0  0
  8 28  1  0  0  0  0
  9 29  1  0  0  0  0
  9 30  1  0  0  0  0
 10 31  1  0  0  0  0
 12 32  1  0  0  0  0
 12 33  1  0  0  0  0
 14 34  1  0  0  0  0
M  END
> <FRED Chemgauss4 score>
-8.536542

$$$$
C87440425	P136787889
  -OEChem-05122015313D

 19 19  0     0  0  0  0  0  0999 V2000
  126.0925  105.9145  106.9254 C   0  0  0  0  0  0  0  0  0  0  0  0
  125.0700  106.9701  108.4077 C   0  0  0  0  0  0  0  0  0  0  0  0
  124.0073  107.5792  109.2485 C   0  0  0  0  0  0  0  0  0  0  0  0
  123.2147  110.3525  110.7819 C   0  0  0  0  0  0  0  0  0  0  0  0
  123.5345  108.9545  111.2587 C   0  0  0  0  0  0  0  0  0  0  0  0
  124.8336  106.2385  107.3435 N   0  0  0  0  0  0  0  0  0  0  0  0
  127.0929  106.3995  107.6640 N   0  0  0  0  0  0  0  0  0  0  0  0
  126.4118  107.0706  108.6052 N   0  0  0  0  0  0  0  0  0  0  0  0
  121.9472  110.7531  111.1463 N   0  0  0  0  0  0  0  0  0  0  0  0
  124.4389  108.3258  110.3414 N   0  0  0  0  0  0  0  0  0  0  0  0
  122.8292  107.3844  108.9608 O   0  0  0  0  0  0  0  0  0  0  0  0
  124.0086  111.0693  110.1785 O   0  0  0  0  0  0  0  0  0  0  0  0
  126.2869  105.3057  106.0548 H   0  0  0  0  0  0  0  0  0  0  0  0
  122.6291  108.3440  111.3136 H   0  0  0  0  0  0  0  0  0  0  0  0
  124.0119  109.0035  112.2411 H   0  0  0  0  0  0  0  0  0  0  0  0
  126.9212  107.5606  109.3311 H   0  0  0  0  0  0  0  0  0  0  0  0
  121.3383  110.1384  111.6761 H   0  0  0  0  0  0  0  0  0  0  0  0
  121.5752  111.6662  110.9053 H   0  0  0  0  0  0  0  0  0  0  0  0
  125.4369  108.3855  110.5447 H   0  0  0  0  0  0  0  0  0  0  0  0
  1  6  1  0  0  0  0
  1  7  2  0  0  0  0
  2  3  1  0  0  0  0
  2  6  2  0  0  0  0
  2  8  1  0  0  0  0
  3 10  1  0  0  0  0
  3 11  2  0  0  0  0
  4  5  1  0  0  0  0
  4  9  1  0  0  0  0
  4 12  2  0  0  0  0
  5 10  1  0  0  0  0
  7  8  1  0  0  0  0
  1 13  1  0  0  0  0
  5 14  1  0  0  0  0
  5 15  1  0  0  0  0
  8 16  1  0  0  0  0
  9 17  1  0  0  0  0
  9 18  1  0  0  0  0
 10 19  1  0  0  0  0
M  END
> <FRED Chemgauss4 score>
-8.536381

$$$$
C72225679	P112211237
  -OEChem-05122015313D

 20 20  0     1  0  0  0  0  0999 V2000
  125.0417  106.0896  106.6496 C   0  0  0  0  0  0  0  0  0  0  0  0
  125.5226  107.3013  106.3366 C   0  0  0  0  0  0  0  0  0  0  0  0
  125.9393  106.2008  108.8739 C   0  0  0  0  0  0  0  0  0  0  0  0
  125.2483  105.5042  107.9594 C   0  0  0  0  0  0  0  0  0  0  0  0
  126.2911  108.0705  107.3614 C   0  0  0  0  0  0  0  0  0  0  0  0
  125.1886  103.1362  107.2121 C   0  0  0  0  0  0  0  0  0  0  0  0
  124.6745  104.1474  108.2167 C   0  0  2  0  0  0  0  0  0  0  0  0
  126.4456  107.4445  108.5863 N   0  0  0  0  0  0  0  0  0  0  0  0
  123.2536  104.3249  108.1218 N   0  0  0  0  0  0  0  0  0  0  0  0
  126.9414  109.5931  107.0909 S   0  0  0  0  0  0  0  0  0  0  0  0
  124.4813  105.5228  105.9129 H   0  0  0  0  0  0  0  0  0  0  0  0
  125.3630  107.7319  105.3545 H   0  0  0  0  0  0  0  0  0  0  0  0
  126.1375  105.8343  109.8736 H   0  0  0  0  0  0  0  0  0  0  0  0
  124.9518  103.4326  106.1837 H   0  0  0  0  0  0  0  0  0  0  0  0
  126.2767  103.0354  107.2851 H   0  0  0  0  0  0  0  0  0  0  0  0
  124.7392  102.1526  107.3842 H   0  0  0  0  0  0  0  0  0  0  0  0
  124.9134  103.8468  109.2400 H   0  0  0  0  0  0  0  0  0  0  0  0
  126.9622  107.9216  109.3193 H   0  0  0  0  0  0  0  0  0  0  0  0
  122.8441  105.1997  108.4137 H   0  0  0  0  0  0  0  0  0  0  0  0
  122.6647  103.5210  107.9625 H   0  0  0  0  0  0  0  0  0  0  0  0
  1  2  2  0  0  0  0
  1  4  1  0  0  0  0
  2  5  1  0  0  0  0
  3  4  2  0  0  0  0
  3  8  1  0  0  0  0
  4  7  1  0  0  0  0
  5  8  1  0  0  0  0
  5 10  2  0  0  0  0
  6  7  1  0  0  0  0
  7  9  1  0  0  0  0
  1 11  1  0  0  0  0
  2 12  1  0  0  0  0
  3 13  1  0  0  0  0
  6 14  1  0  0  0  0
  6 15  1  0  0  0  0
  6 16  1  0  0  0  0
  7 17  1  0  0  0  0
  8 18  1  0  0  0  0
  9 19  1  0  0  0  0
  9 20  1  0  0  0  0
M  END
> <FRED Chemgauss4 score>
-8.535984

$$$$
C87440555	P136788019
  -OEChem-05122015313D

 22 22  0     0  0  0  0  0  0999 V2000
  125.0831  108.9974  107.9735 C   0  0  0  0  0  0  0  0  0  0  0  0
  124.0807  108.9671  109.0696 C   0  0  0  0  0  0  0  0  0  0  0  0
  123.7174  109.8489  112.2264 C   0  0  0  0  0  0  0  0  0  0  0  0
  123.0412  110.2534  110.9191 C   0  0  0  0  0  0  0  0  0  0  0  0
  124.2128  108.4084  112.1994 C   0  0  0  0  0  0  0  0  0  0  0  0
  125.8347  110.0792  107.6936 N   0  5  0  0  0  0  0  0  0  0  0  0
  125.3255  107.9460  107.1678 N   0  0  0  0  0  0  0  0  0  0  0  0
  126.5970  109.6799  106.6449 N   0  0  0  0  0  0  0  0  0  0  0  0
  126.2912  108.3984  106.3289 N   0  0  0  0  0  0  0  0  0  0  0  0
  123.9542  110.1345  109.8071 N   0  0  0  0  0  0  0  0  0  0  0  0
  124.8118  108.0778  113.5157 N   0  3  0  0  0  0  0  0  0  0  0  0
  123.4478  107.9349  109.2754 O   0  0  0  0  0  0  0  0  0  0  0  0
  123.0224  109.9881  113.0643 H   0  0  0  0  0  0  0  0  0  0  0  0
  124.5663  110.5215  112.4017 H   0  0  0  0  0  0  0  0  0  0  0  0
  122.1801  109.6026  110.7359 H   0  0  0  0  0  0  0  0  0  0  0  0
  122.6700  111.2819  110.9811 H   0  0  0  0  0  0  0  0  0  0  0  0
  123.4025  107.6925  112.0350 H   0  0  0  0  0  0  0  0  0  0  0  0
  124.9949  108.2587  111.4492 H   0  0  0  0  0  0  0  0  0  0  0  0
  124.5582  110.9284  109.6169 H   0  0  0  0  0  0  0  0  0  0  0  0
  125.0127  107.0745  113.5859 H   0  0  0  0  0  0  0  0  0  0  0  0
  124.1755  108.3269  114.2807 H   0  0  0  0  0  0  0  0  0  0  0  0
  125.6909  108.5869  113.6571 H   0  0  0  0  0  0  0  0  0  0  0  0
  1  2  1  0  0  0  0
  1  6  1  0  0  0  0
  1  7  2  0  0  0  0
  2 10  1  0  0  0  0
  2 12  2  0  0  0  0
  3  4  1  0  0  0  0
  3  5  1  0  0  0  0
  4 10  1  0  0  0  0
  5 11  1  0  0  0  0
  6  8  1  0  0  0  0
  7  9  1  0  0  0  0
  8  9  2  0  0  0  0
  3 13  1  0  0  0  0
  3 14  1  0  0  0  0
  4 15  1  0  0  0  0
  4 16  1  0  0  0  0
  5 17  1  0  0  0  0
  5 18  1  0  0  0  0
 10 19  1  0  0  0  0
 11 20  1  0  0  0  0
 11 21  1  0  0  0  0
 11 22  1  0  0  0  0
M  CHG  2   6  -1  11   1
M  END
> <FRED Chemgauss4 score>
-8.534866

$$$$
C83591180	P130750978
  -OEChem-05122015313D

 23 23  0     0  0  0  0  0  0999 V2000
  124.1921  106.3548  106.1226 C   0  0  0  0  0  0  0  0  0  0  0  0
  124.4254  104.6492  107.4984 C   0  0  0  0  0  0  0  0  0  0  0  0
  125.3713  106.4332  106.8253 C   0  0  0  0  0  0  0  0  0  0  0  0
  124.4110  109.5797  109.1266 C   0  0  0  0  0  0  0  0  0  0  0  0
  122.3289  104.6784  106.1248 C   0  0  0  0  0  0  0  0  0  0  0  0
  125.5107  105.3683  107.6798 N   0  0  0  0  0  0  0  0  0  0  0  0
  123.5973  105.2066  106.5641 N   0  0  0  0  0  0  0  0  0  0  0  0
  123.9939  110.7920  109.6046 N   0  0  0  0  0  0  0  0  0  0  0  0
  125.4722  109.5842  108.2594 N   0  0  0  0  0  0  0  0  0  0  0  0
  126.3931  108.4722  108.2054 N   0  0  0  0  0  0  0  0  0  0  0  0
  127.8924  107.0677  106.6298 O   0  0  0  0  0  0  0  0  0  0  0  0
  126.1636  108.6087  105.6486 O   0  0  0  0  0  0  0  0  0  0  0  0
  123.6595  108.1573  109.5791 S   0  0  0  0  0  0  0  0  0  0  0  0
  126.5920  107.7060  106.7000 S   0  0  0  0  0  0  0  0  0  0  0  0
  123.7404  106.9916  105.3746 H   0  0  0  0  0  0  0  0  0  0  0  0
  124.1873  103.7253  108.0083 H   0  0  0  0  0  0  0  0  0  0  0  0
  122.5151  104.0172  105.2744 H   0  0  0  0  0  0  0  0  0  0  0  0
  121.8615  104.1250  106.9441 H   0  0  0  0  0  0  0  0  0  0  0  0
  121.6752  105.5047  105.8321 H   0  0  0  0  0  0  0  0  0  0  0  0
  124.4499  111.6553  109.3290 H   0  0  0  0  0  0  0  0  0  0  0  0
  123.2148  110.8665  110.2500 H   0  0  0  0  0  0  0  0  0  0  0  0
  125.6616  110.3622  107.6369 H   0  0  0  0  0  0  0  0  0  0  0  0
  126.5341  107.9477  109.0766 H   0  0  0  0  0  0  0  0  0  0  0  0
  1  3  2  0  0  0  0
  1  7  1  0  0  0  0
  2  6  2  0  0  0  0
  2  7  1  0  0  0  0
  3  6  1  0  0  0  0
  3 14  1  0  0  0  0
  4  8  1  0  0  0  0
  4  9  1  0  0  0  0
  4 13  2  0  0  0  0
  5  7  1  0  0  0  0
  9 10  1  0  0  0  0
 10 14  1  0  0  0  0
 11 14  2  0  0  0  0
 12 14  2  0  0  0  0
  1 15  1  0  0  0  0
  2 16  1  0  0  0  0
  5 17  1  0  0  0  0
  5 18  1  0  0  0  0
  5 19  1  0  0  0  0
  8 20  1  0  0  0  0
  8 21  1  0  0  0  0
  9 22  1  0  0  0  0
 10 23  1  0  0  0  0
M  END
> <FRED Chemgauss4 score>
-8.534547

$$$$
C88037226	P137697175
  -OEChem-05122015313D

 26 27  0     1  0  0  0  0  0999 V2000
  118.6068  106.1204  106.0671 C   0  0  0  0  0  0  0  0  0  0  0  0
  117.7121  105.1897  105.5384 C   0  0  0  0  0  0  0  0  0  0  0  0
  119.7756  105.6223  106.6570 C   0  0  0  0  0  0  0  0  0  0  0  0
  118.0203  103.8354  105.6218 C   0  0  0  0  0  0  0  0  0  0  0  0
  119.9568  104.2462  106.6721 C   0  0  0  0  0  0  0  0  0  0  0  0
  121.6455  105.2864  107.6281 C   0  0  0  0  0  0  0  0  0  0  0  0
  117.0497  102.8518  105.0497 C   0  0  0  0  0  0  0  0  0  0  0  0
  123.9875  106.2473  107.5273 C   0  0  0  0  0  0  0  0  0  0  0  0
  122.9382  105.4358  108.3218 C   0  0  2  0  0  0  0  0  0  0  0  0
  120.8367  106.2562  107.2566 N   0  0  0  0  0  0  0  0  0  0  0  0
  119.1348  103.3042  106.1810 N   0  0  0  0  0  0  0  0  0  0  0  0
  121.1564  104.0514  107.2962 N   0  0  0  0  0  0  0  0  0  0  0  0
  123.5363  104.1502  108.6764 N   0  0  0  0  0  0  0  0  0  0  0  0
  125.0173  106.7143  108.3928 O   0  0  0  0  0  0  0  0  0  0  0  0
  118.4008  107.1839  106.0202 H   0  0  0  0  0  0  0  0  0  0  0  0
  116.7928  105.5287  105.0714 H   0  0  0  0  0  0  0  0  0  0  0  0
  117.2852  102.6569  103.9978 H   0  0  0  0  0  0  0  0  0  0  0  0
  117.0802  101.9032  105.5982 H   0  0  0  0  0  0  0  0  0  0  0  0
  116.0220  103.2280  105.1159 H   0  0  0  0  0  0  0  0  0  0  0  0
  124.4561  105.6120  106.7676 H   0  0  0  0  0  0  0  0  0  0  0  0
  123.5365  107.1134  107.0309 H   0  0  0  0  0  0  0  0  0  0  0  0
  122.8142  105.9443  109.3017 H   0  0  0  0  0  0  0  0  0  0  0  0
  121.5980  103.1597  107.4781 H   0  0  0  0  0  0  0  0  0  0  0  0
  122.9290  103.4166  108.9692 H   0  0  0  0  0  0  0  0  0  0  0  0
  124.5232  104.1142  108.8090 H   0  0  0  0  0  0  0  0  0  0  0  0
  125.6399  107.2121  107.8399 H   0  0  0  0  0  0  0  0  0  0  0  0
  1  2  2  0  0  0  0
  1  3  1  0  0  0  0
  2  4  1  0  0  0  0
  3  5  2  0  0  0  0
  3 10  1  0  0  0  0
  4  7  1  0  0  0  0
  4 11  2  0  0  0  0
  5 11  1  0  0  0  0
  5 12  1  0  0  0  0
  6  9  1  0  0  0  0
  6 10  2  0  0  0  0
  6 12  1  0  0  0  0
  8  9  1  0  0  0  0
  8 14  1  0  0  0  0
  9 13  1  0  0  0  0
  1 15  1  0  0  0  0
  2 16  1  0  0  0  0
  7 17  1  0  0  0  0
  7 18  1  0  0  0  0
  7 19  1  0  0  0  0
  8 20  1  0  0  0  0
  8 21  1  0  0  0  0
  9 22  1  0  0  0  0
 12 23  1  0  0  0  0
 13 24  1  0  0  0  0
 13 25  1  0  0  0  0
 14 26  1  0  0  0  0
M  END
> <FRED Chemgauss4 score>
-8.534163

$$$$
C85619496	P134078010
  -OEChem-05122015313D

 32 32  0     1  0  0  0  0  0999 V2000
  123.3577  105.5091  106.4309 C   0  0  0  0  0  0  0  0  0  0  0  0
  118.5779  104.0223  104.7195 C   0  0  0  0  0  0  0  0  0  0  0  0
  120.8277  104.8371  104.5153 C   0  0  0  0  0  0  0  0  0  0  0  0
  118.8063  103.8337  106.2139 C   0  0  0  0  0  0  0  0  0  0  0  0
  121.0145  104.6392  106.0220 C   0  0  2  0  0  0  0  0  0  0  0  0
  125.0928  104.1611  107.6313 C   0  0  0  0  0  0  0  0  0  0  0  0
  122.4576  104.2850  106.3536 C   0  0  0  0  0  0  0  0  0  0  0  0
  124.9883  106.5961  107.9938 C   0  0  0  0  0  0  0  0  0  0  0  0
  126.0880  107.2050  107.1432 C   0  0  0  0  0  0  0  0  0  0  0  0
  119.4202  105.1061  104.2113 N   0  0  0  0  0  0  0  0  0  0  0  0
  124.4370  105.4245  107.3169 N   0  0  0  0  0  0  0  0  0  0  0  0
  123.1222  106.5041  105.7402 O   0  0  0  0  0  0  0  0  0  0  0  0
  120.1844  103.5634  106.4762 O   0  0  0  0  0  0  0  0  0  0  0  0
  126.5970  108.3650  107.7892 O   0  0  0  0  0  0  0  0  0  0  0  0
  118.8134  103.0954  104.1826 H   0  0  0  0  0  0  0  0  0  0  0  0
  117.5258  104.2592  104.5310 H   0  0  0  0  0  0  0  0  0  0  0  0
  121.4365  105.6790  104.1684 H   0  0  0  0  0  0  0  0  0  0  0  0
  121.1510  103.9444  103.9651 H   0  0  0  0  0  0  0  0  0  0  0  0
  118.4916  104.7149  106.7862 H   0  0  0  0  0  0  0  0  0  0  0  0
  118.2250  102.9795  106.5751 H   0  0  0  0  0  0  0  0  0  0  0  0
  120.7420  105.5512  106.5692 H   0  0  0  0  0  0  0  0  0  0  0  0
  125.9134  103.9796  106.9323 H   0  0  0  0  0  0  0  0  0  0  0  0
  124.3789  103.3362  107.5578 H   0  0  0  0  0  0  0  0  0  0  0  0
  125.4953  104.1868  108.6475 H   0  0  0  0  0  0  0  0  0  0  0  0
  122.8396  103.6133  105.5782 H   0  0  0  0  0  0  0  0  0  0  0  0
  122.4778  103.7696  107.3192 H   0  0  0  0  0  0  0  0  0  0  0  0
  125.3704  106.2801  108.9697 H   0  0  0  0  0  0  0  0  0  0  0  0
  124.1785  107.3168  108.1424 H   0  0  0  0  0  0  0  0  0  0  0  0
  125.6857  107.5084  106.1717 H   0  0  0  0  0  0  0  0  0  0  0  0
  126.9109  106.5006  106.9846 H   0  0  0  0  0  0  0  0  0  0  0  0
  119.3000  105.1851  103.2020 H   0  0  0  0  0  0  0  0  0  0  0  0
  127.2939  108.7214  107.2151 H   0  0  0  0  0  0  0  0  0  0  0  0
  1  7  1  0  0  0  0
  1 11  1  0  0  0  0
  1 12  2  0  0  0  0
  2  4  1  0  0  0  0
  2 10  1  0  0  0  0
  3  5  1  0  0  0  0
  3 10  1  0  0  0  0
  4 13  1  0  0  0  0
  5  7  1  0  0  0  0
  5 13  1  0  0  0  0
  6 11  1  0  0  0  0
  8  9  1  0  0  0  0
  8 11  1  0  0  0  0
  9 14  1  0  0  0  0
  2 15  1  0  0  0  0
  2 16  1  0  0  0  0
  3 17  1  0  0  0  0
  3 18  1  0  0  0  0
  4 19  1  0  0  0  0
  4 20  1  0  0  0  0
  5 21  1  0  0  0  0
  6 22  1  0  0  0  0
  6 23  1  0  0  0  0
  6 24  1  0  0  0  0
  7 25  1  0  0  0  0
  7 26  1  0  0  0  0
  8 27  1  0  0  0  0
  8 28  1  0  0  0  0
  9 29  1  0  0  0  0
  9 30  1  0  0  0  0
 10 31  1  0  0  0  0
 14 32  1  0  0  0  0
M  END
> <FRED Chemgauss4 score>
-8.525656

$$$$
C85802150	P134355349
  -OEChem-05122015313D

 32 33  0     1  0  0  0  0  0999 V2000
  122.4927  107.2899  106.1761 C   0  0  0  0  0  0  0  0  0  0  0  0
  124.0725  107.9957  107.4024 C   0  0  0  0  0  0  0  0  0  0  0  0
  118.4932  106.2122  105.3419 C   0  0  0  0  0  0  0  0  0  0  0  0
  120.3762  106.0980  106.8411 C   0  0  0  0  0  0  0  0  0  0  0  0
  119.4428  106.6130  104.2157 C   0  0  0  0  0  0  0  0  0  0  0  0
  121.2961  106.5071  105.6779 C   0  0  1  0  0  0  0  0  0  0  0  0
  124.7248  107.2080  109.7148 C   0  0  0  0  0  0  0  0  0  0  0  0
  119.3903  104.0433  105.9840 C   0  0  0  0  0  0  0  0  0  0  0  0
  124.9879  108.1651  108.5287 C   0  0  1  0  0  0  0  0  0  0  0  0
  123.1158  108.2515  105.4671 N   0  5  0  0  0  0  0  0  0  0  0  0
  123.0646  107.1134  107.3748 N   0  0  0  0  0  0  0  0  0  0  0  0
  124.1387  108.7078  106.2604 N   0  0  0  0  0  0  0  0  0  0  0  0
  119.1484  105.4241  106.3938 N   0  0  2  0  0  0  0  0  0  0  0  0
  126.4528  108.0030  108.1761 N   0  3  0  0  0  0  0  0  0  0  0  0
  120.5711  107.3134  104.7400 O   0  0  0  0  0  0  0  0  0  0  0  0
  118.0429  107.1293  105.7802 H   0  0  0  0  0  0  0  0  0  0  0  0
  117.6523  105.6348  104.9050 H   0  0  0  0  0  0  0  0  0  0  0  0
  120.9390  105.4319  107.5300 H   0  0  0  0  0  0  0  0  0  0  0  0
  120.1115  106.9961  107.4439 H   0  0  0  0  0  0  0  0  0  0  0  0
  119.7862  105.7405  103.6470 H   0  0  0  0  0  0  0  0  0  0  0  0
  118.9290  107.2820  103.5182 H   0  0  0  0  0  0  0  0  0  0  0  0
  121.6957  105.6205  105.1603 H   0  0  0  0  0  0  0  0  0  0  0  0
  124.7393  106.1610  109.3921 H   0  0  0  0  0  0  0  0  0  0  0  0
  125.4643  107.3188  110.5158 H   0  0  0  0  0  0  0  0  0  0  0  0
  123.7367  107.4098  110.1432 H   0  0  0  0  0  0  0  0  0  0  0  0
  119.8778  103.4915  106.7919 H   0  0  0  0  0  0  0  0  0  0  0  0
  120.0355  104.0184  105.1016 H   0  0  0  0  0  0  0  0  0  0  0  0
  118.4453  103.5500  105.7412 H   0  0  0  0  0  0  0  0  0  0  0  0
  124.9550  109.1973  108.9471 H   0  0  0  0  0  0  0  0  0  0  0  0
  126.5315  107.5551  107.2691 H   0  0  0  0  0  0  0  0  0  0  0  0
  126.9049  107.4293  108.8806 H   0  0  0  0  0  0  0  0  0  0  0  0
  126.8931  108.9166  108.1454 H   0  0  0  0  0  0  0  0  0  0  0  0
  1  6  1  0  0  0  0
  1 10  1  0  0  0  0
  1 11  2  0  0  0  0
  2  9  1  0  0  0  0
  2 11  1  0  0  0  0
  2 12  2  0  0  0  0
  3  5  1  0  0  0  0
  3 13  1  0  0  0  0
  4  6  1  0  0  0  0
  4 13  1  0  0  0  0
  5 15  1  0  0  0  0
  6 15  1  0  0  0  0
  7  9  1  0  0  0  0
  8 13  1  0  0  0  0
  9 14  1  0  0  0  0
 10 12  1  0  0  0  0
  3 16  1  0  0  0  0
  3 17  1  0  0  0  0
  4 18  1  0  0  0  0
  4 19  1  0  0  0  0
  5 20  1  0  0  0  0
  5 21  1  0  0  0  0
  6 22  1  0  0  0  0
  7 23  1  0  0  0  0
  7 24  1  0  0  0  0
  7 25  1  0  0  0  0
  8 26  1  0  0  0  0
  8 27  1  0  0  0  0
  8 28  1  0  0  0  0
  9 29  1  0  0  0  0
 14 30  1  0  0  0  0
 14 31  1  0  0  0  0
 14 32  1  0  0  0  0
M  CHG  2  10  -1  14   1
M  END
> <FRED Chemgauss4 score>
-8.524796

$$$$
C98352729	P156427866
  -OEChem-05122015313D

 29 30  0     1  0  0  0  0  0999 V2000
  124.6787  109.3175  109.5012 C   0  0  0  0  0  0  0  0  0  0  0  0
  123.8783  110.2421  111.1697 C   0  0  0  0  0  0  0  0  0  0  0  0
  124.5746  107.4306  106.4580 C   0  0  0  0  0  0  0  0  0  0  0  0
  124.7495  105.9387  106.2962 C   0  0  0  0  0  0  0  0  0  0  0  0
  125.0669  105.4663  107.7099 C   0  0  0  0  0  0  0  0  0  0  0  0
  125.7674  106.6527  108.3415 C   0  0  0  0  0  0  0  0  0  0  0  0
  124.1157  112.4747  112.3322 C   0  0  0  0  0  0  0  0  0  0  0  0
  125.3317  109.1313  108.1621 C   0  0  0  0  0  0  0  0  0  0  0  0
  123.3717  111.1247  112.2293 C   0  0  2  0  0  0  0  0  0  0  0  0
  124.4432  110.5529  110.0305 N   0  0  0  0  0  0  0  0  0  0  0  0
  124.2906  108.2810  110.2501 N   0  0  0  0  0  0  0  0  0  0  0  0
  125.1735  107.7817  107.6656 N   0  0  0  0  0  0  0  0  0  0  0  0
  123.3678  110.4891  113.5455 N   0  0  0  0  0  0  0  0  0  0  0  0
  124.0427  108.1618  105.6361 O   0  0  0  0  0  0  0  0  0  0  0  0
  123.7486  108.9060  111.3803 O   0  0  0  0  0  0  0  0  0  0  0  0
  123.8391  105.4764  105.9073 H   0  0  0  0  0  0  0  0  0  0  0  0
  125.5863  105.7544  105.6153 H   0  0  0  0  0  0  0  0  0  0  0  0
  124.1304  105.2615  108.2438 H   0  0  0  0  0  0  0  0  0  0  0  0
  125.6710  104.5551  107.7304 H   0  0  0  0  0  0  0  0  0  0  0  0
  125.5927  106.7106  109.4195 H   0  0  0  0  0  0  0  0  0  0  0  0
  126.8424  106.6518  108.1345 H   0  0  0  0  0  0  0  0  0  0  0  0
  125.1855  112.3064  112.4973 H   0  0  0  0  0  0  0  0  0  0  0  0
  124.0032  113.0763  111.4231 H   0  0  0  0  0  0  0  0  0  0  0  0
  123.7358  113.0766  113.1653 H   0  0  0  0  0  0  0  0  0  0  0  0
  124.8997  109.8153  107.4235 H   0  0  0  0  0  0  0  0  0  0  0  0
  126.4044  109.3451  108.2149 H   0  0  0  0  0  0  0  0  0  0  0  0
  122.3024  111.3823  112.0635 H   0  0  0  0  0  0  0  0  0  0  0  0
  123.1359  109.5216  113.5971 H   0  0  0  0  0  0  0  0  0  0  0  0
  123.3941  111.0777  114.3491 H   0  0  0  0  0  0  0  0  0  0  0  0
  1  8  1  0  0  0  0
  1 10  1  0  0  0  0
  1 11  2  0  0  0  0
  2  9  1  0  0  0  0
  2 10  2  0  0  0  0
  2 15  1  0  0  0  0
  3  4  1  0  0  0  0
  3 12  1  0  0  0  0
  3 14  2  0  0  0  0
  4  5  1  0  0  0  0
  5  6  1  0  0  0  0
  6 12  1  0  0  0  0
  7  9  1  0  0  0  0
  8 12  1  0  0  0  0
  9 13  1  0  0  0  0
 11 15  1  0  0  0  0
  4 16  1  0  0  0  0
  4 17  1  0  0  0  0
  5 18  1  0  0  0  0
  5 19  1  0  0  0  0
  6 20  1  0  0  0  0
  6 21  1  0  0  0  0
  7 22  1  0  0  0  0
  7 23  1  0  0  0  0
  7 24  1  0  0  0  0
  8 25  1  0  0  0  0
  8 26  1  0  0  0  0
  9 27  1  0  0  0  0
 13 28  1  0  0  0  0
 13 29  1  0  0  0  0
M  END
> <FRED Chemgauss4 score>
-8.522763

$$$$
C82463068	P128876951
  -OEChem-05122015313D

 30 30  0     1  0  0  0  0  0999 V2000
  125.6944  108.2345  107.3284 C   0  0  0  0  0  0  0  0  0  0  0  0
  122.2418  111.3775  110.9419 C   0  0  0  0  0  0  0  0  0  0  0  0
  124.0036  110.1175  111.9761 C   0  0  0  0  0  0  0  0  0  0  0  0
  121.9177  110.1746  110.0624 C   0  0  0  0  0  0  0  0  0  0  0  0
  123.6561  108.9066  111.1011 C   0  0  2  0  0  0  0  0  0  0  0  0
  124.0003  112.5249  112.1270 C   0  0  0  0  0  0  0  0  0  0  0  0
  125.2762  107.1248  108.2653 C   0  0  0  0  0  0  0  0  0  0  0  0
  124.5777  108.7445  109.8930 C   0  0  0  0  0  0  0  0  0  0  0  0
  123.6685  111.3732  111.2903 N   0  0  2  0  0  0  0  0  0  0  0  0
  126.6905  109.0234  107.8626 N   0  0  0  0  0  0  0  0  0  0  0  0
  124.1954  107.5960  109.1397 N   0  0  0  0  0  0  0  0  0  0  0  0
  125.2335  108.3897  106.2008 O   0  0  0  0  0  0  0  0  0  0  0  0
  122.2795  108.9537  110.7074 O   0  0  0  0  0  0  0  0  0  0  0  0
  121.9832  112.3014  110.4068 H   0  0  0  0  0  0  0  0  0  0  0  0
  121.6286  111.3296  111.8499 H   0  0  0  0  0  0  0  0  0  0  0  0
  123.4464  110.0487  112.9235 H   0  0  0  0  0  0  0  0  0  0  0  0
  125.0778  110.1012  112.2267 H   0  0  0  0  0  0  0  0  0  0  0  0
  120.8511  110.1444  109.7945 H   0  0  0  0  0  0  0  0  0  0  0  0
  122.4850  110.2352  109.1248 H   0  0  0  0  0  0  0  0  0  0  0  0
  123.7785  107.9671  111.7357 H   0  0  0  0  0  0  0  0  0  0  0  0
  125.0636  112.5116  112.3800 H   0  0  0  0  0  0  0  0  0  0  0  0
  123.4181  112.5002  113.0522 H   0  0  0  0  0  0  0  0  0  0  0  0
  123.7763  113.4544  111.5967 H   0  0  0  0  0  0  0  0  0  0  0  0
  126.1115  106.8121  108.8976 H   0  0  0  0  0  0  0  0  0  0  0  0
  124.9092  106.2745  107.6841 H   0  0  0  0  0  0  0  0  0  0  0  0
  125.5958  108.6185  110.2416 H   0  0  0  0  0  0  0  0  0  0  0  0
  124.4998  109.6235  109.2649 H   0  0  0  0  0  0  0  0  0  0  0  0
  127.0657  108.8351  108.7863 H   0  0  0  0  0  0  0  0  0  0  0  0
  127.0860  109.8131  107.3622 H   0  0  0  0  0  0  0  0  0  0  0  0
  123.9344  106.8188  109.7635 H   0  0  0  0  0  0  0  0  0  0  0  0
  1  7  1  0  0  0  0
  1 10  1  0  0  0  0
  1 12  2  0  0  0  0
  2  4  1  0  0  0  0
  2  9  1  0  0  0  0
  3  5  1  0  0  0  0
  3  9  1  0  0  0  0
  4 13  1  0  0  0  0
  5  8  1  0  0  0  0
  5 13  1  0  0  0  0
  6  9  1  0  0  0  0
  7 11  1  0  0  0  0
  8 11  1  0  0  0  0
  2 14  1  0  0  0  0
  2 15  1  0  0  0  0
  3 16  1  0  0  0  0
  3 17  1  0  0  0  0
  4 18  1  0  0  0  0
  4 19  1  0  0  0  0
  5 20  1  0  0  0  0
  6 21  1  0  0  0  0
  6 22  1  0  0  0  0
  6 23  1  0  0  0  0
  7 24  1  0  0  0  0
  7 25  1  0  0  0  0
  8 26  1  0  0  0  0
  8 27  1  0  0  0  0
 10 28  1  0  0  0  0
 10 29  1  0  0  0  0
 11 30  1  0  0  0  0
M  END
> <FRED Chemgauss4 score>
-8.522274

$$$$
C90313229	P141186972
  -OEChem-05122015313D

 33 34  0     1  0  0  0  0  0999 V2000
  126.4457  105.9448  108.8047 C   0  0  0  0  0  0  0  0  0  0  0  0
  125.9263  107.0660  108.0953 C   0  0  0  0  0  0  0  0  0  0  0  0
  125.7933  104.7770  108.4760 C   0  0  0  0  0  0  0  0  0  0  0  0
  124.8966  106.7122  107.2511 C   0  0  0  0  0  0  0  0  0  0  0  0
  120.2441  108.9013  108.6468 C   0  0  0  0  0  0  0  0  0  0  0  0
  121.5328  108.5841  109.4299 C   0  0  1  0  0  0  0  0  0  0  0  0
  122.0405  107.8200  108.1829 C   0  0  1  0  0  0  0  0  0  0  0  0
  120.5445  107.6540  107.7813 C   0  0  2  0  0  0  0  0  0  0  0  0
  118.0493  106.8952  106.7854 C   0  0  0  0  0  0  0  0  0  0  0  0
  118.8548  108.0313  106.1922 C   0  0  0  0  0  0  0  0  0  0  0  0
  122.2843  109.8153  109.6281 N   0  0  0  0  0  0  0  0  0  0  0  0
  122.9213  108.5361  107.1900 N   0  0  0  0  0  0  0  0  0  0  0  0
  124.7321  108.5086  105.3653 O   0  0  0  0  0  0  0  0  0  0  0  0
  123.0173  106.6718  105.4651 O   0  0  0  0  0  0  0  0  0  0  0  0
  120.2322  107.7682  106.3823 O   0  0  0  0  0  0  0  0  0  0  0  0
  124.5600  105.0345  107.3163 S   0  0  0  0  0  0  0  0  0  0  0  0
  123.8751  107.6290  106.1371 S   0  0  0  0  0  0  0  0  0  0  0  0
  127.2572  105.9923  109.5193 H   0  0  0  0  0  0  0  0  0  0  0  0
  126.2910  108.0797  108.2005 H   0  0  0  0  0  0  0  0  0  0  0  0
  125.9822  103.7847  108.8609 H   0  0  0  0  0  0  0  0  0  0  0  0
  119.3218  108.8471  109.2330 H   0  0  0  0  0  0  0  0  0  0  0  0
  120.2371  109.8369  108.0738 H   0  0  0  0  0  0  0  0  0  0  0  0
  121.3919  107.9735  110.3214 H   0  0  0  0  0  0  0  0  0  0  0  0
  122.5174  106.8677  108.4431 H   0  0  0  0  0  0  0  0  0  0  0  0
  120.0987  106.7399  108.1951 H   0  0  0  0  0  0  0  0  0  0  0  0
  118.2940  105.9473  106.2981 H   0  0  0  0  0  0  0  0  0  0  0  0
  118.2456  106.8020  107.8586 H   0  0  0  0  0  0  0  0  0  0  0  0
  116.9763  107.0833  106.6734 H   0  0  0  0  0  0  0  0  0  0  0  0
  118.6053  108.9763  106.6839 H   0  0  0  0  0  0  0  0  0  0  0  0
  118.6581  108.1225  105.1198 H   0  0  0  0  0  0  0  0  0  0  0  0
  123.2815  109.7667  109.6181 H   0  0  0  0  0  0  0  0  0  0  0  0
  121.7953  110.6176  109.9660 H   0  0  0  0  0  0  0  0  0  0  0  0
  122.5981  109.4623  106.9450 H   0  0  0  0  0  0  0  0  0  0  0  0
  1  2  1  0  0  0  0
  1  3  2  0  0  0  0
  2  4  2  0  0  0  0
  3 16  1  0  0  0  0
  4 16  1  0  0  0  0
  4 17  1  0  0  0  0
  5  6  1  0  0  0  0
  5  8  1  0  0  0  0
  6  7  1  0  0  0  0
  6 11  1  0  0  0  0
  7  8  1  0  0  0  0
  7 12  1  0  0  0  0
  8 15  1  0  0  0  0
  9 10  1  0  0  0  0
 10 15  1  0  0  0  0
 12 17  1  0  0  0  0
 13 17  2  0  0  0  0
 14 17  2  0  0  0  0
  1 18  1  0  0  0  0
  2 19  1  0  0  0  0
  3 20  1  0  0  0  0
  5 21  1  0  0  0  0
  5 22  1  0  0  0  0
  6 23  1  0  0  0  0
  7 24  1  0  0  0  0
  8 25  1  0  0  0  0
  9 26  1  0  0  0  0
  9 27  1  0  0  0  0
  9 28  1  0  0  0  0
 10 29  1  0  0  0  0
 10 30  1  0  0  0  0
 11 31  1  0  0  0  0
 11 32  1  0  0  0  0
 12 33  1  0  0  0  0
M  END
> <FRED Chemgauss4 score>
-8.521114

$$$$
C48630893	P72706708
  -OEChem-05122015313D

 28 28  0     1  0  0  0  0  0999 V2000
  125.1962  105.6950  107.8096 C   0  0  0  0  0  0  0  0  0  0  0  0
  124.9860  107.6345  108.5521 C   0  0  0  0  0  0  0  0  0  0  0  0
  125.8794  103.3123  107.4321 C   0  0  0  0  0  0  0  0  0  0  0  0
  122.0708  108.3753  109.1694 C   0  0  0  0  0  0  0  0  0  0  0  0
  123.5388  108.2731  111.1841 C   0  0  0  0  0  0  0  0  0  0  0  0
  124.8670  104.4301  107.1423 C   0  0  0  0  0  0  0  0  0  0  0  0
  124.5329  109.0235  108.9650 C   0  0  2  0  0  0  0  0  0  0  0  0
  123.2740  109.0201  109.8693 C   0  0  0  0  0  0  0  0  0  0  0  0
  124.3034  106.7245  107.8967 N   0  0  0  0  0  0  0  0  0  0  0  0
  126.3883  105.9107  108.3699 N   0  0  0  0  0  0  0  0  0  0  0  0
  126.2275  107.1580  108.8374 N   0  0  0  0  0  0  0  0  0  0  0  0
  124.3314  109.7953  107.7574 N   0  0  0  0  0  0  0  0  0  0  0  0
  126.8916  103.6284  107.1580 H   0  0  0  0  0  0  0  0  0  0  0  0
  125.6450  102.4021  106.8713 H   0  0  0  0  0  0  0  0  0  0  0  0
  125.8827  103.0623  108.4985 H   0  0  0  0  0  0  0  0  0  0  0  0
  122.2863  107.3396  108.8853 H   0  0  0  0  0  0  0  0  0  0  0  0
  121.1960  108.3688  109.8289 H   0  0  0  0  0  0  0  0  0  0  0  0
  121.7887  108.9253  108.2664 H   0  0  0  0  0  0  0  0  0  0  0  0
  123.8175  107.2303  110.9984 H   0  0  0  0  0  0  0  0  0  0  0  0
  122.6460  108.2760  111.8188 H   0  0  0  0  0  0  0  0  0  0  0  0
  124.3445  108.7448  111.7555 H   0  0  0  0  0  0  0  0  0  0  0  0
  123.8602  104.0644  107.4351 H   0  0  0  0  0  0  0  0  0  0  0  0
  124.8010  104.5551  106.0408 H   0  0  0  0  0  0  0  0  0  0  0  0
  125.3443  109.5333  109.5007 H   0  0  0  0  0  0  0  0  0  0  0  0
  123.0018  110.0514  110.1296 H   0  0  0  0  0  0  0  0  0  0  0  0
  126.9929  107.6051  109.3283 H   0  0  0  0  0  0  0  0  0  0  0  0
  124.9255  109.6199  106.9684 H   0  0  0  0  0  0  0  0  0  0  0  0
  123.7526  110.6137  107.7993 H   0  0  0  0  0  0  0  0  0  0  0  0
  1  6  1  0  0  0  0
  1  9  1  0  0  0  0
  1 10  2  0  0  0  0
  2  7  1  0  0  0  0
  2  9  2  0  0  0  0
  2 11  1  0  0  0  0
  3  6  1  0  0  0  0
  4  8  1  0  0  0  0
  5  8  1  0  0  0  0
  7  8  1  0  0  0  0
  7 12  1  0  0  0  0
 10 11  1  0  0  0  0
  3 13  1  0  0  0  0
  3 14  1  0  0  0  0
  3 15  1  0  0  0  0
  4 16  1  0  0  0  0
  4 17  1  0  0  0  0
  4 18  1  0  0  0  0
  5 19  1  0  0  0  0
  5 20  1  0  0  0  0
  5 21  1  0  0  0  0
  6 22  1  0  0  0  0
  6 23  1  0  0  0  0
  7 24  1  0  0  0  0
  8 25  1  0  0  0  0
 11 26  1  0  0  0  0
 12 27  1  0  0  0  0
 12 28  1  0  0  0  0
M  END
> <FRED Chemgauss4 score>
-8.513668

$$$$
L-Threonine	P10000027
  -OEChem-05122015313D

 17 16  0     1  0  0  0  0  0999 V2000
  124.6754  108.8223  108.0972 C   0  0  0  0  0  0  0  0  0  0  0  0
  125.1446  105.5443  107.6367 C   0  0  0  0  0  0  0  0  0  0  0  0
  125.9345  107.9778  107.8143 C   0  0  2  0  0  0  0  0  0  0  0  0
  125.9365  106.5734  108.4382 C   0  0  2  0  0  0  0  0  0  0  0  0
  127.1941  108.6800  108.2207 N   0  3  0  0  0  0  0  0  0  0  0  0
  124.8322  110.0736  108.1400 O   0  5  0  0  0  0  0  0  0  0  0  0
  123.6144  108.1472  108.2403 O   0  0  0  0  0  0  0  0  0  0  0  0
  127.2827  106.1179  108.5703 O   0  0  0  0  0  0  0  0  0  0  0  0
  125.5294  105.4512  106.6169 H   0  0  0  0  0  0  0  0  0  0  0  0
  124.0791  105.7924  107.5976 H   0  0  0  0  0  0  0  0  0  0  0  0
  125.2094  104.5626  108.1193 H   0  0  0  0  0  0  0  0  0  0  0  0
  125.9965  107.8833  106.7227 H   0  0  0  0  0  0  0  0  0  0  0  0
  125.5086  106.6241  109.4466 H   0  0  0  0  0  0  0  0  0  0  0  0
  127.7091  108.9859  107.3946 H   0  0  0  0  0  0  0  0  0  0  0  0
  127.7877  108.0515  108.7631 H   0  0  0  0  0  0  0  0  0  0  0  0
  126.9735  109.4969  108.7910 H   0  0  0  0  0  0  0  0  0  0  0  0
  127.2402  105.2681  109.0343 H   0  0  0  0  0  0  0  0  0  0  0  0
  1  3  1  0  0  0  0
  1  6  1  0  0  0  0
  1  7  2  0  0  0  0
  2  4  1  0  0  0  0
  3  4  1  0  0  0  0
  3  5  1  0  0  0  0
  4  8  1  0  0  0  0
  2  9  1  0  0  0  0
  2 10  1  0  0  0  0
  2 11  1  0  0  0  0
  3 12  1  0  0  0  0
  4 13  1  0  0  0  0
  5 14  1  0  0  0  0
  5 15  1  0  0  0  0
  5 16  1  0  0  0  0
  8 17  1  0  0  0  0
M  CHG  2   5   1   6  -1
M  END
> <FRED Chemgauss4 score>
-8.512259

$$$$
C86233004	P145216779
  -OEChem-05122015313D

 28 29  0     1  0  0  0  0  0999 V2000
  124.1918  107.5909  110.0592 C   0  0  0  0  0  0  0  0  0  0  0  0
  124.5123  110.2216  109.0397 C   0  0  0  0  0  0  0  0  0  0  0  0
  124.9876  107.8371  108.9566 C   0  0  0  0  0  0  0  0  0  0  0  0
  125.1348  109.1323  108.4646 C   0  0  0  0  0  0  0  0  0  0  0  0
  123.7084  109.9814  110.1556 C   0  0  0  0  0  0  0  0  0  0  0  0
  123.5494  108.6775  110.6612 C   0  0  0  0  0  0  0  0  0  0  0  0
  126.4295  107.8270  107.0787 C   0  0  0  0  0  0  0  0  0  0  0  0
  125.7779  106.8898  108.1082 C   0  0  1  0  0  0  0  0  0  0  0  0
  122.4627  112.8330  113.6405 C   0  0  0  0  0  0  0  0  0  0  0  0
  123.7480  113.1038  112.8722 C   0  0  0  0  0  0  0  0  0  0  0  0
  124.1818  111.8766  112.0784 C   0  0  0  0  0  0  0  0  0  0  0  0
  125.9804  109.1223  107.3605 N   0  0  0  0  0  0  0  0  0  0  0  0
  127.2092  107.4866  106.2023 O   0  0  0  0  0  0  0  0  0  0  0  0
  126.7679  106.2355  108.8638 O   0  0  0  0  0  0  0  0  0  0  0  0
  122.9047  111.4058  110.8941 S   0  0  0  0  0  0  0  0  0  0  0  0
  122.5599  108.3377  112.0423 Cl  0  0  0  0  0  0  0  0  0  0  0  0
  124.0758  106.5798  110.4366 H   0  0  0  0  0  0  0  0  0  0  0  0
  124.6522  111.2170  108.6305 H   0  0  0  0  0  0  0  0  0  0  0  0
  125.1252  106.1728  107.6005 H   0  0  0  0  0  0  0  0  0  0  0  0
  121.6548  112.5395  112.9625 H   0  0  0  0  0  0  0  0  0  0  0  0
  122.6146  112.0215  114.3591 H   0  0  0  0  0  0  0  0  0  0  0  0
  122.1419  113.7214  114.1939 H   0  0  0  0  0  0  0  0  0  0  0  0
  124.5294  113.3937  113.5850 H   0  0  0  0  0  0  0  0  0  0  0  0
  123.5836  113.9549  112.2004 H   0  0  0  0  0  0  0  0  0  0  0  0
  125.1066  112.0790  111.5286 H   0  0  0  0  0  0  0  0  0  0  0  0
  124.3642  111.0288  112.7465 H   0  0  0  0  0  0  0  0  0  0  0  0
  126.2378  109.9457  106.8292 H   0  0  0  0  0  0  0  0  0  0  0  0
  127.2479  105.6353  108.2636 H   0  0  0  0  0  0  0  0  0  0  0  0
  1  3  2  0  0  0  0
  1  6  1  0  0  0  0
  2  4  2  0  0  0  0
  2  5  1  0  0  0  0
  3  4  1  0  0  0  0
  3  8  1  0  0  0  0
  4 12  1  0  0  0  0
  5  6  2  0  0  0  0
  5 15  1  0  0  0  0
  6 16  1  0  0  0  0
  7  8  1  0  0  0  0
  7 12  1  0  0  0  0
  7 13  2  0  0  0  0
  8 14  1  0  0  0  0
  9 10  1  0  0  0  0
 10 11  1  0  0  0  0
 11 15  1  0  0  0  0
  1 17  1  0  0  0  0
  2 18  1  0  0  0  0
  8 19  1  0  0  0  0
  9 20  1  0  0  0  0
  9 21  1  0  0  0  0
  9 22  1  0  0  0  0
 10 23  1  0  0  0  0
 10 24  1  0  0  0  0
 11 25  1  0  0  0  0
 11 26  1  0  0  0  0
 12 27  1  0  0  0  0
 14 28  1  0  0  0  0
M  END
> <FRED Chemgauss4 score>
-8.509048

$$$$
C93934857	P147229780
  -OEChem-05122015313D

 42 42  0     1  0  0  0  0  0999 V2000
  124.4449  109.5957  108.2549 C   0  0  0  0  0  0  0  0  0  0  0  0
  122.3858  105.0876  106.1735 C   0  0  0  0  0  0  0  0  0  0  0  0
  125.7675  105.7191  107.5566 C   0  0  0  0  0  0  0  0  0  0  0  0
  123.9064  107.2426  107.6583 C   0  0  0  0  0  0  0  0  0  0  0  0
  126.7029  106.9136  107.3883 C   0  0  0  0  0  0  0  0  0  0  0  0
  124.8874  108.3988  107.4801 C   0  0  2  0  0  0  0  0  0  0  0  0
  123.0025  104.8215  108.5895 C   0  0  0  0  0  0  0  0  0  0  0  0
  116.9105  105.2370  103.1887 C   0  0  0  0  0  0  0  0  0  0  0  0
  119.0943  104.6248  106.0905 C   0  0  0  0  0  0  0  0  0  0  0  0
  120.2949  103.9861  105.4048 C   0  0  0  0  0  0  0  0  0  0  0  0
  117.8285  104.5626  105.2442 C   0  0  0  0  0  0  0  0  0  0  0  0
  123.5281  104.9109  107.1652 C   0  0  2  0  0  0  0  0  0  0  0  0
  124.4429  106.0396  107.0058 N   0  0  2  0  0  0  0  0  0  0  0  0
  124.2573  109.3968  109.5948 N   0  0  0  0  0  0  0  0  0  0  0  0
  121.4864  104.0316  106.2198 N   0  0  0  0  0  0  0  0  0  0  0  0
  122.2708  106.0762  105.4520 O   0  0  0  0  0  0  0  0  0  0  0  0
  126.1591  108.0670  108.0319 O   0  0  0  0  0  0  0  0  0  0  0  0
  118.0658  105.2382  104.0162 O   0  0  0  0  0  0  0  0  0  0  0  0
  124.1940  111.0769  107.5251 S   0  0  0  0  0  0  0  0  0  0  0  0
  126.1968  104.8554  107.0362 H   0  0  0  0  0  0  0  0  0  0  0  0
  125.6854  105.4679  108.6222 H   0  0  0  0  0  0  0  0  0  0  0  0
  123.7359  107.0501  108.7267 H   0  0  0  0  0  0  0  0  0  0  0  0
  122.9405  107.5166  107.2166 H   0  0  0  0  0  0  0  0  0  0  0  0
  127.6701  106.6982  107.8535 H   0  0  0  0  0  0  0  0  0  0  0  0
  126.8862  107.1377  106.3303 H   0  0  0  0  0  0  0  0  0  0  0  0
  125.0007  108.6882  106.4286 H   0  0  0  0  0  0  0  0  0  0  0  0
  122.4327  105.7182  108.8592 H   0  0  0  0  0  0  0  0  0  0  0  0
  122.3398  103.9588  108.7144 H   0  0  0  0  0  0  0  0  0  0  0  0
  123.8271  104.7244  109.3038 H   0  0  0  0  0  0  0  0  0  0  0  0
  117.1288  105.7632  102.2562 H   0  0  0  0  0  0  0  0  0  0  0  0
  116.0859  105.7277  103.7119 H   0  0  0  0  0  0  0  0  0  0  0  0
  116.6343  104.2038  102.9653 H   0  0  0  0  0  0  0  0  0  0  0  0
  118.9091  104.1157  107.0446 H   0  0  0  0  0  0  0  0  0  0  0  0
  119.3100  105.6701  106.3454 H   0  0  0  0  0  0  0  0  0  0  0  0
  120.0916  102.9312  105.1960 H   0  0  0  0  0  0  0  0  0  0  0  0
  120.5186  104.4857  104.4568 H   0  0  0  0  0  0  0  0  0  0  0  0
  117.5512  103.5280  105.0201 H   0  0  0  0  0  0  0  0  0  0  0  0
  116.9938  105.0533  105.7548 H   0  0  0  0  0  0  0  0  0  0  0  0
  124.0940  104.0072  106.9141 H   0  0  0  0  0  0  0  0  0  0  0  0
  124.4142  108.4864  110.0145 H   0  0  0  0  0  0  0  0  0  0  0  0
  123.9573  110.1381  110.2198 H   0  0  0  0  0  0  0  0  0  0  0  0
  121.6817  103.2348  106.8187 H   0  0  0  0  0  0  0  0  0  0  0  0
  1  6  1  0  0  0  0
  1 14  1  0  0  0  0
  1 19  2  0  0  0  0
  2 12  1  0  0  0  0
  2 15  1  0  0  0  0
  2 16  2  0  0  0  0
  3  5  1  0  0  0  0
  3 13  1  0  0  0  0
  4  6  1  0  0  0  0
  4 13  1  0  0  0  0
  5 17  1  0  0  0  0
  6 17  1  0  0  0  0
  7 12  1  0  0  0  0
  8 18  1  0  0  0  0
  9 10  1  0  0  0  0
  9 11  1  0  0  0  0
 10 15  1  0  0  0  0
 11 18  1  0  0  0  0
 12 13  1  0  0  0  0
  3 20  1  0  0  0  0
  3 21  1  0  0  0  0
  4 22  1  0  0  0  0
  4 23  1  0  0  0  0
  5 24  1  0  0  0  0
  5 25  1  0  0  0  0
  6 26  1  0  0  0  0
  7 27  1  0  0  0  0
  7 28  1  0  0  0  0
  7 29  1  0  0  0  0
  8 30  1  0  0  0  0
  8 31  1  0  0  0  0
  8 32  1  0  0  0  0
  9 33  1  0  0  0  0
  9 34  1  0  0  0  0
 10 35  1  0  0  0  0
 10 36  1  0  0  0  0
 11 37  1  0  0  0  0
 11 38  1  0  0  0  0
 12 39  1  0  0  0  0
 14 40  1  0  0  0  0
 14 41  1  0  0  0  0
 15 42  1  0  0  0  0
M  END
> <FRED Chemgauss4 score>
-8.507729

$$$$
C97489182	P154436569
  -OEChem-05122015313D

 45 47  0     1  0  0  0  0  0999 V2000
  117.0914  103.8611  105.3705 C   0  0  0  0  0  0  0  0  0  0  0  0
  118.3921  103.2505  105.8285 C   0  0  0  0  0  0  0  0  0  0  0  0
  123.2245  104.3056  106.9571 C   0  0  0  0  0  0  0  0  0  0  0  0
  124.0095  108.3304  108.1400 C   0  0  0  0  0  0  0  0  0  0  0  0
  122.5904  106.7157  106.8031 C   0  0  0  0  0  0  0  0  0  0  0  0
  117.4626  105.3227  105.2350 C   0  0  0  0  0  0  0  0  0  0  0  0
  124.6112  104.7530  107.3952 C   0  0  0  0  0  0  0  0  0  0  0  0
  125.4502  108.7912  108.0386 C   0  0  0  0  0  0  0  0  0  0  0  0
  124.9383  107.5347  106.1415 C   0  0  0  0  0  0  0  0  0  0  0  0
  122.5685  105.3686  106.0734 C   0  0  2  0  0  0  0  0  0  0  0  0
  118.9232  104.3299  106.7558 C   0  0  1  0  0  0  0  0  0  0  0  0
  124.0029  107.0869  107.2636 C   0  0  1  0  0  0  0  0  0  0  0  0
  120.4329  104.3179  106.8966 C   0  0  0  0  0  0  0  0  0  0  0  0
  121.1425  104.9687  105.7030 C   0  0  2  0  0  0  0  0  0  0  0  0
  121.3497  104.8728  103.3762 N   0  0  0  0  0  0  0  0  0  0  0  0
  121.1669  104.0877  104.5594 N   0  0  0  0  0  0  0  0  0  0  0  0
  125.9217  108.3948  106.7448 O   0  0  0  0  0  0  0  0  0  0  0  0
  118.4948  105.5836  106.1977 O   0  0  0  0  0  0  0  0  0  0  0  0
  124.5771  106.0246  108.0391 O   0  0  0  0  0  0  0  0  0  0  0  0
  116.7050  103.4308  104.4430 H   0  0  0  0  0  0  0  0  0  0  0  0
  116.3287  103.7391  106.1487 H   0  0  0  0  0  0  0  0  0  0  0  0
  118.2673  102.2852  106.3269 H   0  0  0  0  0  0  0  0  0  0  0  0
  119.0557  103.1097  104.9666 H   0  0  0  0  0  0  0  0  0  0  0  0
  123.2904  103.3492  106.4267 H   0  0  0  0  0  0  0  0  0  0  0  0
  122.6050  104.1445  107.8487 H   0  0  0  0  0  0  0  0  0  0  0  0
  123.7200  108.1472  109.1793 H   0  0  0  0  0  0  0  0  0  0  0  0
  123.3511  109.1028  107.7238 H   0  0  0  0  0  0  0  0  0  0  0  0
  122.1732  107.5006  106.1600 H   0  0  0  0  0  0  0  0  0  0  0  0
  121.9372  106.6469  107.6838 H   0  0  0  0  0  0  0  0  0  0  0  0
  117.8722  105.5368  104.2421 H   0  0  0  0  0  0  0  0  0  0  0  0
  116.6144  105.9895  105.4137 H   0  0  0  0  0  0  0  0  0  0  0  0
  125.0174  104.0338  108.1141 H   0  0  0  0  0  0  0  0  0  0  0  0
  125.3047  104.7777  106.5489 H   0  0  0  0  0  0  0  0  0  0  0  0
  125.5515  109.8742  108.1521 H   0  0  0  0  0  0  0  0  0  0  0  0
  126.0801  108.3026  108.7897 H   0  0  0  0  0  0  0  0  0  0  0  0
  125.4646  106.7240  105.6340 H   0  0  0  0  0  0  0  0  0  0  0  0
  124.4118  108.1315  105.3883 H   0  0  0  0  0  0  0  0  0  0  0  0
  123.1461  105.4593  105.1445 H   0  0  0  0  0  0  0  0  0  0  0  0
  118.4565  104.2414  107.7450 H   0  0  0  0  0  0  0  0  0  0  0  0
  120.6976  104.8533  107.8164 H   0  0  0  0  0  0  0  0  0  0  0  0
  120.7698  103.2811  107.0196 H   0  0  0  0  0  0  0  0  0  0  0  0
  120.5947  105.8662  105.3947 H   0  0  0  0  0  0  0  0  0  0  0  0
  120.5365  104.7641  102.7707 H   0  0  0  0  0  0  0  0  0  0  0  0
  121.3787  105.8599  103.6288 H   0  0  0  0  0  0  0  0  0  0  0  0
  121.9463  103.4286  104.6377 H   0  0  0  0  0  0  0  0  0  0  0  0
  1  2  1  0  0  0  0
  1  6  1  0  0  0  0
  2 11  1  0  0  0  0
  3  7  1  0  0  0  0
  3 10  1  0  0  0  0
  4  8  1  0  0  0  0
  4 12  1  0  0  0  0
  5 10  1  0  0  0  0
  5 12  1  0  0  0  0
  6 18  1  0  0  0  0
  7 19  1  0  0  0  0
  8 17  1  0  0  0  0
  9 12  1  0  0  0  0
  9 17  1  0  0  0  0
 10 14  1  0  0  0  0
 11 13  1  0  0  0  0
 11 18  1  0  0  0  0
 12 19  1  0  0  0  0
 13 14  1  0  0  0  0
 14 16  1  0  0  0  0
 15 16  1  0  0  0  0
  1 20  1  0  0  0  0
  1 21  1  0  0  0  0
  2 22  1  0  0  0  0
  2 23  1  0  0  0  0
  3 24  1  0  0  0  0
  3 25  1  0  0  0  0
  4 26  1  0  0  0  0
  4 27  1  0  0  0  0
  5 28  1  0  0  0  0
  5 29  1  0  0  0  0
  6 30  1  0  0  0  0
  6 31  1  0  0  0  0
  7 32  1  0  0  0  0
  7 33  1  0  0  0  0
  8 34  1  0  0  0  0
  8 35  1  0  0  0  0
  9 36  1  0  0  0  0
  9 37  1  0  0  0  0
 10 38  1  0  0  0  0
 11 39  1  0  0  0  0
 13 40  1  0  0  0  0
 13 41  1  0  0  0  0
 14 42  1  0  0  0  0
 15 43  1  0  0  0  0
 15 44  1  0  0  0  0
 16 45  1  0  0  0  0
M  END
> <FRED Chemgauss4 score>
-8.503451

$$$$
C84117419	P131645698
  -OEChem-05122015313D

 22 23  0     1  0  0  0  0  0999 V2000
  124.2595  109.7090  111.8729 C   0  0  0  0  0  0  0  0  0  0  0  0
  123.3231  110.5294  112.5301 C   0  0  0  0  0  0  0  0  0  0  0  0
  123.9056  109.7776  110.5476 C   0  0  0  0  0  0  0  0  0  0  0  0
  124.4732  109.1645  109.4052 C   0  0  0  0  0  0  0  0  0  0  0  0
  125.3166  107.7388  107.7249 C   0  0  0  0  0  0  0  0  0  0  0  0
  125.4379  105.2218  107.5198 C   0  0  0  0  0  0  0  0  0  0  0  0
  125.7515  106.5680  106.8701 C   0  0  2  0  0  0  0  0  0  0  0  0
  122.4406  111.0788  111.6914 N   0  0  0  0  0  0  0  0  0  0  0  0
  124.9618  109.8436  108.3893 N   0  0  0  0  0  0  0  0  0  0  0  0
  125.4556  109.0073  107.4033 N   0  0  0  0  0  0  0  0  0  0  0  0
  122.8211  110.6029  110.4936 N   0  0  0  0  0  0  0  0  0  0  0  0
  127.1542  106.6562  106.5345 N   0  0  0  0  0  0  0  0  0  0  0  0
  124.5761  107.4598  109.2465 S   0  0  0  0  0  0  0  0  0  0  0  0
  125.0751  109.1485  112.3068 H   0  0  0  0  0  0  0  0  0  0  0  0
  123.2468  110.7493  113.5850 H   0  0  0  0  0  0  0  0  0  0  0  0
  125.9426  105.1234  108.4871 H   0  0  0  0  0  0  0  0  0  0  0  0
  124.3599  105.1182  107.6874 H   0  0  0  0  0  0  0  0  0  0  0  0
  125.7478  104.3804  106.8898 H   0  0  0  0  0  0  0  0  0  0  0  0
  125.2209  106.6066  105.9108 H   0  0  0  0  0  0  0  0  0  0  0  0
  122.2918  110.8861  109.6779 H   0  0  0  0  0  0  0  0  0  0  0  0
  127.5593  107.5620  106.3799 H   0  0  0  0  0  0  0  0  0  0  0  0
  127.6411  105.8202  106.2646 H   0  0  0  0  0  0  0  0  0  0  0  0
  1  2  1  0  0  0  0
  1  3  2  0  0  0  0
  2  8  2  0  0  0  0
  3  4  1  0  0  0  0
  3 11  1  0  0  0  0
  4  9  2  0  0  0  0
  4 13  1  0  0  0  0
  5  7  1  0  0  0  0
  5 10  2  0  0  0  0
  5 13  1  0  0  0  0
  6  7  1  0  0  0  0
  7 12  1  0  0  0  0
  8 11  1  0  0  0  0
  9 10  1  0  0  0  0
  1 14  1  0  0  0  0
  2 15  1  0  0  0  0
  6 16  1  0  0  0  0
  6 17  1  0  0  0  0
  6 18  1  0  0  0  0
  7 19  1  0  0  0  0
 11 20  1  0  0  0  0
 12 21  1  0  0  0  0
 12 22  1  0  0  0  0
M  END
> <FRED Chemgauss4 score>
-8.500462

$$$$
C54956955	P82741422
  -OEChem-05122015313D

 23 24  0     1  0  0  0  0  0999 V2000
  125.4644  107.7017  106.6639 C   0  0  0  0  0  0  0  0  0  0  0  0
  126.7166  106.0355  108.6644 C   0  0  0  0  0  0  0  0  0  0  0  0
  126.7912  108.0708  107.2802 C   0  0  0  0  0  0  0  0  0  0  0  0
  123.4085  104.5379  106.6477 C   0  0  0  0  0  0  0  0  0  0  0  0
  123.9662  105.8451  106.1080 C   0  0  0  0  0  0  0  0  0  0  0  0
  125.4139  104.0717  107.8431 C   0  0  0  0  0  0  0  0  0  0  0  0
  126.0545  105.4087  107.4387 C   0  0  1  0  0  0  0  0  0  0  0  0
  126.9265  107.3943  108.5448 N   0  0  0  0  0  0  0  0  0  0  0  0
  124.4800  103.5624  106.8413 N   0  0  0  0  0  0  0  0  0  0  0  0
  125.0839  106.3699  106.8904 N   0  0  0  0  0  0  0  0  0  0  0  0
  124.8712  108.4895  105.9273 O   0  0  0  0  0  0  0  0  0  0  0  0
  127.1270  105.3805  109.6204 O   0  0  0  0  0  0  0  0  0  0  0  0
  127.6063  107.7653  106.6179 H   0  0  0  0  0  0  0  0  0  0  0  0
  126.8321  109.1475  107.4641 H   0  0  0  0  0  0  0  0  0  0  0  0
  122.8763  104.7095  107.5916 H   0  0  0  0  0  0  0  0  0  0  0  0
  122.6788  104.1350  105.9371 H   0  0  0  0  0  0  0  0  0  0  0  0
  124.3361  105.7038  105.0842 H   0  0  0  0  0  0  0  0  0  0  0  0
  123.1752  106.6022  106.0598 H   0  0  0  0  0  0  0  0  0  0  0  0
  126.2040  103.3277  108.0006 H   0  0  0  0  0  0  0  0  0  0  0  0
  124.8914  104.1679  108.8048 H   0  0  0  0  0  0  0  0  0  0  0  0
  126.8225  105.2479  106.6715 H   0  0  0  0  0  0  0  0  0  0  0  0
  127.1825  107.9302  109.3683 H   0  0  0  0  0  0  0  0  0  0  0  0
  124.0793  102.6852  107.1726 H   0  0  0  0  0  0  0  0  0  0  0  0
  1  3  1  0  0  0  0
  1 10  1  0  0  0  0
  1 11  2  0  0  0  0
  2  7  1  0  0  0  0
  2  8  1  0  0  0  0
  2 12  2  0  0  0  0
  3  8  1  0  0  0  0
  4  5  1  0  0  0  0
  4  9  1  0  0  0  0
  5 10  1  0  0  0  0
  6  7  1  0  0  0  0
  6  9  1  0  0  0  0
  7 10  1  0  0  0  0
  3 13  1  0  0  0  0
  3 14  1  0  0  0  0
  4 15  1  0  0  0  0
  4 16  1  0  0  0  0
  5 17  1  0  0  0  0
  5 18  1  0  0  0  0
  6 19  1  0  0  0  0
  6 20  1  0  0  0  0
  7 21  1  0  0  0  0
  8 22  1  0  0  0  0
  9 23  1  0  0  0  0
M  END
> <FRED Chemgauss4 score>
-8.500153

$$$$
C51924279	P77771538
  -OEChem-05122015313D

 25 26  0     0  0  0  0  0  0999 V2000
  118.2514  104.0806  106.1425 C   0  0  0  0  0  0  0  0  0  0  0  0
  118.2455  105.4553  106.1694 C   0  0  0  0  0  0  0  0  0  0  0  0
  124.1980  106.0838  107.8116 C   0  0  0  0  0  0  0  0  0  0  0  0
  120.2246  104.6472  106.7049 C   0  0  0  0  0  0  0  0  0  0  0  0
  120.0041  107.1528  106.6956 C   0  0  0  0  0  0  0  0  0  0  0  0
  123.3397  105.3745  108.8173 C   0  0  0  0  0  0  0  0  0  0  0  0
  121.6697  104.6478  107.1080 C   0  0  0  0  0  0  0  0  0  0  0  0
  125.2375  105.4979  107.1875 N   0  5  0  0  0  0  0  0  0  0  0  0
  119.4862  103.5837  106.4771 N   0  0  0  0  0  0  0  0  0  0  0  0
  124.0006  107.3655  107.4490 N   0  0  0  0  0  0  0  0  0  0  0  0
  125.7228  106.4757  106.3819 N   0  0  0  0  0  0  0  0  0  0  0  0
  124.9798  107.5977  106.5390 N   0  0  0  0  0  0  0  0  0  0  0  0
  119.5162  105.8037  106.5316 N   0  0  0  0  0  0  0  0  0  0  0  0
  121.9088  105.3083  108.4186 N   0  3  0  0  0  0  0  0  0  0  0  0
  117.4293  103.4235  105.8994 H   0  0  0  0  0  0  0  0  0  0  0  0
  117.4754  106.1873  105.9696 H   0  0  0  0  0  0  0  0  0  0  0  0
  119.8382  107.4474  107.7352 H   0  0  0  0  0  0  0  0  0  0  0  0
  121.0702  107.1863  106.4542 H   0  0  0  0  0  0  0  0  0  0  0  0
  119.4623  107.8179  106.0175 H   0  0  0  0  0  0  0  0  0  0  0  0
  123.6733  104.3417  108.9643 H   0  0  0  0  0  0  0  0  0  0  0  0
  123.3724  105.8773  109.7898 H   0  0  0  0  0  0  0  0  0  0  0  0
  122.0570  103.6270  107.1950 H   0  0  0  0  0  0  0  0  0  0  0  0
  122.2853  105.1766  106.3723 H   0  0  0  0  0  0  0  0  0  0  0  0
  121.3782  104.8121  109.1477 H   0  0  0  0  0  0  0  0  0  0  0  0
  121.5221  106.2618  108.3911 H   0  0  0  0  0  0  0  0  0  0  0  0
  1  2  2  0  0  0  0
  1  9  1  0  0  0  0
  2 13  1  0  0  0  0
  3  6  1  0  0  0  0
  3  8  1  0  0  0  0
  3 10  2  0  0  0  0
  4  7  1  0  0  0  0
  4  9  2  0  0  0  0
  4 13  1  0  0  0  0
  5 13  1  0  0  0  0
  6 14  1  0  0  0  0
  7 14  1  0  0  0  0
  8 11  1  0  0  0  0
 10 12  1  0  0  0  0
 11 12  2  0  0  0  0
  1 15  1  0  0  0  0
  2 16  1  0  0  0  0
  5 17  1  0  0  0  0
  5 18  1  0  0  0  0
  5 19  1  0  0  0  0
  6 20  1  0  0  0  0
  6 21  1  0  0  0  0
  7 22  1  0  0  0  0
  7 23  1  0  0  0  0
 14 24  1  0  0  0  0
 14 25  1  0  0  0  0
M  CHG  2   8  -1  14   1
M  END
> <FRED Chemgauss4 score>
-8.498533

$$$$
C43705453	P66072042
  -OEChem-05122015313D

 23 24  0     1  0  0  0  0  0999 V2000
  124.1401  107.1002  106.3082 C   0  0  0  0  0  0  0  0  0  0  0  0
  125.9185  107.9121  107.0398 C   0  0  0  0  0  0  0  0  0  0  0  0
  121.9635  105.0278  108.5875 C   0  0  0  0  0  0  0  0  0  0  0  0
  123.1329  104.6772  106.5216 C   0  0  0  0  0  0  0  0  0  0  0  0
  121.8389  106.5035  108.2409 C   0  0  0  0  0  0  0  0  0  0  0  0
  122.9544  106.1610  106.1550 C   0  0  1  0  0  0  0  0  0  0  0  0
  125.1107  106.8983  107.2472 N   0  0  0  0  0  0  0  0  0  0  0  0
  124.2965  108.1752  105.5328 N   0  0  0  0  0  0  0  0  0  0  0  0
  125.4411  108.6767  106.0212 N   0  0  0  0  0  0  0  0  0  0  0  0
  123.1649  104.4682  107.9711 N   0  0  0  0  0  0  0  0  0  0  0  0
  127.0658  108.2683  107.6540 N   0  0  0  0  0  0  0  0  0  0  0  0
  121.7940  106.6869  106.8246 O   0  0  0  0  0  0  0  0  0  0  0  0
  122.0150  104.8982  109.6735 H   0  0  0  0  0  0  0  0  0  0  0  0
  121.0842  104.4777  108.2324 H   0  0  0  0  0  0  0  0  0  0  0  0
  122.2986  104.0963  106.1087 H   0  0  0  0  0  0  0  0  0  0  0  0
  124.0513  104.2755  106.0784 H   0  0  0  0  0  0  0  0  0  0  0  0
  120.9054  106.9015  108.6521 H   0  0  0  0  0  0  0  0  0  0  0  0
  122.6581  107.0932  108.6690 H   0  0  0  0  0  0  0  0  0  0  0  0
  122.6862  106.2155  105.0720 H   0  0  0  0  0  0  0  0  0  0  0  0
  125.8256  109.5224  105.6174 H   0  0  0  0  0  0  0  0  0  0  0  0
  123.9847  104.9371  108.3567 H   0  0  0  0  0  0  0  0  0  0  0  0
  127.4407  107.7480  108.4615 H   0  0  0  0  0  0  0  0  0  0  0  0
  127.5749  109.1308  107.4085 H   0  0  0  0  0  0  0  0  0  0  0  0
  1  6  1  0  0  0  0
  1  7  1  0  0  0  0
  1  8  2  0  0  0  0
  2  7  2  0  0  0  0
  2  9  1  0  0  0  0
  2 11  1  0  0  0  0
  3  5  1  0  0  0  0
  3 10  1  0  0  0  0
  4  6  1  0  0  0  0
  4 10  1  0  0  0  0
  5 12  1  0  0  0  0
  6 12  1  0  0  0  0
  8  9  1  0  0  0  0
  3 13  1  0  0  0  0
  3 14  1  0  0  0  0
  4 15  1  0  0  0  0
  4 16  1  0  0  0  0
  5 17  1  0  0  0  0
  5 18  1  0  0  0  0
  6 19  1  0  0  0  0
  9 20  1  0  0  0  0
 10 21  1  0  0  0  0
 11 22  1  0  0  0  0
 11 23  1  0  0  0  0
M  END
> <FRED Chemgauss4 score>
-8.492899

$$$$
C36946826	P54931962
  -OEChem-05122015313D

 28 29  0     1  0  0  0  0  0999 V2000
  122.2415  110.9422  110.9255 C   0  0  0  0  0  0  0  0  0  0  0  0
  121.4570  109.8824  111.3153 C   0  0  0  0  0  0  0  0  0  0  0  0
  122.9885  109.2588  109.8586 C   0  0  0  0  0  0  0  0  0  0  0  0
  124.9142  105.8547  107.5741 C   0  0  0  0  0  0  0  0  0  0  0  0
  125.7242  107.0101  107.0410 C   0  0  0  0  0  0  0  0  0  0  0  0
  123.7298  105.8457  106.6349 C   0  0  0  0  0  0  0  0  0  0  0  0
  124.6531  107.9905  106.5873 C   0  0  2  0  0  0  0  0  0  0  0  0
  123.7641  108.3235  108.9621 C   0  0  0  0  0  0  0  0  0  0  0  0
  124.2717  108.9942  107.6668 C   0  0  1  0  0  0  0  0  0  0  0  0
  123.1927  110.5475  110.0184 N   0  0  0  0  0  0  0  0  0  0  0  0
  121.9472  108.8111  110.6232 N   0  0  0  0  0  0  0  0  0  0  0  0
  125.4469  109.8177  107.9849 N   0  0  0  0  0  0  0  0  0  0  0  0
  123.4890  107.2096  106.2640 O   0  0  0  0  0  0  0  0  0  0  0  0
  122.1688  111.9696  111.2508 H   0  0  0  0  0  0  0  0  0  0  0  0
  120.6244  109.7943  111.9979 H   0  0  0  0  0  0  0  0  0  0  0  0
  125.4830  104.9230  107.4702 H   0  0  0  0  0  0  0  0  0  0  0  0
  124.6280  105.9650  108.6233 H   0  0  0  0  0  0  0  0  0  0  0  0
  126.3320  107.4391  107.8530 H   0  0  0  0  0  0  0  0  0  0  0  0
  126.4077  106.7238  106.2299 H   0  0  0  0  0  0  0  0  0  0  0  0
  123.9079  105.2453  105.7393 H   0  0  0  0  0  0  0  0  0  0  0  0
  122.8303  105.4728  107.1346 H   0  0  0  0  0  0  0  0  0  0  0  0
  124.9601  108.5155  105.6876 H   0  0  0  0  0  0  0  0  0  0  0  0
  124.6093  107.8937  109.5164 H   0  0  0  0  0  0  0  0  0  0  0  0
  123.1077  107.4752  108.7229 H   0  0  0  0  0  0  0  0  0  0  0  0
  123.4969  109.6688  107.2730 H   0  0  0  0  0  0  0  0  0  0  0  0
  121.6036  107.8609  110.6711 H   0  0  0  0  0  0  0  0  0  0  0  0
  125.4593  110.2815  108.8623 H   0  0  0  0  0  0  0  0  0  0  0  0
  126.0690  110.0365  107.2430 H   0  0  0  0  0  0  0  0  0  0  0  0
  1  2  2  0  0  0  0
  1 10  1  0  0  0  0
  2 11  1  0  0  0  0
  3  8  1  0  0  0  0
  3 10  2  0  0  0  0
  3 11  1  0  0  0  0
  4  5  1  0  0  0  0
  4  6  1  0  0  0  0
  5  7  1  0  0  0  0
  6 13  1  0  0  0  0
  7  9  1  0  0  0  0
  7 13  1  0  0  0  0
  8  9  1  0  0  0  0
  9 12  1  0  0  0  0
  1 14  1  0  0  0  0
  2 15  1  0  0  0  0
  4 16  1  0  0  0  0
  4 17  1  0  0  0  0
  5 18  1  0  0  0  0
  5 19  1  0  0  0  0
  6 20  1  0  0  0  0
  6 21  1  0  0  0  0
  7 22  1  0  0  0  0
  8 23  1  0  0  0  0
  8 24  1  0  0  0  0
  9 25  1  0  0  0  0
 11 26  1  0  0  0  0
 12 27  1  0  0  0  0
 12 28  1  0  0  0  0
M  END
> <FRED Chemgauss4 score>
-8.490128

$$$$
C97135058	P153777836
  -OEChem-05122015313D

 28 29  0     1  0  0  0  0  0999 V2000
  119.1356  108.3576  106.9259 C   0  0  0  0  0  0  0  0  0  0  0  0
  118.2814  107.3562  106.4641 C   0  0  0  0  0  0  0  0  0  0  0  0
  120.4427  108.0428  107.2973 C   0  0  0  0  0  0  0  0  0  0  0  0
  118.7343  106.0400  106.3738 C   0  0  0  0  0  0  0  0  0  0  0  0
  120.8956  106.7266  107.2070 C   0  0  0  0  0  0  0  0  0  0  0  0
  120.0414  105.7252  106.7453 C   0  0  0  0  0  0  0  0  0  0  0  0
  123.6364  108.6070  108.2521 C   0  0  0  0  0  0  0  0  0  0  0  0
  123.2817  107.5615  107.4233 C   0  0  0  0  0  0  0  0  0  0  0  0
  123.1064  108.8669  109.6053 C   0  0  0  0  0  0  0  0  0  0  0  0
  122.2995  106.4130  107.6091 C   0  0  1  0  0  0  0  0  0  0  0  0
  120.5036  104.3088  106.6406 C   0  0  0  0  0  0  0  0  0  0  0  0
  124.5860  109.4779  107.7414 N   0  0  0  0  0  0  0  0  0  0  0  0
  124.9708  109.1188  106.5270 N   0  0  0  0  0  0  0  0  0  0  0  0
  122.3647  105.9470  109.0058 N   0  0  0  0  0  0  0  0  0  0  0  0
  119.5460  103.4558  106.1726 F   0  0  0  0  0  0  0  0  0  0  0  0
  121.5694  104.1441  105.8038 F   0  0  0  0  0  0  0  0  0  0  0  0
  120.8966  103.7968  107.8423 F   0  0  0  0  0  0  0  0  0  0  0  0
  124.1993  107.7346  105.9837 S   0  0  0  0  0  0  0  0  0  0  0  0
  118.7823  109.3820  106.9968 H   0  0  0  0  0  0  0  0  0  0  0  0
  117.2636  107.6020  106.1754 H   0  0  0  0  0  0  0  0  0  0  0  0
  121.0999  108.8300  107.6573 H   0  0  0  0  0  0  0  0  0  0  0  0
  118.0613  105.2669  106.0124 H   0  0  0  0  0  0  0  0  0  0  0  0
  123.7142  108.3617  110.3735 H   0  0  0  0  0  0  0  0  0  0  0  0
  123.0918  109.9439  109.8439 H   0  0  0  0  0  0  0  0  0  0  0  0
  122.0661  108.5160  109.7162 H   0  0  0  0  0  0  0  0  0  0  0  0
  122.6807  105.5563  107.0252 H   0  0  0  0  0  0  0  0  0  0  0  0
  123.2345  106.0282  109.4730 H   0  0  0  0  0  0  0  0  0  0  0  0
  121.6104  105.3974  109.3383 H   0  0  0  0  0  0  0  0  0  0  0  0
  1  2  1  0  0  0  0
  1  3  2  0  0  0  0
  2  4  2  0  0  0  0
  3  5  1  0  0  0  0
  4  6  1  0  0  0  0
  5  6  2  0  0  0  0
  5 10  1  0  0  0  0
  6 11  1  0  0  0  0
  7  8  2  0  0  0  0
  7  9  1  0  0  0  0
  7 12  1  0  0  0  0
  8 10  1  0  0  0  0
  8 18  1  0  0  0  0
 10 14  1  0  0  0  0
 11 15  1  0  0  0  0
 11 16  1  0  0  0  0
 11 17  1  0  0  0  0
 12 13  2  0  0  0  0
 13 18  1  0  0  0  0
  1 19  1  0  0  0  0
  2 20  1  0  0  0  0
  3 21  1  0  0  0  0
  4 22  1  0  0  0  0
  9 23  1  0  0  0  0
  9 24  1  0  0  0  0
  9 25  1  0  0  0  0
 10 26  1  0  0  0  0
 14 27  1  0  0  0  0
 14 28  1  0  0  0  0
M  END
> <FRED Chemgauss4 score>
-8.488159

$$$$
C48630886	P72699249
  -OEChem-05122015313D

 26 26  0     1  0  0  0  0  0999 V2000
  123.4032  108.3606  108.1374 C   0  0  0  0  0  0  0  0  0  0  0  0
  122.9579  108.8802  110.1094 C   0  0  0  0  0  0  0  0  0  0  0  0
  121.4889  110.2166  111.6399 C   0  0  0  0  0  0  0  0  0  0  0  0
  125.3624  106.2578  106.9960 C   0  0  0  0  0  0  0  0  0  0  0  0
  122.8286  109.4966  111.4396 C   0  0  0  0  0  0  0  0  0  0  0  0
  124.0015  108.4309  106.7391 C   0  0  1  0  0  0  0  0  0  0  0  0
  125.3921  107.7525  106.6834 C   0  0  2  0  0  0  0  0  0  0  0  0
  123.6464  109.3174  109.0807 N   0  0  0  0  0  0  0  0  0  0  0  0
  122.6075  107.3588  108.5176 N   0  0  0  0  0  0  0  0  0  0  0  0
  122.3367  107.7152  109.7825 N   0  0  0  0  0  0  0  0  0  0  0  0
  123.0755  107.8515  105.7596 N   0  0  0  0  0  0  0  0  0  0  0  0
  125.9301  107.8984  105.3646 O   0  0  0  0  0  0  0  0  0  0  0  0
  121.3361  110.9727  110.8623 H   0  0  0  0  0  0  0  0  0  0  0  0
  121.4457  110.7170  112.6124 H   0  0  0  0  0  0  0  0  0  0  0  0
  120.6566  109.5067  111.5865 H   0  0  0  0  0  0  0  0  0  0  0  0
  124.6743  105.7169  106.3404 H   0  0  0  0  0  0  0  0  0  0  0  0
  125.0702  106.0809  108.0370 H   0  0  0  0  0  0  0  0  0  0  0  0
  126.3611  105.8238  106.8728 H   0  0  0  0  0  0  0  0  0  0  0  0
  122.9401  108.7437  112.2460 H   0  0  0  0  0  0  0  0  0  0  0  0
  123.6437  110.2245  111.6281 H   0  0  0  0  0  0  0  0  0  0  0  0
  124.1317  109.4899  106.4790 H   0  0  0  0  0  0  0  0  0  0  0  0
  126.0957  108.2374  107.3697 H   0  0  0  0  0  0  0  0  0  0  0  0
  121.7345  107.1255  110.3448 H   0  0  0  0  0  0  0  0  0  0  0  0
  123.4510  107.5509  104.8900 H   0  0  0  0  0  0  0  0  0  0  0  0
  122.1015  107.9694  105.9184 H   0  0  0  0  0  0  0  0  0  0  0  0
  126.8181  107.5142  105.3917 H   0  0  0  0  0  0  0  0  0  0  0  0
  1  6  1  0  0  0  0
  1  8  1  0  0  0  0
  1  9  2  0  0  0  0
  2  5  1  0  0  0  0
  2  8  2  0  0  0  0
  2 10  1  0  0  0  0
  3  5  1  0  0  0  0
  4  7  1  0  0  0  0
  6  7  1  0  0  0  0
  6 11  1  0  0  0  0
  7 12  1  0  0  0  0
  9 10  1  0  0  0  0
  3 13  1  0  0  0  0
  3 14  1  0  0  0  0
  3 15  1  0  0  0  0
  4 16  1  0  0  0  0
  4 17  1  0  0  0  0
  4 18  1  0  0  0  0
  5 19  1  0  0  0  0
  5 20  1  0  0  0  0
  6 21  1  0  0  0  0
  7 22  1  0  0  0  0
 10 23  1  0  0  0  0
 11 24  1  0  0  0  0
 11 25  1  0  0  0  0
 12 26  1  0  0  0  0
M  END
> <FRED Chemgauss4 score>
-8.486809

$$$$
C85419065	P133674711
  -OEChem-05122015313D

 24 24  0     1  0  0  0  0  0999 V2000
  124.9689  105.7620  107.1759 C   0  0  0  0  0  0  0  0  0  0  0  0
  124.4852  108.0137  109.1143 C   0  0  0  0  0  0  0  0  0  0  0  0
  125.1414  108.1180  107.9137 C   0  0  0  0  0  0  0  0  0  0  0  0
  123.7589  108.9721  111.8736 C   0  0  0  0  0  0  0  0  0  0  0  0
  123.4950  109.7957  110.6136 C   0  0  0  0  0  0  0  0  0  0  0  0
  123.0711  109.5282  113.1142 C   0  0  0  0  0  0  0  0  0  0  0  0
  125.7001  107.0538  107.0698 C   0  0  2  0  0  0  0  0  0  0  0  0
  124.3814  104.7667  107.2812 N   0  0  0  0  0  0  0  0  0  0  0  0
  125.2263  109.4331  107.5492 N   0  0  0  0  0  0  0  0  0  0  0  0
  124.6386  110.1576  108.4950 N   0  0  0  0  0  0  0  0  0  0  0  0
  124.1950  109.3047  109.4326 N   0  0  0  0  0  0  0  0  0  0  0  0
  125.7828  107.4259  105.6598 N   0  0  0  0  0  0  0  0  0  0  0  0
  123.3632  108.6795  114.2169 O   0  0  0  0  0  0  0  0  0  0  0  0
  124.2113  107.1754  109.7392 H   0  0  0  0  0  0  0  0  0  0  0  0
  124.8407  108.9390  112.0556 H   0  0  0  0  0  0  0  0  0  0  0  0
  123.4534  107.9284  111.7272 H   0  0  0  0  0  0  0  0  0  0  0  0
  122.4223  109.8330  110.3900 H   0  0  0  0  0  0  0  0  0  0  0  0
  123.8231  110.8310  110.7684 H   0  0  0  0  0  0  0  0  0  0  0  0
  121.9849  109.5600  112.9866 H   0  0  0  0  0  0  0  0  0  0  0  0
  123.4348  110.5345  113.3447 H   0  0  0  0  0  0  0  0  0  0  0  0
  126.7578  106.8357  107.3356 H   0  0  0  0  0  0  0  0  0  0  0  0
  125.7958  106.6950  104.9821 H   0  0  0  0  0  0  0  0  0  0  0  0
  126.0263  108.3665  105.4368 H   0  0  0  0  0  0  0  0  0  0  0  0
  122.9129  109.0589  114.9887 H   0  0  0  0  0  0  0  0  0  0  0  0
  1  7  1  0  0  0  0
  1  8  3  0  0  0  0
  2  3  2  0  0  0  0
  2 11  1  0  0  0  0
  3  7  1  0  0  0  0
  3  9  1  0  0  0  0
  4  5  1  0  0  0  0
  4  6  1  0  0  0  0
  5 11  1  0  0  0  0
  6 13  1  0  0  0  0
  7 12  1  0  0  0  0
  9 10  2  0  0  0  0
 10 11  1  0  0  0  0
  2 14  1  0  0  0  0
  4 15  1  0  0  0  0
  4 16  1  0  0  0  0
  5 17  1  0  0  0  0
  5 18  1  0  0  0  0
  6 19  1  0  0  0  0
  6 20  1  0  0  0  0
  7 21  1  0  0  0  0
 12 22  1  0  0  0  0
 12 23  1  0  0  0  0
 13 24  1  0  0  0  0
M  END
> <FRED Chemgauss4 score>
-8.483672

$$$$
C86453848	P135358716
  -OEChem-05122015313D

 24 25  0     0  0  0  0  0  0999 V2000
  125.4003  108.3072  107.7447 C   0  0  0  0  0  0  0  0  0  0  0  0
  123.6751  106.6021  108.4010 C   0  0  0  0  0  0  0  0  0  0  0  0
  123.9096  108.6165  109.4649 C   0  0  0  0  0  0  0  0  0  0  0  0
  126.0967  104.7736  107.9858 C   0  0  0  0  0  0  0  0  0  0  0  0
  126.2221  106.0198  108.8788 C   0  0  0  0  0  0  0  0  0  0  0  0
  125.6443  105.7003  106.8430 C   0  0  0  0  0  0  0  0  0  0  0  0
  125.1839  106.7350  107.9388 C   0  0  0  0  0  0  0  0  0  0  0  0
  123.5825  109.5615  110.5865 C   0  0  0  0  0  0  0  0  0  0  0  0
  124.7615  109.1306  108.5176 N   0  0  0  0  0  0  0  0  0  0  0  0
  123.3604  107.4429  109.4434 N   0  0  0  0  0  0  0  0  0  0  0  0
  122.4004  110.4005  110.3005 N   0  3  0  0  0  0  0  0  0  0  0  0
  126.1928  108.5424  106.8168 O   0  5  0  0  0  0  0  0  0  0  0  0
  122.8629  105.8089  107.9261 O   0  0  0  0  0  0  0  0  0  0  0  0
  127.0234  104.2214  107.8104 H   0  0  0  0  0  0  0  0  0  0  0  0
  125.3235  104.0706  108.3162 H   0  0  0  0  0  0  0  0  0  0  0  0
  125.9133  105.8746  109.9180 H   0  0  0  0  0  0  0  0  0  0  0  0
  127.2215  106.4705  108.8728 H   0  0  0  0  0  0  0  0  0  0  0  0
  126.4753  106.0119  106.2003 H   0  0  0  0  0  0  0  0  0  0  0  0
  124.8573  105.2911  106.2028 H   0  0  0  0  0  0  0  0  0  0  0  0
  124.4202  110.2343  110.7544 H   0  0  0  0  0  0  0  0  0  0  0  0
  123.3691  108.9966  111.4906 H   0  0  0  0  0  0  0  0  0  0  0  0
  121.5545  109.8276  110.1894 H   0  0  0  0  0  0  0  0  0  0  0  0
  122.5270  110.9394  109.4343 H   0  0  0  0  0  0  0  0  0  0  0  0
  122.2254  111.0698  111.0607 H   0  0  0  0  0  0  0  0  0  0  0  0
  1  7  1  0  0  0  0
  1  9  2  0  0  0  0
  1 12  1  0  0  0  0
  2  7  1  0  0  0  0
  2 10  1  0  0  0  0
  2 13  2  0  0  0  0
  3  8  1  0  0  0  0
  3  9  1  0  0  0  0
  3 10  2  0  0  0  0
  4  5  1  0  0  0  0
  4  6  1  0  0  0  0
  5  7  1  0  0  0  0
  6  7  1  0  0  0  0
  8 11  1  0  0  0  0
  4 14  1  0  0  0  0
  4 15  1  0  0  0  0
  5 16  1  0  0  0  0
  5 17  1  0  0  0  0
  6 18  1  0  0  0  0
  6 19  1  0  0  0  0
  8 20  1  0  0  0  0
  8 21  1  0  0  0  0
 11 22  1  0  0  0  0
 11 23  1  0  0  0  0
 11 24  1  0  0  0  0
M  CHG  2  11   1  12  -1
M  END
> <FRED Chemgauss4 score>
-8.479109

$$$$
C48630813	P72706607
  -OEChem-05122015313D

 31 31  0     1  0  0  0  0  0999 V2000
  124.3338  108.3817  107.7558 C   0  0  0  0  0  0  0  0  0  0  0  0
  123.6040  109.4426  109.3987 C   0  0  0  0  0  0  0  0  0  0  0  0
  123.9559  110.0895  111.7954 C   0  0  0  0  0  0  0  0  0  0  0  0
  125.8155  105.7524  108.5822 C   0  0  0  0  0  0  0  0  0  0  0  0
  125.0062  104.7075  106.4575 C   0  0  0  0  0  0  0  0  0  0  0  0
  123.3717  105.4500  108.1773 C   0  0  0  0  0  0  0  0  0  0  0  0
  122.9643  109.9113  110.6385 C   0  0  0  0  0  0  0  0  0  0  0  0
  124.6085  107.2201  106.8064 C   0  0  1  0  0  0  0  0  0  0  0  0
  124.7175  105.8089  107.5016 C   0  0  0  0  0  0  0  0  0  0  0  0
  123.5918  108.2315  108.8923 N   0  0  0  0  0  0  0  0  0  0  0  0
  124.8043  109.6096  107.5272 N   0  0  0  0  0  0  0  0  0  0  0  0
  124.3234  110.2685  108.5924 N   0  0  0  0  0  0  0  0  0  0  0  0
  123.6466  107.2292  105.6912 N   0  0  0  0  0  0  0  0  0  0  0  0
  124.4997  109.1579  111.9856 H   0  0  0  0  0  0  0  0  0  0  0  0
  123.4447  110.3782  112.7190 H   0  0  0  0  0  0  0  0  0  0  0  0
  124.6916  110.8654  111.5580 H   0  0  0  0  0  0  0  0  0  0  0  0
  125.6643  106.5136  109.3545 H   0  0  0  0  0  0  0  0  0  0  0  0
  125.8195  104.7772  109.0839 H   0  0  0  0  0  0  0  0  0  0  0  0
  126.8136  105.8915  108.1561 H   0  0  0  0  0  0  0  0  0  0  0  0
  124.2495  104.7067  105.6641 H   0  0  0  0  0  0  0  0  0  0  0  0
  124.9969  103.7085  106.9055 H   0  0  0  0  0  0  0  0  0  0  0  0
  125.9817  104.8600  105.9822 H   0  0  0  0  0  0  0  0  0  0  0  0
  122.5483  105.4736  107.4547 H   0  0  0  0  0  0  0  0  0  0  0  0
  123.4020  104.4426  108.6090 H   0  0  0  0  0  0  0  0  0  0  0  0
  123.1273  106.1374  108.9937 H   0  0  0  0  0  0  0  0  0  0  0  0
  122.4389  110.8753  110.4823 H   0  0  0  0  0  0  0  0  0  0  0  0
  122.1680  109.2145  110.9703 H   0  0  0  0  0  0  0  0  0  0  0  0
  125.5844  107.4186  106.3405 H   0  0  0  0  0  0  0  0  0  0  0  0
  124.5245  111.2563  108.6957 H   0  0  0  0  0  0  0  0  0  0  0  0
  123.5461  106.3934  105.1681 H   0  0  0  0  0  0  0  0  0  0  0  0
  123.3036  108.1095  105.3913 H   0  0  0  0  0  0  0  0  0  0  0  0
  1  8  1  0  0  0  0
  1 10  1  0  0  0  0
  1 11  2  0  0  0  0
  2  7  1  0  0  0  0
  2 10  2  0  0  0  0
  2 12  1  0  0  0  0
  3  7  1  0  0  0  0
  4  9  1  0  0  0  0
  5  9  1  0  0  0  0
  6  9  1  0  0  0  0
  8  9  1  0  0  0  0
  8 13  1  0  0  0  0
 11 12  1  0  0  0  0
  3 14  1  0  0  0  0
  3 15  1  0  0  0  0
  3 16  1  0  0  0  0
  4 17  1  0  0  0  0
  4 18  1  0  0  0  0
  4 19  1  0  0  0  0
  5 20  1  0  0  0  0
  5 21  1  0  0  0  0
  5 22  1  0  0  0  0
  6 23  1  0  0  0  0
  6 24  1  0  0  0  0
  6 25  1  0  0  0  0
  7 26  1  0  0  0  0
  7 27  1  0  0  0  0
  8 28  1  0  0  0  0
 12 29  1  0  0  0  0
 13 30  1  0  0  0  0
 13 31  1  0  0  0  0
M  END
> <FRED Chemgauss4 score>
-8.478110

$$$$
C39941433	P60608795
  -OEChem-05122015313D

 22 23  0     1  0  0  0  0  0999 V2000
  122.7272  106.1505  109.0742 C   0  0  0  0  0  0  0  0  0  0  0  0
  123.3490  107.3942  108.9395 C   0  0  0  0  0  0  0  0  0  0  0  0
  123.3902  104.9734  108.6948 C   0  0  0  0  0  0  0  0  0  0  0  0
  124.6283  107.4399  108.4072 C   0  0  0  0  0  0  0  0  0  0  0  0
  125.2895  106.2613  108.0340 C   0  0  0  0  0  0  0  0  0  0  0  0
  124.6853  105.0228  108.1764 C   0  0  0  0  0  0  0  0  0  0  0  0
  126.6763  106.5508  107.5390 C   0  0  0  0  0  0  0  0  0  0  0  0
  125.5259  108.6283  108.2084 C   0  0  1  0  0  0  0  0  0  0  0  0
  126.5731  108.0546  107.2275 C   0  0  2  0  0  0  0  0  0  0  0  0
  124.8637  109.8029  107.7164 N   0  0  0  0  0  0  0  0  0  0  0  0
  126.1279  108.2149  105.8775 O   0  0  0  0  0  0  0  0  0  0  0  0
  125.3235  103.8986  107.8299 F   0  0  0  0  0  0  0  0  0  0  0  0
  121.7227  106.0917  109.4845 H   0  0  0  0  0  0  0  0  0  0  0  0
  122.8357  108.2977  109.2512 H   0  0  0  0  0  0  0  0  0  0  0  0
  122.8934  104.0144  108.8132 H   0  0  0  0  0  0  0  0  0  0  0  0
  127.3940  106.3606  108.3435 H   0  0  0  0  0  0  0  0  0  0  0  0
  126.9192  105.9559  106.6535 H   0  0  0  0  0  0  0  0  0  0  0  0
  126.0064  108.8430  109.1685 H   0  0  0  0  0  0  0  0  0  0  0  0
  127.5396  108.5604  107.3118 H   0  0  0  0  0  0  0  0  0  0  0  0
  125.4053  110.4799  107.2188 H   0  0  0  0  0  0  0  0  0  0  0  0
  123.9455  110.0070  108.0550 H   0  0  0  0  0  0  0  0  0  0  0  0
  126.7917  107.7837  105.3197 H   0  0  0  0  0  0  0  0  0  0  0  0
  1  2  1  0  0  0  0
  1  3  2  0  0  0  0
  2  4  2  0  0  0  0
  3  6  1  0  0  0  0
  4  5  1  0  0  0  0
  4  8  1  0  0  0  0
  5  6  2  0  0  0  0
  5  7  1  0  0  0  0
  6 12  1  0  0  0  0
  7  9  1  0  0  0  0
  8  9  1  0  0  0  0
  8 10  1  0  0  0  0
  9 11  1  0  0  0  0
  1 13  1  0  0  0  0
  2 14  1  0  0  0  0
  3 15  1  0  0  0  0
  7 16  1  0  0  0  0
  7 17  1  0  0  0  0
  8 18  1  0  0  0  0
  9 19  1  0  0  0  0
 10 20  1  0  0  0  0
 10 21  1  0  0  0  0
 11 22  1  0  0  0  0
M  END
> <FRED Chemgauss4 score>
-8.471666

$$$$
C84405529	P132100048
  -OEChem-05122015313D

 27 27  0     1  0  0  0  0  0999 V2000
  123.7046  105.7274  105.9195 C   0  0  0  0  0  0  0  0  0  0  0  0
  123.3382  110.1657  110.5104 C   0  0  0  0  0  0  0  0  0  0  0  0
  124.8293  109.2462  108.7143 C   0  0  0  0  0  0  0  0  0  0  0  0
  123.0805  108.7632  111.0074 C   0  0  0  0  0  0  0  0  0  0  0  0
  123.1964  107.7464  109.8865 C   0  0  0  0  0  0  0  0  0  0  0  0
  124.5735  107.8492  109.2517 C   0  0  1  0  0  0  0  0  0  0  0  0
  123.9607  104.4507  106.6003 C   0  0  0  0  0  0  0  0  0  0  0  0
  125.1621  104.5625  107.5415 C   0  0  0  0  0  0  0  0  0  0  0  0
  124.9361  105.5696  108.6644 C   0  0  0  0  0  0  0  0  0  0  0  0
  123.5007  106.7348  105.3812 N   0  0  0  0  0  0  0  0  0  0  0  0
  124.1962  110.2689  109.4197 N   0  0  0  0  0  0  0  0  0  0  0  0
  124.7111  106.9171  108.1641 N   0  0  0  0  0  0  0  0  0  0  0  0
  122.8549  111.1460  111.0763 O   0  0  0  0  0  0  0  0  0  0  0  0
  125.5956  109.4697  107.7773 O   0  0  0  0  0  0  0  0  0  0  0  0
  123.7987  108.5479  111.8064 H   0  0  0  0  0  0  0  0  0  0  0  0
  122.0727  108.7258  111.4349 H   0  0  0  0  0  0  0  0  0  0  0  0
  123.0288  106.7392  110.2864 H   0  0  0  0  0  0  0  0  0  0  0  0
  122.4125  107.9368  109.1410 H   0  0  0  0  0  0  0  0  0  0  0  0
  125.3528  107.6480  110.0039 H   0  0  0  0  0  0  0  0  0  0  0  0
  123.0664  104.1556  107.1606 H   0  0  0  0  0  0  0  0  0  0  0  0
  124.1454  103.6703  105.8530 H   0  0  0  0  0  0  0  0  0  0  0  0
  126.0572  104.8389  106.9692 H   0  0  0  0  0  0  0  0  0  0  0  0
  125.3648  103.5808  107.9887 H   0  0  0  0  0  0  0  0  0  0  0  0
  124.0749  105.2917  109.2801 H   0  0  0  0  0  0  0  0  0  0  0  0
  125.8177  105.6122  109.3117 H   0  0  0  0  0  0  0  0  0  0  0  0
  124.3791  111.2125  109.0888 H   0  0  0  0  0  0  0  0  0  0  0  0
  125.4991  107.1992  107.5844 H   0  0  0  0  0  0  0  0  0  0  0  0
  1  7  1  0  0  0  0
  1 10  3  0  0  0  0
  2  4  1  0  0  0  0
  2 11  1  0  0  0  0
  2 13  2  0  0  0  0
  3  6  1  0  0  0  0
  3 11  1  0  0  0  0
  3 14  2  0  0  0  0
  4  5  1  0  0  0  0
  5  6  1  0  0  0  0
  6 12  1  0  0  0  0
  7  8  1  0  0  0  0
  8  9  1  0  0  0  0
  9 12  1  0  0  0  0
  4 15  1  0  0  0  0
  4 16  1  0  0  0  0
  5 17  1  0  0  0  0
  5 18  1  0  0  0  0
  6 19  1  0  0  0  0
  7 20  1  0  0  0  0
  7 21  1  0  0  0  0
  8 22  1  0  0  0  0
  8 23  1  0  0  0  0
  9 24  1  0  0  0  0
  9 25  1  0  0  0  0
 11 26  1  0  0  0  0
 12 27  1  0  0  0  0
M  END
> <FRED Chemgauss4 score>
-8.467822

$$$$
C97761753	P155131654
  -OEChem-05122015313D

 46 48  0     1  0  0  0  0  0999 V2000
  118.3290  103.6614  104.7963 C   0  0  0  0  0  0  0  0  0  0  0  0
  116.9702  104.0197  104.7118 C   0  0  0  0  0  0  0  0  0  0  0  0
  119.0037  104.7575  104.3168 C   0  0  0  0  0  0  0  0  0  0  0  0
  124.9448  105.4988  107.1152 C   0  0  0  0  0  0  0  0  0  0  0  0
  124.7699  106.7821  106.2864 C   0  0  0  0  0  0  0  0  0  0  0  0
  123.5108  105.6984  107.6327 C   0  0  0  0  0  0  0  0  0  0  0  0
  120.4278  106.9870  105.7125 C   0  0  0  0  0  0  0  0  0  0  0  0
  122.6222  105.8797  105.1636 C   0  0  0  0  0  0  0  0  0  0  0  0
  121.1046  107.6602  106.8991 C   0  0  0  0  0  0  0  0  0  0  0  0
  121.1174  105.6571  105.3759 C   0  0  2  0  0  0  0  0  0  0  0  0
  123.2271  106.5867  106.3821 C   0  0  0  0  0  0  0  0  0  0  0  0
  115.8027  103.2081  105.0947 C   0  0  0  0  0  0  0  0  0  0  0  0
  117.6491  108.0776  104.3082 C   0  0  0  0  0  0  0  0  0  0  0  0
  118.2556  106.9898  103.4385 C   0  0  0  0  0  0  0  0  0  0  0  0
  120.4850  105.0156  104.1431 C   0  0  1  0  0  0  0  0  0  0  0  0
  116.7906  105.2476  104.2177 N   0  0  0  0  0  0  0  0  0  0  0  0
  118.0453  105.6703  103.9874 N   0  0  0  0  0  0  0  0  0  0  0  0
  120.6486  103.2891  102.5752 N   0  0  0  0  0  0  0  0  0  0  0  0
  121.1943  103.8061  103.7932 N   0  0  0  0  0  0  0  0  0  0  0  0
  122.4988  107.8131  106.6432 O   0  0  0  0  0  0  0  0  0  0  0  0
  118.7599  102.7372  105.1540 H   0  0  0  0  0  0  0  0  0  0  0  0
  125.0733  104.5953  106.5087 H   0  0  0  0  0  0  0  0  0  0  0  0
  125.7305  105.5287  107.8743 H   0  0  0  0  0  0  0  0  0  0  0  0
  125.1327  107.6847  106.7927 H   0  0  0  0  0  0  0  0  0  0  0  0
  125.2044  106.7491  105.2832 H   0  0  0  0  0  0  0  0  0  0  0  0
  122.9222  104.7816  107.7259 H   0  0  0  0  0  0  0  0  0  0  0  0
  123.4597  106.2434  108.5829 H   0  0  0  0  0  0  0  0  0  0  0  0
  119.3661  106.8268  105.9309 H   0  0  0  0  0  0  0  0  0  0  0  0
  120.4886  107.6528  104.8420 H   0  0  0  0  0  0  0  0  0  0  0  0
  123.1165  104.9181  104.9793 H   0  0  0  0  0  0  0  0  0  0  0  0
  122.7826  106.4953  104.2689 H   0  0  0  0  0  0  0  0  0  0  0  0
  120.6789  108.6546  107.0639 H   0  0  0  0  0  0  0  0  0  0  0  0
  120.9667  107.0794  107.8177 H   0  0  0  0  0  0  0  0  0  0  0  0
  120.9765  104.9740  106.2237 H   0  0  0  0  0  0  0  0  0  0  0  0
  115.5279  103.3743  106.1504 H   0  0  0  0  0  0  0  0  0  0  0  0
  114.9144  103.4389  104.4799 H   0  0  0  0  0  0  0  0  0  0  0  0
  115.9862  102.1263  104.9654 H   0  0  0  0  0  0  0  0  0  0  0  0
  116.5696  107.9349  104.4251 H   0  0  0  0  0  0  0  0  0  0  0  0
  117.8166  109.0608  103.8577 H   0  0  0  0  0  0  0  0  0  0  0  0
  118.0956  108.0794  105.3081 H   0  0  0  0  0  0  0  0  0  0  0  0
  119.3353  107.1410  103.3274 H   0  0  0  0  0  0  0  0  0  0  0  0
  117.8192  107.0106  102.4335 H   0  0  0  0  0  0  0  0  0  0  0  0
  120.6340  105.6975  103.2967 H   0  0  0  0  0  0  0  0  0  0  0  0
  119.9256  103.9220  102.2340 H   0  0  0  0  0  0  0  0  0  0  0  0
  121.3736  103.2828  101.8589 H   0  0  0  0  0  0  0  0  0  0  0  0
  121.0773  103.1042  104.5284 H   0  0  0  0  0  0  0  0  0  0  0  0
  1  2  1  0  0  0  0
  1  3  2  0  0  0  0
  2 12  1  0  0  0  0
  2 16  2  0  0  0  0
  3 15  1  0  0  0  0
  3 17  1  0  0  0  0
  4  5  1  0  0  0  0
  4  6  1  0  0  0  0
  5 11  1  0  0  0  0
  6 11  1  0  0  0  0
  7  9  1  0  0  0  0
  7 10  1  0  0  0  0
  8 10  1  0  0  0  0
  8 11  1  0  0  0  0
  9 20  1  0  0  0  0
 10 15  1  0  0  0  0
 11 20  1  0  0  0  0
 13 14  1  0  0  0  0
 14 17  1  0  0  0  0
 15 19  1  0  0  0  0
 16 17  1  0  0  0  0
 18 19  1  0  0  0  0
  1 21  1  0  0  0  0
  4 22  1  0  0  0  0
  4 23  1  0  0  0  0
  5 24  1  0  0  0  0
  5 25  1  0  0  0  0
  6 26  1  0  0  0  0
  6 27  1  0  0  0  0
  7 28  1  0  0  0  0
  7 29  1  0  0  0  0
  8 30  1  0  0  0  0
  8 31  1  0  0  0  0
  9 32  1  0  0  0  0
  9 33  1  0  0  0  0
 10 34  1  0  0  0  0
 12 35  1  0  0  0  0
 12 36  1  0  0  0  0
 12 37  1  0  0  0  0
 13 38  1  0  0  0  0
 13 39  1  0  0  0  0
 13 40  1  0  0  0  0
 14 41  1  0  0  0  0
 14 42  1  0  0  0  0
 15 43  1  0  0  0  0
 18 44  1  0  0  0  0
 18 45  1  0  0  0  0
 19 46  1  0  0  0  0
M  END
> <FRED Chemgauss4 score>
-8.467319

$$$$
C03869939	P56792461
  -OEChem-05122015313D

 22 22  0     1  0  0  0  0  0999 V2000
  123.9623  107.1599  106.6297 C   0  0  0  0  0  0  0  0  0  0  0  0
  125.3976  107.2113  106.1574 C   0  0  2  0  0  0  0  0  0  0  0  0
  126.3742  107.4728  107.3004 C   0  0  2  0  0  0  0  0  0  0  0  0
  125.9447  106.8153  108.6158 C   0  0  1  0  0  0  0  0  0  0  0  0
  124.8416  105.7720  108.4403 C   0  0  2  0  0  0  0  0  0  0  0  0
  125.2761  104.4282  107.8631 C   0  0  0  0  0  0  0  0  0  0  0  0
  123.0495  107.7630  106.0753 O   0  0  0  0  0  0  0  0  0  0  0  0
  123.7402  106.3335  107.6874 O   0  0  0  0  0  0  0  0  0  0  0  0
  125.5571  108.1893  105.1439 O   0  0  0  0  0  0  0  0  0  0  0  0
  126.4728  108.8841  107.5243 O   0  0  0  0  0  0  0  0  0  0  0  0
  127.0863  106.2570  109.2566 O   0  0  0  0  0  0  0  0  0  0  0  0
  125.8654  103.6617  108.8979 O   0  0  0  0  0  0  0  0  0  0  0  0
  125.6159  106.2314  105.7083 H   0  0  0  0  0  0  0  0  0  0  0  0
  127.3806  107.1364  107.0054 H   0  0  0  0  0  0  0  0  0  0  0  0
  125.5648  107.6144  109.3105 H   0  0  0  0  0  0  0  0  0  0  0  0
  124.4090  105.5760  109.4612 H   0  0  0  0  0  0  0  0  0  0  0  0
  126.0069  104.5824  107.0688 H   0  0  0  0  0  0  0  0  0  0  0  0
  124.4113  103.8947  107.4679 H   0  0  0  0  0  0  0  0  0  0  0  0
  124.9725  107.9353  104.4102 H   0  0  0  0  0  0  0  0  0  0  0  0
  127.0997  109.0042  108.2542 H   0  0  0  0  0  0  0  0  0  0  0  0
  126.7717  105.8533  110.0805 H   0  0  0  0  0  0  0  0  0  0  0  0
  126.1333  102.8127  108.5068 H   0  0  0  0  0  0  0  0  0  0  0  0
  1  2  1  0  0  0  0
  1  7  2  0  0  0  0
  1  8  1  0  0  0  0
  2  3  1  0  0  0  0
  2  9  1  0  0  0  0
  3  4  1  0  0  0  0
  3 10  1  0  0  0  0
  4  5  1  0  0  0  0
  4 11  1  0  0  0  0
  5  6  1  0  0  0  0
  5  8  1  0  0  0  0
  6 12  1  0  0  0  0
  2 13  1  0  0  0  0
  3 14  1  0  0  0  0
  4 15  1  0  0  0  0
  5 16  1  0  0  0  0
  6 17  1  0  0  0  0
  6 18  1  0  0  0  0
  9 19  1  0  0  0  0
 10 20  1  0  0  0  0
 11 21  1  0  0  0  0
 12 22  1  0  0  0  0
M  END
> <FRED Chemgauss4 score>
-8.465427

$$$$
C82996710	P129767449
  -OEChem-05122015313D

 33 33  0     1  0  0  0  0  0999 V2000
  124.5117  107.4847  106.2345 C   0  0  0  0  0  0  0  0  0  0  0  0
  126.4774  107.1984  107.5037 C   0  0  0  0  0  0  0  0  0  0  0  0
  125.5710  105.9985  107.7340 C   0  0  0  0  0  0  0  0  0  0  0  0
  118.6777  103.8044  104.0867 C   0  0  0  0  0  0  0  0  0  0  0  0
  119.1656  103.8189  106.5598 C   0  0  0  0  0  0  0  0  0  0  0  0
  123.3622  105.2754  106.7293 C   0  0  0  0  0  0  0  0  0  0  0  0
  120.2979  104.8349  106.7021 C   0  0  0  0  0  0  0  0  0  0  0  0
  122.3285  105.4364  107.8313 C   0  0  0  0  0  0  0  0  0  0  0  0
  118.1534  104.1806  105.4665 C   0  0  2  0  0  0  0  0  0  0  0  0
  125.7143  108.0767  106.6538 N   0  0  0  0  0  0  0  0  0  0  0  0
  124.4387  106.2212  106.8524 N   0  0  0  0  0  0  0  0  0  0  0  0
  121.2454  104.4587  107.7144 N   0  0  0  0  0  0  0  0  0  0  0  0
  123.6922  107.9867  105.4765 O   0  0  0  0  0  0  0  0  0  0  0  0
  116.9379  103.4763  105.7037 O   0  0  0  0  0  0  0  0  0  0  0  0
  126.7342  107.7169  108.4312 H   0  0  0  0  0  0  0  0  0  0  0  0
  127.3956  106.9225  106.9768 H   0  0  0  0  0  0  0  0  0  0  0  0
  126.0616  105.0543  107.4802 H   0  0  0  0  0  0  0  0  0  0  0  0
  125.2087  105.9578  108.7661 H   0  0  0  0  0  0  0  0  0  0  0  0
  118.9065  102.7344  104.0322 H   0  0  0  0  0  0  0  0  0  0  0  0
  117.9524  104.0497  103.3050 H   0  0  0  0  0  0  0  0  0  0  0  0
  119.6113  104.3364  103.8736 H   0  0  0  0  0  0  0  0  0  0  0  0
  119.6195  102.8487  106.3212 H   0  0  0  0  0  0  0  0  0  0  0  0
  118.6467  103.7127  107.5203 H   0  0  0  0  0  0  0  0  0  0  0  0
  122.9158  105.4149  105.7396 H   0  0  0  0  0  0  0  0  0  0  0  0
  123.8062  104.2760  106.7735 H   0  0  0  0  0  0  0  0  0  0  0  0
  120.8509  104.9092  105.7601 H   0  0  0  0  0  0  0  0  0  0  0  0
  119.9198  105.8313  106.9496 H   0  0  0  0  0  0  0  0  0  0  0  0
  122.7926  105.2862  108.8109 H   0  0  0  0  0  0  0  0  0  0  0  0
  121.8758  106.4330  107.8109 H   0  0  0  0  0  0  0  0  0  0  0  0
  117.9336  105.2534  105.4914 H   0  0  0  0  0  0  0  0  0  0  0  0
  126.0261  108.9944  106.3524 H   0  0  0  0  0  0  0  0  0  0  0  0
  120.7802  104.3830  108.6261 H   0  0  0  0  0  0  0  0  0  0  0  0
  116.3199  103.7485  105.0075 H   0  0  0  0  0  0  0  0  0  0  0  0
  1 10  1  0  0  0  0
  1 11  1  0  0  0  0
  1 13  2  0  0  0  0
  2  3  1  0  0  0  0
  2 10  1  0  0  0  0
  3 11  1  0  0  0  0
  4  9  1  0  0  0  0
  5  7  1  0  0  0  0
  5  9  1  0  0  0  0
  6  8  1  0  0  0  0
  6 11  1  0  0  0  0
  7 12  1  0  0  0  0
  8 12  1  0  0  0  0
  9 14  1  0  0  0  0
  2 15  1  0  0  0  0
  2 16  1  0  0  0  0
  3 17  1  0  0  0  0
  3 18  1  0  0  0  0
  4 19  1  0  0  0  0
  4 20  1  0  0  0  0
  4 21  1  0  0  0  0
  5 22  1  0  0  0  0
  5 23  1  0  0  0  0
  6 24  1  0  0  0  0
  6 25  1  0  0  0  0
  7 26  1  0  0  0  0
  7 27  1  0  0  0  0
  8 28  1  0  0  0  0
  8 29  1  0  0  0  0
  9 30  1  0  0  0  0
 10 31  1  0  0  0  0
 12 32  1  0  0  0  0
 14 33  1  0  0  0  0
M  END
> <FRED Chemgauss4 score>
-8.462030

$$$$
C86057603	P134789567
  -OEChem-05122015313D

 23 23  0     1  0  0  0  0  0999 V2000
  125.8058  104.8554  108.3569 C   0  0  0  0  0  0  0  0  0  0  0  0
  125.6288  106.9107  108.0384 C   0  0  0  0  0  0  0  0  0  0  0  0
  124.7984  109.1584  108.7570 C   0  0  0  0  0  0  0  0  0  0  0  0
  123.5364  109.3091  109.2049 C   0  0  0  0  0  0  0  0  0  0  0  0
  123.1246  110.1602  110.3727 C   0  0  0  0  0  0  0  0  0  0  0  0
  122.3957  108.6048  108.5190 C   0  0  0  0  0  0  0  0  0  0  0  0
  125.2723  108.3190  107.5914 C   0  0  1  0  0  0  0  0  0  0  0  0
  125.1167  105.7763  107.6209 N   0  0  0  0  0  0  0  0  0  0  0  0
  126.7121  105.3486  109.2035 N   0  0  0  0  0  0  0  0  0  0  0  0
  126.5788  106.6649  108.9801 N   0  0  0  0  0  0  0  0  0  0  0  0
  126.4077  108.9681  106.9163 N   0  0  0  0  0  0  0  0  0  0  0  0
  125.6423  103.7913  108.2736 H   0  0  0  0  0  0  0  0  0  0  0  0
  125.5843  109.7081  109.2767 H   0  0  0  0  0  0  0  0  0  0  0  0
  122.8938  111.1762  110.0342 H   0  0  0  0  0  0  0  0  0  0  0  0
  123.8944  110.2515  111.1416 H   0  0  0  0  0  0  0  0  0  0  0  0
  122.2283  109.7433  110.8435 H   0  0  0  0  0  0  0  0  0  0  0  0
  122.2014  107.6133  108.9417 H   0  0  0  0  0  0  0  0  0  0  0  0
  122.6155  108.4743  107.4542 H   0  0  0  0  0  0  0  0  0  0  0  0
  121.4762  109.1919  108.6152 H   0  0  0  0  0  0  0  0  0  0  0  0
  124.4864  108.2566  106.8314 H   0  0  0  0  0  0  0  0  0  0  0  0
  127.1581  107.3158  109.4974 H   0  0  0  0  0  0  0  0  0  0  0  0
  126.4051  109.9584  106.8665 H   0  0  0  0  0  0  0  0  0  0  0  0
  127.0063  108.3935  106.3732 H   0  0  0  0  0  0  0  0  0  0  0  0
  1  8  1  0  0  0  0
  1  9  2  0  0  0  0
  2  7  1  0  0  0  0
  2  8  2  0  0  0  0
  2 10  1  0  0  0  0
  3  4  2  0  0  0  0
  3  7  1  0  0  0  0
  4  5  1  0  0  0  0
  4  6  1  0  0  0  0
  7 11  1  0  0  0  0
  9 10  1  0  0  0  0
  1 12  1  0  0  0  0
  3 13  1  0  0  0  0
  5 14  1  0  0  0  0
  5 15  1  0  0  0  0
  5 16  1  0  0  0  0
  6 17  1  0  0  0  0
  6 18  1  0  0  0  0
  6 19  1  0  0  0  0
  7 20  1  0  0  0  0
 10 21  1  0  0  0  0
 11 22  1  0  0  0  0
 11 23  1  0  0  0  0
M  END
> <FRED Chemgauss4 score>
-8.460302

$$$$
C72197386	P112154929
  -OEChem-05122015313D

 24 24  0     1  0  0  0  0  0999 V2000
  124.8435  103.7521  107.3032 C   0  0  0  0  0  0  0  0  0  0  0  0
  123.4396  107.3558  108.9960 C   0  0  0  0  0  0  0  0  0  0  0  0
  122.6415  106.2132  109.0495 C   0  0  0  0  0  0  0  0  0  0  0  0
  125.1487  106.1074  107.8308 C   0  0  0  0  0  0  0  0  0  0  0  0
  124.3506  104.9648  107.8843 C   0  0  0  0  0  0  0  0  0  0  0  0
  124.6933  107.3030  108.3866 C   0  0  0  0  0  0  0  0  0  0  0  0
  123.0969  105.0176  108.4937 C   0  0  0  0  0  0  0  0  0  0  0  0
  126.8890  108.2955  107.6125 C   0  0  0  0  0  0  0  0  0  0  0  0
  125.5455  108.5254  108.3285 C   0  0  1  0  0  0  0  0  0  0  0  0
  125.2429  102.7695  106.8323 N   0  0  0  0  0  0  0  0  0  0  0  0
  122.2665  103.8755  108.5615 N   0  0  0  0  0  0  0  0  0  0  0  0
  124.8425  109.6393  107.7097 N   0  0  0  0  0  0  0  0  0  0  0  0
  126.6600  107.9071  106.2618 O   0  0  0  0  0  0  0  0  0  0  0  0
  123.0765  108.2830  109.4309 H   0  0  0  0  0  0  0  0  0  0  0  0
  121.6657  106.2666  109.5255 H   0  0  0  0  0  0  0  0  0  0  0  0
  126.1278  106.0751  107.3567 H   0  0  0  0  0  0  0  0  0  0  0  0
  127.4763  109.2202  107.5963 H   0  0  0  0  0  0  0  0  0  0  0  0
  127.4803  107.5126  108.0999 H   0  0  0  0  0  0  0  0  0  0  0  0
  125.7725  108.8879  109.3474 H   0  0  0  0  0  0  0  0  0  0  0  0
  121.3957  103.9377  109.0458 H   0  0  0  0  0  0  0  0  0  0  0  0
  122.6078  103.0068  108.2072 H   0  0  0  0  0  0  0  0  0  0  0  0
  125.3836  110.3787  107.3108 H   0  0  0  0  0  0  0  0  0  0  0  0
  123.8621  109.7339  107.8791 H   0  0  0  0  0  0  0  0  0  0  0  0
  127.5328  107.7759  105.8591 H   0  0  0  0  0  0  0  0  0  0  0  0
  1  5  1  0  0  0  0
  1 10  3  0  0  0  0
  2  3  1  0  0  0  0
  2  6  2  0  0  0  0
  3  7  2  0  0  0  0
  4  5  2  0  0  0  0
  4  6  1  0  0  0  0
  5  7  1  0  0  0  0
  6  9  1  0  0  0  0
  7 11  1  0  0  0  0
  8  9  1  0  0  0  0
  8 13  1  0  0  0  0
  9 12  1  0  0  0  0
  2 14  1  0  0  0  0
  3 15  1  0  0  0  0
  4 16  1  0  0  0  0
  8 17  1  0  0  0  0
  8 18  1  0  0  0  0
  9 19  1  0  0  0  0
 11 20  1  0  0  0  0
 11 21  1  0  0  0  0
 12 22  1  0  0  0  0
 12 23  1  0  0  0  0
 13 24  1  0  0  0  0
M  END
> <FRED Chemgauss4 score>
-8.459424

$$$$
C38600476	P58429224
  -OEChem-05122015313D

 25 25  0     1  0  0  0  0  0999 V2000
  125.9282  107.7442  107.3350 C   0  0  1  0  0  0  0  0  0  0  0  0
  125.4663  106.9700  108.5757 C   0  0  1  0  0  0  0  0  0  0  0  0
  124.7290  108.0824  106.4383 C   0  0  2  0  0  0  0  0  0  0  0  0
  124.5770  105.7767  108.2000 C   0  0  2  0  0  0  0  0  0  0  0  0
  123.8647  106.8474  106.1695 C   0  0  1  0  0  0  0  0  0  0  0  0
  125.3207  104.6011  107.5634 C   0  0  0  0  0  0  0  0  0  0  0  0
  126.6263  108.9668  107.7520 N   0  0  0  0  0  0  0  0  0  0  0  0
  123.4852  106.2077  107.3852 O   0  0  0  0  0  0  0  0  0  0  0  0
  126.5985  106.5268  109.3166 O   0  0  0  0  0  0  0  0  0  0  0  0
  125.1880  108.5756  105.1800 O   0  0  0  0  0  0  0  0  0  0  0  0
  122.6929  107.2822  105.4761 O   0  0  0  0  0  0  0  0  0  0  0  0
  124.3858  103.5757  107.2809 O   0  0  0  0  0  0  0  0  0  0  0  0
  126.6292  107.1227  106.7724 H   0  0  0  0  0  0  0  0  0  0  0  0
  124.8997  107.6462  109.2481 H   0  0  0  0  0  0  0  0  0  0  0  0
  124.1221  108.8671  106.8966 H   0  0  0  0  0  0  0  0  0  0  0  0
  124.1262  105.3766  109.1623 H   0  0  0  0  0  0  0  0  0  0  0  0
  124.3790  106.1418  105.5614 H   0  0  0  0  0  0  0  0  0  0  0  0
  126.0751  104.2207  108.2523 H   0  0  0  0  0  0  0  0  0  0  0  0
  125.7970  104.9197  106.6360 H   0  0  0  0  0  0  0  0  0  0  0  0
  126.6863  109.7122  107.0969 H   0  0  0  0  0  0  0  0  0  0  0  0
  127.1780  108.9261  108.5782 H   0  0  0  0  0  0  0  0  0  0  0  0
  126.2503  106.0479  110.0827 H   0  0  0  0  0  0  0  0  0  0  0  0
  125.7216  107.8679  104.7902 H   0  0  0  0  0  0  0  0  0  0  0  0
  122.1567  106.4903  105.3133 H   0  0  0  0  0  0  0  0  0  0  0  0
  124.8804  102.8417  106.8782 H   0  0  0  0  0  0  0  0  0  0  0  0
  1  2  1  0  0  0  0
  1  3  1  0  0  0  0
  1  7  1  0  0  0  0
  2  4  1  0  0  0  0
  2  9  1  0  0  0  0
  3  5  1  0  0  0  0
  3 10  1  0  0  0  0
  4  6  1  0  0  0  0
  4  8  1  0  0  0  0
  5  8  1  0  0  0  0
  5 11  1  0  0  0  0
  6 12  1  0  0  0  0
  1 13  1  0  0  0  0
  2 14  1  0  0  0  0
  3 15  1  0  0  0  0
  4 16  1  0  0  0  0
  5 17  1  0  0  0  0
  6 18  1  0  0  0  0
  6 19  1  0  0  0  0
  7 20  1  0  0  0  0
  7 21  1  0  0  0  0
  9 22  1  0  0  0  0
 10 23  1  0  0  0  0
 11 24  1  0  0  0  0
 12 25  1  0  0  0  0
M  END
> <FRED Chemgauss4 score>
-8.449771

$$$$
C95869931	P150894235
  -OEChem-05122015313D

 32 33  0     1  0  0  0  0  0999 V2000
  124.5779  106.3392  107.8253 C   0  0  0  0  0  0  0  0  0  0  0  0
  124.3295  108.0947  106.0493 C   0  0  0  0  0  0  0  0  0  0  0  0
  126.0296  108.1348  107.6524 C   0  0  0  0  0  0  0  0  0  0  0  0
  122.8419  104.6147  107.9831 C   0  0  0  0  0  0  0  0  0  0  0  0
  123.6550  106.9920  106.8269 C   0  0  1  0  0  0  0  0  0  0  0  0
  122.6046  104.7776  106.4719 C   0  0  1  0  0  0  0  0  0  0  0  0
  119.3396  104.3762  104.3749 C   0  0  0  0  0  0  0  0  0  0  0  0
  121.1075  104.7498  106.1605 C   0  0  1  0  0  0  0  0  0  0  0  0
  120.8288  104.3801  104.6999 C   0  0  2  0  0  0  0  0  0  0  0  0
  125.6866  106.9091  108.1802 N   0  0  0  0  0  0  0  0  0  0  0  0
  125.4029  108.6978  106.6545 N   0  0  0  0  0  0  0  0  0  0  0  0
  124.1442  105.1357  108.3317 N   0  0  0  0  0  0  0  0  0  0  0  0
  123.2366  105.9653  105.8725 N   0  0  0  0  0  0  0  0  0  0  0  0
  127.1028  108.7804  108.2196 N   0  0  0  0  0  0  0  0  0  0  0  0
  123.8888  108.4720  104.9648 O   0  0  0  0  0  0  0  0  0  0  0  0
  120.4876  103.8020  107.0234 O   0  0  0  0  0  0  0  0  0  0  0  0
  121.4796  105.2942  103.8195 O   0  0  0  0  0  0  0  0  0  0  0  0
  122.0697  105.1189  108.5574 H   0  0  0  0  0  0  0  0  0  0  0  0
  122.8205  103.5561  108.2363 H   0  0  0  0  0  0  0  0  0  0  0  0
  122.8053  107.4170  107.3430 H   0  0  0  0  0  0  0  0  0  0  0  0
  123.0223  103.8945  105.9688 H   0  0  0  0  0  0  0  0  0  0  0  0
  118.8887  105.3538  104.5701 H   0  0  0  0  0  0  0  0  0  0  0  0
  119.1571  104.1057  103.3294 H   0  0  0  0  0  0  0  0  0  0  0  0
  118.8218  103.6265  104.9833 H   0  0  0  0  0  0  0  0  0  0  0  0
  120.6796  105.7324  106.3781 H   0  0  0  0  0  0  0  0  0  0  0  0
  121.2396  103.3861  104.4911 H   0  0  0  0  0  0  0  0  0  0  0  0
  124.7995  104.5058  108.7380 H   0  0  0  0  0  0  0  0  0  0  0  0
  122.5803  106.3846  105.1977 H   0  0  0  0  0  0  0  0  0  0  0  0
  127.5708  108.3353  108.9724 H   0  0  0  0  0  0  0  0  0  0  0  0
  127.3639  109.6639  107.8523 H   0  0  0  0  0  0  0  0  0  0  0  0
  119.5423  103.8047  106.8053 H   0  0  0  0  0  0  0  0  0  0  0  0
  121.3144  104.9742  102.9194 H   0  0  0  0  0  0  0  0  0  0  0  0
  1  5  1  0  0  0  0
  1 10  2  0  0  0  0
  1 12  1  0  0  0  0
  2  5  1  0  0  0  0
  2 11  1  0  0  0  0
  2 15  2  0  0  0  0
  3 10  1  0  0  0  0
  3 11  2  0  0  0  0
  3 14  1  0  0  0  0
  4  6  1  0  0  0  0
  4 12  1  0  0  0  0
  5 13  1  0  0  0  0
  6  8  1  0  0  0  0
  6 13  1  0  0  0  0
  7  9  1  0  0  0  0
  8  9  1  0  0  0  0
  8 16  1  0  0  0  0
  9 17  1  0  0  0  0
  4 18  1  0  0  0  0
  4 19  1  0  0  0  0
  5 20  1  0  0  0  0
  6 21  1  0  0  0  0
  7 22  1  0  0  0  0
  7 23  1  0  0  0  0
  7 24  1  0  0  0  0
  8 25  1  0  0  0  0
  9 26  1  0  0  0  0
 12 27  1  0  0  0  0
 13 28  1  0  0  0  0
 14 29  1  0  0  0  0
 14 30  1  0  0  0  0
 16 31  1  0  0  0  0
 17 32  1  0  0  0  0
M  END
> <FRED Chemgauss4 score>
-8.446987

$$$$
C85227510	P133359270
  -OEChem-05122015313D

 18 18  0     1  0  0  0  0  0999 V2000
  126.1845  106.6249  107.9640 C   0  0  0  0  0  0  0  0  0  0  0  0
  125.1813  108.0460  106.7190 C   0  0  0  0  0  0  0  0  0  0  0  0
  125.6392  104.3994  109.0101 C   0  0  0  0  0  0  0  0  0  0  0  0
  126.7471  105.3602  108.5711 C   0  0  2  0  0  0  0  0  0  0  0  0
  125.6941  108.7791  107.6393 N   0  0  0  0  0  0  0  0  0  0  0  0
  126.3356  107.8683  108.4352 N   0  0  0  0  0  0  0  0  0  0  0  0
  125.4445  106.7146  106.8592 N   0  3  0  0  0  0  0  0  0  0  0  0
  125.1382  103.6746  107.8641 N   0  0  0  0  0  0  0  0  0  0  0  0
  124.4210  108.5674  105.6690 O   0  5  0  0  0  0  0  0  0  0  0  0
  127.5506  105.7186  109.6958 O   0  0  0  0  0  0  0  0  0  0  0  0
  124.8072  104.9461  109.4673 H   0  0  0  0  0  0  0  0  0  0  0  0
  126.0118  103.6747  109.7424 H   0  0  0  0  0  0  0  0  0  0  0  0
  127.4129  104.8687  107.8508 H   0  0  0  0  0  0  0  0  0  0  0  0
  126.8465  108.1576  109.2641 H   0  0  0  0  0  0  0  0  0  0  0  0
  125.1435  105.9558  106.2546 H   0  0  0  0  0  0  0  0  0  0  0  0
  125.0480  104.1569  106.9883 H   0  0  0  0  0  0  0  0  0  0  0  0
  124.7046  102.7806  108.0090 H   0  0  0  0  0  0  0  0  0  0  0  0
  126.9644  106.1789  110.3151 H   0  0  0  0  0  0  0  0  0  0  0  0
  1  4  1  0  0  0  0
  1  6  1  0  0  0  0
  1  7  2  0  0  0  0
  2  5  2  0  0  0  0
  2  7  1  0  0  0  0
  2  9  1  0  0  0  0
  3  4  1  0  0  0  0
  3  8  1  0  0  0  0
  4 10  1  0  0  0  0
  5  6  1  0  0  0  0
  3 11  1  0  0  0  0
  3 12  1  0  0  0  0
  4 13  1  0  0  0  0
  6 14  1  0  0  0  0
  7 15  1  0  0  0  0
  8 16  1  0  0  0  0
  8 17  1  0  0  0  0
 10 18  1  0  0  0  0
M  CHG  2   7   1   9  -1
M  END
> <FRED Chemgauss4 score>
-8.446134

$$$$
C86660203	P135651933
  -OEChem-05122015313D

 28 28  0     1  0  0  0  0  0999 V2000
  123.7208  105.2481  107.2335 C   0  0  0  0  0  0  0  0  0  0  0  0
  125.0901  104.8732  107.7755 C   0  0  0  0  0  0  0  0  0  0  0  0
  123.8173  106.7325  106.8694 C   0  0  0  0  0  0  0  0  0  0  0  0
  125.5495  106.1472  108.4703 C   0  0  2  0  0  0  0  0  0  0  0  0
  125.1317  107.2335  107.4808 C   0  0  2  0  0  0  0  0  0  0  0  0
  124.0488  109.3979  111.3861 C   0  0  0  0  0  0  0  0  0  0  0  0
  123.3402  108.6020  109.0415 C   0  0  0  0  0  0  0  0  0  0  0  0
  123.0519  109.5163  110.2356 C   0  0  2  0  0  0  0  0  0  0  0  0
  126.9518  106.1432  108.6645 O   0  0  0  0  0  0  0  0  0  0  0  0
  123.4302  109.8754  112.5777 O   0  0  0  0  0  0  0  0  0  0  0  0
  122.9948  110.8717  109.7890 O   0  0  0  0  0  0  0  0  0  0  0  0
  124.9571  108.8586  108.2765 S   0  0  0  0  0  0  0  0  0  0  0  0
  123.4329  104.6304  106.3775 H   0  0  0  0  0  0  0  0  0  0  0  0
  122.9616  105.1106  108.0130 H   0  0  0  0  0  0  0  0  0  0  0  0
  125.0519  104.0202  108.4599 H   0  0  0  0  0  0  0  0  0  0  0  0
  125.7742  104.6038  106.9611 H   0  0  0  0  0  0  0  0  0  0  0  0
  123.8411  106.8565  105.7805 H   0  0  0  0  0  0  0  0  0  0  0  0
  122.9291  107.2606  107.2348 H   0  0  0  0  0  0  0  0  0  0  0  0
  125.0498  106.2484  109.4414 H   0  0  0  0  0  0  0  0  0  0  0  0
  125.8914  107.3413  106.6937 H   0  0  0  0  0  0  0  0  0  0  0  0
  124.3439  108.3596  111.5658 H   0  0  0  0  0  0  0  0  0  0  0  0
  124.9382  110.0076  111.1993 H   0  0  0  0  0  0  0  0  0  0  0  0
  122.5801  108.7520  108.2679 H   0  0  0  0  0  0  0  0  0  0  0  0
  123.2997  107.5548  109.3588 H   0  0  0  0  0  0  0  0  0  0  0  0
  122.0482  109.2853  110.6116 H   0  0  0  0  0  0  0  0  0  0  0  0
  127.1619  105.3707  109.2169 H   0  0  0  0  0  0  0  0  0  0  0  0
  124.0876  109.7864  113.2852 H   0  0  0  0  0  0  0  0  0  0  0  0
  122.3529  110.8935  109.0636 H   0  0  0  0  0  0  0  0  0  0  0  0
  1  2  1  0  0  0  0
  1  3  1  0  0  0  0
  2  4  1  0  0  0  0
  3  5  1  0  0  0  0
  4  5  1  0  0  0  0
  4  9  1  0  0  0  0
  5 12  1  0  0  0  0
  6  8  1  0  0  0  0
  6 10  1  0  0  0  0
  7  8  1  0  0  0  0
  7 12  1  0  0  0  0
  8 11  1  0  0  0  0
  1 13  1  0  0  0  0
  1 14  1  0  0  0  0
  2 15  1  0  0  0  0
  2 16  1  0  0  0  0
  3 17  1  0  0  0  0
  3 18  1  0  0  0  0
  4 19  1  0  0  0  0
  5 20  1  0  0  0  0
  6 21  1  0  0  0  0
  6 22  1  0  0  0  0
  7 23  1  0  0  0  0
  7 24  1  0  0  0  0
  8 25  1  0  0  0  0
  9 26  1  0  0  0  0
 10 27  1  0  0  0  0
 11 28  1  0  0  0  0
M  END
> <FRED Chemgauss4 score>
-8.442189

$$$$
C76166875	P118803985
  -OEChem-05122015313D

 17 17  0     1  0  0  0  0  0999 V2000
  123.1838  107.7294  106.3848 C   0  0  0  0  0  0  0  0  0  0  0  0
  125.2121  107.4589  106.9421 C   0  0  0  0  0  0  0  0  0  0  0  0
  126.3543  106.1278  108.7424 C   0  0  0  0  0  0  0  0  0  0  0  0
  126.4675  107.2971  107.7699 C   0  0  2  0  0  0  0  0  0  0  0  0
  125.1884  107.4388  105.5950 N   0  5  0  0  0  0  0  0  0  0  0  0
  123.9867  107.6368  107.4535 N   0  0  0  0  0  0  0  0  0  0  0  0
  123.8758  107.6146  105.2342 N   0  0  0  0  0  0  0  0  0  0  0  0
  127.6325  105.9895  109.4882 N   0  3  0  0  0  0  0  0  0  0  0  0
  126.6632  108.5054  108.5046 O   0  0  0  0  0  0  0  0  0  0  0  0
  122.1152  107.8793  106.4363 H   0  0  0  0  0  0  0  0  0  0  0  0
  126.1879  105.1746  108.2313 H   0  0  0  0  0  0  0  0  0  0  0  0
  125.5796  106.2842  109.4996 H   0  0  0  0  0  0  0  0  0  0  0  0
  127.3429  107.1630  107.1223 H   0  0  0  0  0  0  0  0  0  0  0  0
  128.4019  105.7580  108.8524 H   0  0  0  0  0  0  0  0  0  0  0  0
  127.5652  105.2462  110.1904 H   0  0  0  0  0  0  0  0  0  0  0  0
  127.8692  106.8624  109.9700 H   0  0  0  0  0  0  0  0  0  0  0  0
  126.7542  109.2130  107.8487 H   0  0  0  0  0  0  0  0  0  0  0  0
  1  6  1  0  0  0  0
  1  7  2  0  0  0  0
  2  4  1  0  0  0  0
  2  5  1  0  0  0  0
  2  6  2  0  0  0  0
  3  4  1  0  0  0  0
  3  8  1  0  0  0  0
  4  9  1  0  0  0  0
  5  7  1  0  0  0  0
  1 10  1  0  0  0  0
  3 11  1  0  0  0  0
  3 12  1  0  0  0  0
  4 13  1  0  0  0  0
  8 14  1  0  0  0  0
  8 15  1  0  0  0  0
  8 16  1  0  0  0  0
  9 17  1  0  0  0  0
M  CHG  2   5  -1   8   1
M  END
> <FRED Chemgauss4 score>
-8.441490

$$$$
C37461511	P55710219
  -OEChem-05122015313D

 27 27  0     1  0  0  0  0  0999 V2000
  122.7426  105.3738  106.7316 C   0  0  0  0  0  0  0  0  0  0  0  0
  126.3063  106.2156  107.7886 C   0  0  0  0  0  0  0  0  0  0  0  0
  124.9123  104.1235  107.2812 C   0  0  0  0  0  0  0  0  0  0  0  0
  123.9427  105.2372  107.5646 C   0  0  1  0  0  0  0  0  0  0  0  0
  125.2949  105.5430  106.9654 C   0  0  1  0  0  0  0  0  0  0  0  0
  120.7503  104.1433  105.8955 C   0  0  0  0  0  0  0  0  0  0  0  0
  119.5352  104.5286  106.7174 C   0  0  0  0  0  0  0  0  0  0  0  0
  118.4182  105.6135  104.5665 N   0  0  0  0  0  0  0  0  0  0  0  0
  121.9744  104.2275  106.6594 N   0  0  0  0  0  0  0  0  0  0  0  0
  122.5078  106.4431  106.1809 O   0  0  0  0  0  0  0  0  0  0  0  0
  126.4487  106.0594  108.9922 O   0  0  0  0  0  0  0  0  0  0  0  0
  117.9412  103.1579  105.1658 O   0  0  0  0  0  0  0  0  0  0  0  0
  116.9673  104.9970  106.5991 O   0  0  0  0  0  0  0  0  0  0  0  0
  127.0672  107.0429  107.0310 O   0  0  0  0  0  0  0  0  0  0  0  0
  118.0426  104.4721  105.7758 S   0  0  0  0  0  0  0  0  0  0  0  0
  125.3793  103.6366  108.1293 H   0  0  0  0  0  0  0  0  0  0  0  0
  124.7120  103.4605  106.4476 H   0  0  0  0  0  0  0  0  0  0  0  0
  123.7920  105.4899  108.6094 H   0  0  0  0  0  0  0  0  0  0  0  0
  125.3248  105.8110  105.9141 H   0  0  0  0  0  0  0  0  0  0  0  0
  120.6691  103.1209  105.5134 H   0  0  0  0  0  0  0  0  0  0  0  0
  120.8594  104.8221  105.0443 H   0  0  0  0  0  0  0  0  0  0  0  0
  119.6303  105.5570  107.0785 H   0  0  0  0  0  0  0  0  0  0  0  0
  119.3978  103.8642  107.5758 H   0  0  0  0  0  0  0  0  0  0  0  0
  118.5919  105.2639  103.6161 H   0  0  0  0  0  0  0  0  0  0  0  0
  117.9288  106.5164  104.5924 H   0  0  0  0  0  0  0  0  0  0  0  0
  122.2848  103.4047  107.1674 H   0  0  0  0  0  0  0  0  0  0  0  0
  127.7493  107.5041  107.5642 H   0  0  0  0  0  0  0  0  0  0  0  0
  1  4  1  0  0  0  0
  1  9  1  0  0  0  0
  1 10  2  0  0  0  0
  2  5  1  0  0  0  0
  2 11  2  0  0  0  0
  2 14  1  0  0  0  0
  3  4  1  0  0  0  0
  3  5  1  0  0  0  0
  4  5  1  0  0  0  0
  6  7  1  0  0  0  0
  6  9  1  0  0  0  0
  7 15  1  0  0  0  0
  8 15  1  0  0  0  0
 12 15  2  0  0  0  0
 13 15  2  0  0  0  0
  3 16  1  0  0  0  0
  3 17  1  0  0  0  0
  4 18  1  0  0  0  0
  5 19  1  0  0  0  0
  6 20  1  0  0  0  0
  6 21  1  0  0  0  0
  7 22  1  0  0  0  0
  7 23  1  0  0  0  0
  8 24  1  0  0  0  0
  8 25  1  0  0  0  0
  9 26  1  0  0  0  0
 14 27  1  0  0  0  0
M  END
> <FRED Chemgauss4 score>
-8.440406

$$$$
C38523819	P132606343
  -OEChem-05122015313D

 26 26  0     0  0  0  0  0  0999 V2000
  125.9243  106.4428  107.2758 C   0  0  0  0  0  0  0  0  0  0  0  0
  124.8129  106.5493  108.0070 C   0  0  0  0  0  0  0  0  0  0  0  0
  126.7048  107.6582  106.9680 C   0  0  0  0  0  0  0  0  0  0  0  0
  125.0154  108.9581  108.2597 C   0  0  0  0  0  0  0  0  0  0  0  0
  123.1145  107.7282  109.2840 C   0  0  0  0  0  0  0  0  0  0  0  0
  121.9611  108.2357  108.4380 C   0  0  0  0  0  0  0  0  0  0  0  0
  121.4383  105.2040  106.4719 C   0  0  0  0  0  0  0  0  0  0  0  0
  121.1450  106.2113  107.5670 C   0  0  0  0  0  0  0  0  0  0  0  0
  126.1803  108.8298  107.4914 N   0  0  0  0  0  0  0  0  0  0  0  0
  124.3433  107.7496  108.4992 N   0  0  0  0  0  0  0  0  0  0  0  0
  127.7314  107.5948  106.2986 O   0  0  0  0  0  0  0  0  0  0  0  0
  124.6434  110.0582  108.6735 O   0  0  0  0  0  0  0  0  0  0  0  0
  120.7676  103.9856  106.7704 O   0  0  0  0  0  0  0  0  0  0  0  0
  121.8315  107.4218  107.2793 O   0  0  0  0  0  0  0  0  0  0  0  0
  126.2734  105.4896  106.8986 H   0  0  0  0  0  0  0  0  0  0  0  0
  124.2245  105.6692  108.2446 H   0  0  0  0  0  0  0  0  0  0  0  0
  123.2623  108.3541  110.1698 H   0  0  0  0  0  0  0  0  0  0  0  0
  122.9298  106.6973  109.6007 H   0  0  0  0  0  0  0  0  0  0  0  0
  122.1595  109.2609  108.1102 H   0  0  0  0  0  0  0  0  0  0  0  0
  121.0163  108.2143  108.9909 H   0  0  0  0  0  0  0  0  0  0  0  0
  122.5104  104.9952  106.4048 H   0  0  0  0  0  0  0  0  0  0  0  0
  121.0725  105.5692  105.5078 H   0  0  0  0  0  0  0  0  0  0  0  0
  121.4889  105.8475  108.5403 H   0  0  0  0  0  0  0  0  0  0  0  0
  120.0736  106.4273  107.6117 H   0  0  0  0  0  0  0  0  0  0  0  0
  126.6932  109.6858  107.2991 H   0  0  0  0  0  0  0  0  0  0  0  0
  120.9775  103.3683  106.0515 H   0  0  0  0  0  0  0  0  0  0  0  0
  1  2  2  0  0  0  0
  1  3  1  0  0  0  0
  2 10  1  0  0  0  0
  3  9  1  0  0  0  0
  3 11  2  0  0  0  0
  4  9  1  0  0  0  0
  4 10  1  0  0  0  0
  4 12  2  0  0  0  0
  5  6  1  0  0  0  0
  5 10  1  0  0  0  0
  6 14  1  0  0  0  0
  7  8  1  0  0  0  0
  7 13  1  0  0  0  0
  8 14  1  0  0  0  0
  1 15  1  0  0  0  0
  2 16  1  0  0  0  0
  5 17  1  0  0  0  0
  5 18  1  0  0  0  0
  6 19  1  0  0  0  0
  6 20  1  0  0  0  0
  7 21  1  0  0  0  0
  7 22  1  0  0  0  0
  8 23  1  0  0  0  0
  8 24  1  0  0  0  0
  9 25  1  0  0  0  0
 13 26  1  0  0  0  0
M  END
> <FRED Chemgauss4 score>
-8.439452

$$$$
C83937285	P131339710
  -OEChem-05122015313D

 28 29  0     1  0  0  0  0  0999 V2000
  123.1964  109.5211  112.0841 C   0  0  0  0  0  0  0  0  0  0  0  0
  123.8390  110.5345  111.4025 C   0  0  0  0  0  0  0  0  0  0  0  0
  122.9433  108.3777  111.3542 C   0  0  0  0  0  0  0  0  0  0  0  0
  123.9081  109.2833  109.5059 C   0  0  0  0  0  0  0  0  0  0  0  0
  125.0817  104.0659  107.7865 C   0  0  0  0  0  0  0  0  0  0  0  0
  126.1187  104.7476  108.6346 C   0  0  0  0  0  0  0  0  0  0  0  0
  125.4925  105.4795  107.4799 C   0  0  0  0  0  0  0  0  0  0  0  0
  124.5292  106.6288  107.7332 C   0  0  0  0  0  0  0  0  0  0  0  0
  125.2678  107.9680  107.8243 C   0  0  0  0  0  0  0  0  0  0  0  0
  124.3098  109.1491  108.0504 C   0  0  1  0  0  0  0  0  0  0  0  0
  124.2106  110.4491  110.1083 N   0  0  0  0  0  0  0  0  0  0  0  0
  123.2864  108.2242  110.0584 N   0  0  0  0  0  0  0  0  0  0  0  0
  123.1153  109.0366  107.2461 N   0  0  0  0  0  0  0  0  0  0  0  0
  122.9099  109.6169  113.1227 H   0  0  0  0  0  0  0  0  0  0  0  0
  124.0802  111.4714  111.8932 H   0  0  0  0  0  0  0  0  0  0  0  0
  122.4423  107.5276  111.8050 H   0  0  0  0  0  0  0  0  0  0  0  0
  125.4130  103.2742  107.1258 H   0  0  0  0  0  0  0  0  0  0  0  0
  124.1010  103.9087  108.2185 H   0  0  0  0  0  0  0  0  0  0  0  0
  125.8333  105.0471  109.6356 H   0  0  0  0  0  0  0  0  0  0  0  0
  127.1444  104.4125  108.5417 H   0  0  0  0  0  0  0  0  0  0  0  0
  126.1025  105.6464  106.6003 H   0  0  0  0  0  0  0  0  0  0  0  0
  123.7905  106.6577  106.9243 H   0  0  0  0  0  0  0  0  0  0  0  0
  123.9840  106.4406  108.6655 H   0  0  0  0  0  0  0  0  0  0  0  0
  125.9877  107.9199  108.6520 H   0  0  0  0  0  0  0  0  0  0  0  0
  125.8514  108.1175  106.9066 H   0  0  0  0  0  0  0  0  0  0  0  0
  124.8036  110.0709  107.7184 H   0  0  0  0  0  0  0  0  0  0  0  0
  123.1842  108.6319  106.3293 H   0  0  0  0  0  0  0  0  0  0  0  0
  122.2927  109.5406  107.5264 H   0  0  0  0  0  0  0  0  0  0  0  0
  1  2  1  0  0  0  0
  1  3  2  0  0  0  0
  2 11  2  0  0  0  0
  3 12  1  0  0  0  0
  4 10  1  0  0  0  0
  4 11  1  0  0  0  0
  4 12  2  0  0  0  0
  5  6  1  0  0  0  0
  5  7  1  0  0  0  0
  6  7  1  0  0  0  0
  7  8  1  0  0  0  0
  8  9  1  0  0  0  0
  9 10  1  0  0  0  0
 10 13  1  0  0  0  0
  1 14  1  0  0  0  0
  2 15  1  0  0  0  0
  3 16  1  0  0  0  0
  5 17  1  0  0  0  0
  5 18  1  0  0  0  0
  6 19  1  0  0  0  0
  6 20  1  0  0  0  0
  7 21  1  0  0  0  0
  8 22  1  0  0  0  0
  8 23  1  0  0  0  0
  9 24  1  0  0  0  0
  9 25  1  0  0  0  0
 10 26  1  0  0  0  0
 13 27  1  0  0  0  0
 13 28  1  0  0  0  0
M  END
> <FRED Chemgauss4 score>
-8.436283

$$$$
C97736321	P155065748
  -OEChem-05122015313D

 43 45  0     1  0  0  0  0  0999 V2000
  125.1640  105.8275  108.2508 C   0  0  0  0  0  0  0  0  0  0  0  0
  125.0928  105.6225  106.8760 C   0  0  0  0  0  0  0  0  0  0  0  0
  124.1280  106.4864  108.9091 C   0  0  0  0  0  0  0  0  0  0  0  0
  123.9800  106.0648  106.1585 C   0  0  0  0  0  0  0  0  0  0  0  0
  117.9551  107.2344  103.7045 C   0  0  0  0  0  0  0  0  0  0  0  0
  117.4978  106.5133  104.7823 C   0  0  0  0  0  0  0  0  0  0  0  0
  123.0129  106.9448  108.1941 C   0  0  0  0  0  0  0  0  0  0  0  0
  122.9165  106.7084  106.8090 C   0  0  0  0  0  0  0  0  0  0  0  0
  119.6992  106.5036  104.6814 C   0  0  0  0  0  0  0  0  0  0  0  0
  121.8963  107.6464  108.9202 C   0  0  0  0  0  0  0  0  0  0  0  0
  121.0588  108.4646  107.9501 C   0  0  0  0  0  0  0  0  0  0  0  0
  121.7120  107.2172  106.0349 C   0  0  1  0  0  0  0  0  0  0  0  0
  118.4557  103.0896  105.2902 C   0  0  0  0  0  0  0  0  0  0  0  0
  117.8812  103.9334  106.4162 C   0  0  0  0  0  0  0  0  0  0  0  0
  118.6608  105.2351  106.5891 C   0  0  0  0  0  0  0  0  0  0  0  0
  121.1250  106.1835  105.0751 C   0  0  2  0  0  0  0  0  0  0  0  0
  119.3263  107.2242  103.6472 N   0  0  0  0  0  0  0  0  0  0  0  0
  118.6266  106.0510  105.3982 N   0  0  0  0  0  0  0  0  0  0  0  0
  121.4447  104.9804  103.0962 N   0  0  0  0  0  0  0  0  0  0  0  0
  121.9692  106.0328  103.9124 N   0  0  0  0  0  0  0  0  0  0  0  0
  120.6268  107.6132  106.8924 O   0  0  0  0  0  0  0  0  0  0  0  0
  126.0283  105.4797  108.8087 H   0  0  0  0  0  0  0  0  0  0  0  0
  125.9054  105.1198  106.3594 H   0  0  0  0  0  0  0  0  0  0  0  0
  124.1953  106.6456  109.9823 H   0  0  0  0  0  0  0  0  0  0  0  0
  123.9588  105.9040  105.0841 H   0  0  0  0  0  0  0  0  0  0  0  0
  117.3666  107.7603  102.9669 H   0  0  0  0  0  0  0  0  0  0  0  0
  116.5041  106.2978  105.1493 H   0  0  0  0  0  0  0  0  0  0  0  0
  121.2712  106.8792  109.3935 H   0  0  0  0  0  0  0  0  0  0  0  0
  122.2936  108.3028  109.7022 H   0  0  0  0  0  0  0  0  0  0  0  0
  120.1708  108.8540  108.4582 H   0  0  0  0  0  0  0  0  0  0  0  0
  121.6124  109.3191  107.5417 H   0  0  0  0  0  0  0  0  0  0  0  0
  122.0190  108.1015  105.4617 H   0  0  0  0  0  0  0  0  0  0  0  0
  119.5090  102.8553  105.4740 H   0  0  0  0  0  0  0  0  0  0  0  0
  118.3881  103.6285  104.3400 H   0  0  0  0  0  0  0  0  0  0  0  0
  117.9069  102.1480  105.1867 H   0  0  0  0  0  0  0  0  0  0  0  0
  116.8277  104.1507  106.2034 H   0  0  0  0  0  0  0  0  0  0  0  0
  117.9018  103.3554  107.3479 H   0  0  0  0  0  0  0  0  0  0  0  0
  119.7127  105.0351  106.8255 H   0  0  0  0  0  0  0  0  0  0  0  0
  118.2524  105.8318  107.4133 H   0  0  0  0  0  0  0  0  0  0  0  0
  121.1490  105.2099  105.5795 H   0  0  0  0  0  0  0  0  0  0  0  0
  122.1317  104.2297  103.0312 H   0  0  0  0  0  0  0  0  0  0  0  0
  120.6307  104.5737  103.5553 H   0  0  0  0  0  0  0  0  0  0  0  0
  121.9750  106.8984  103.3666 H   0  0  0  0  0  0  0  0  0  0  0  0
  1  2  1  0  0  0  0
  1  3  2  0  0  0  0
  2  4  2  0  0  0  0
  3  7  1  0  0  0  0
  4  8  1  0  0  0  0
  5  6  2  0  0  0  0
  5 17  1  0  0  0  0
  6 18  1  0  0  0  0
  7  8  2  0  0  0  0
  7 10  1  0  0  0  0
  8 12  1  0  0  0  0
  9 16  1  0  0  0  0
  9 17  2  0  0  0  0
  9 18  1  0  0  0  0
 10 11  1  0  0  0  0
 11 21  1  0  0  0  0
 12 16  1  0  0  0  0
 12 21  1  0  0  0  0
 13 14  1  0  0  0  0
 14 15  1  0  0  0  0
 15 18  1  0  0  0  0
 16 20  1  0  0  0  0
 19 20  1  0  0  0  0
  1 22  1  0  0  0  0
  2 23  1  0  0  0  0
  3 24  1  0  0  0  0
  4 25  1  0  0  0  0
  5 26  1  0  0  0  0
  6 27  1  0  0  0  0
 10 28  1  0  0  0  0
 10 29  1  0  0  0  0
 11 30  1  0  0  0  0
 11 31  1  0  0  0  0
 12 32  1  0  0  0  0
 13 33  1  0  0  0  0
 13 34  1  0  0  0  0
 13 35  1  0  0  0  0
 14 36  1  0  0  0  0
 14 37  1  0  0  0  0
 15 38  1  0  0  0  0
 15 39  1  0  0  0  0
 16 40  1  0  0  0  0
 19 41  1  0  0  0  0
 19 42  1  0  0  0  0
 20 43  1  0  0  0  0
M  END
> <FRED Chemgauss4 score>
-8.436140

$$$$
C69506335	P122369156
  -OEChem-05122015313D

 38 39  0     1  0  0  0  0  0999 V2000
  125.3721  106.2034  108.4297 C   0  0  0  0  0  0  0  0  0  0  0  0
  125.3535  108.4936  108.0804 C   0  0  0  0  0  0  0  0  0  0  0  0
  122.7667  109.1292  112.1960 C   0  0  0  0  0  0  0  0  0  0  0  0
  123.9834  108.4528  111.5600 C   0  0  0  0  0  0  0  0  0  0  0  0
  122.0212  109.8449  111.0646 C   0  0  0  0  0  0  0  0  0  0  0  0
  125.8733  107.2277  107.4464 C   0  0  2  0  0  0  0  0  0  0  0  0
  124.0248  108.9680  110.1237 C   0  0  2  0  0  0  0  0  0  0  0  0
  122.5595  109.2252  109.7799 C   0  0  1  0  0  0  0  0  0  0  0  0
  124.3362  103.9723  108.1959 C   0  0  0  0  0  0  0  0  0  0  0  0
  125.6374  104.7457  108.2703 C   0  0  0  0  0  0  0  0  0  0  0  0
  125.2996  107.0303  106.0580 C   0  0  0  0  0  0  0  0  0  0  0  0
  123.7775  107.1423  106.0208 C   0  0  0  0  0  0  0  0  0  0  0  0
  124.6986  106.7081  109.4160 N   0  0  0  0  0  0  0  0  0  0  0  0
  124.6810  108.0644  109.2236 N   0  0  0  0  0  0  0  0  0  0  0  0
  123.2477  106.9347  104.7016 N   0  0  0  0  0  0  0  0  0  0  0  0
  125.5014  109.6265  107.6538 O   0  0  0  0  0  0  0  0  0  0  0  0
  121.8591  108.0184  109.4945 O   0  0  0  0  0  0  0  0  0  0  0  0
  122.1089  108.3879  112.6656 H   0  0  0  0  0  0  0  0  0  0  0  0
  123.0766  109.8315  112.9785 H   0  0  0  0  0  0  0  0  0  0  0  0
  124.8896  108.7710  112.0921 H   0  0  0  0  0  0  0  0  0  0  0  0
  123.9243  107.3607  111.6275 H   0  0  0  0  0  0  0  0  0  0  0  0
  120.9396  109.6930  111.1578 H   0  0  0  0  0  0  0  0  0  0  0  0
  122.1890  110.9264  111.0879 H   0  0  0  0  0  0  0  0  0  0  0  0
  126.9671  107.2352  107.4463 H   0  0  0  0  0  0  0  0  0  0  0  0
  124.6120  109.9229  110.0566 H   0  0  0  0  0  0  0  0  0  0  0  0
  122.4584  109.9045  108.9593 H   0  0  0  0  0  0  0  0  0  0  0  0
  123.7478  104.1226  109.1062 H   0  0  0  0  0  0  0  0  0  0  0  0
  124.5241  102.8994  108.0806 H   0  0  0  0  0  0  0  0  0  0  0  0
  123.7341  104.2970  107.3408 H   0  0  0  0  0  0  0  0  0  0  0  0
  126.2260  104.5955  107.3598 H   0  0  0  0  0  0  0  0  0  0  0  0
  126.2324  104.4102  109.1255 H   0  0  0  0  0  0  0  0  0  0  0  0
  125.5854  106.0351  105.6916 H   0  0  0  0  0  0  0  0  0  0  0  0
  125.7429  107.7634  105.3700 H   0  0  0  0  0  0  0  0  0  0  0  0
  123.3261  106.3851  106.6696 H   0  0  0  0  0  0  0  0  0  0  0  0
  123.4455  108.1271  106.3643 H   0  0  0  0  0  0  0  0  0  0  0  0
  122.3515  107.3303  104.4627 H   0  0  0  0  0  0  0  0  0  0  0  0
  123.6688  106.2389  104.1055 H   0  0  0  0  0  0  0  0  0  0  0  0
  120.9188  108.2479  109.3924 H   0  0  0  0  0  0  0  0  0  0  0  0
  1  6  1  0  0  0  0
  1 10  1  0  0  0  0
  1 13  2  0  0  0  0
  2  6  1  0  0  0  0
  2 14  1  0  0  0  0
  2 16  2  0  0  0  0
  3  4  1  0  0  0  0
  3  5  1  0  0  0  0
  4  7  1  0  0  0  0
  5  8  1  0  0  0  0
  6 11  1  0  0  0  0
  7  8  1  0  0  0  0
  7 14  1  0  0  0  0
  8 17  1  0  0  0  0
  9 10  1  0  0  0  0
 11 12  1  0  0  0  0
 12 15  1  0  0  0  0
 13 14  1  0  0  0  0
  3 18  1  0  0  0  0
  3 19  1  0  0  0  0
  4 20  1  0  0  0  0
  4 21  1  0  0  0  0
  5 22  1  0  0  0  0
  5 23  1  0  0  0  0
  6 24  1  0  0  0  0
  7 25  1  0  0  0  0
  8 26  1  0  0  0  0
  9 27  1  0  0  0  0
  9 28  1  0  0  0  0
  9 29  1  0  0  0  0
 10 30  1  0  0  0  0
 10 31  1  0  0  0  0
 11 32  1  0  0  0  0
 11 33  1  0  0  0  0
 12 34  1  0  0  0  0
 12 35  1  0  0  0  0
 15 36  1  0  0  0  0
 15 37  1  0  0  0  0
 17 38  1  0  0  0  0
M  END
> <FRED Chemgauss4 score>
-8.433751

$$$$
C04544521	P06219506
  -OEChem-05122015313D

 23 22  0     1  0  0  0  0  0999 V2000
  124.4054  108.5474  107.5929 C   0  0  0  0  0  0  0  0  0  0  0  0
  124.3193  104.7010  107.5333 C   0  0  0  0  0  0  0  0  0  0  0  0
  125.0333  107.6525  106.5415 C   0  0  2  0  0  0  0  0  0  0  0  0
  125.7043  104.7731  108.1652 C   0  0  1  0  0  0  0  0  0  0  0  0
  126.3402  107.0533  107.0718 C   0  0  2  0  0  0  0  0  0  0  0  0
  126.1735  106.2250  108.3651 C   0  0  2  0  0  0  0  0  0  0  0  0
  124.6493  109.7435  107.7182 O   0  0  0  0  0  0  0  0  0  0  0  0
  125.2827  108.4344  105.3877 O   0  0  0  0  0  0  0  0  0  0  0  0
  125.6491  104.1004  109.4216 O   0  0  0  0  0  0  0  0  0  0  0  0
  127.2661  108.1191  107.2896 O   0  0  0  0  0  0  0  0  0  0  0  0
  127.4253  106.2134  109.0586 O   0  0  0  0  0  0  0  0  0  0  0  0
  123.5587  105.7059  108.0517 F   0  0  0  0  0  0  0  0  0  0  0  0
  123.7139  108.0451  108.2912 H   0  0  0  0  0  0  0  0  0  0  0  0
  124.3512  104.8481  106.4498 H   0  0  0  0  0  0  0  0  0  0  0  0
  123.8170  103.7571  107.7625 H   0  0  0  0  0  0  0  0  0  0  0  0
  124.3057  106.8694  106.3014 H   0  0  0  0  0  0  0  0  0  0  0  0
  126.4156  104.2285  107.5353 H   0  0  0  0  0  0  0  0  0  0  0  0
  126.7863  106.4078  106.3040 H   0  0  0  0  0  0  0  0  0  0  0  0
  125.4585  106.7319  109.0244 H   0  0  0  0  0  0  0  0  0  0  0  0
  124.4257  108.7827  105.0881 H   0  0  0  0  0  0  0  0  0  0  0  0
  124.9880  104.5675  109.9550 H   0  0  0  0  0  0  0  0  0  0  0  0
  126.8556  108.7086  107.9396 H   0  0  0  0  0  0  0  0  0  0  0  0
  127.6846  107.1402  109.1639 H   0  0  0  0  0  0  0  0  0  0  0  0
  1  3  1  0  0  0  0
  1  7  2  0  0  0  0
  2  4  1  0  0  0  0
  2 12  1  0  0  0  0
  3  5  1  0  0  0  0
  3  8  1  0  0  0  0
  4  6  1  0  0  0  0
  4  9  1  0  0  0  0
  5  6  1  0  0  0  0
  5 10  1  0  0  0  0
  6 11  1  0  0  0  0
  1 13  1  0  0  0  0
  2 14  1  0  0  0  0
  2 15  1  0  0  0  0
  3 16  1  0  0  0  0
  4 17  1  0  0  0  0
  5 18  1  0  0  0  0
  6 19  1  0  0  0  0
  8 20  1  0  0  0  0
  9 21  1  0  0  0  0
 10 22  1  0  0  0  0
 11 23  1  0  0  0  0
M  END
> <FRED Chemgauss4 score>
-8.431960

$$$$
C37440376	P55674866
  -OEChem-05122015313D

 38 39  0     1  0  0  0  0  0999 V2000
  118.2881  106.4092  106.5811 C   0  0  0  0  0  0  0  0  0  0  0  0
  117.5928  107.6164  106.7079 C   0  0  0  0  0  0  0  0  0  0  0  0
  119.5274  108.7108  107.7017 C   0  0  0  0  0  0  0  0  0  0  0  0
  120.2409  107.5062  107.5821 C   0  0  0  0  0  0  0  0  0  0  0  0
  119.6092  106.3955  107.0297 C   0  0  0  0  0  0  0  0  0  0  0  0
  118.1995  108.7479  107.2579 C   0  0  0  0  0  0  0  0  0  0  0  0
  121.6963  105.9440  107.6083 C   0  0  0  0  0  0  0  0  0  0  0  0
  121.0513  103.8254  105.2404 C   0  0  0  0  0  0  0  0  0  0  0  0
  124.4503  106.6599  106.3066 C   0  0  0  0  0  0  0  0  0  0  0  0
  125.5347  105.0275  107.8624 C   0  0  0  0  0  0  0  0  0  0  0  0
  124.3731  107.0278  108.7737 C   0  0  0  0  0  0  0  0  0  0  0  0
  120.3969  104.0531  106.5922 C   0  0  0  0  0  0  0  0  0  0  0  0
  122.9697  105.1259  107.7962 C   0  0  1  0  0  0  0  0  0  0  0  0
  124.3093  105.9477  107.6665 C   0  0  0  0  0  0  0  0  0  0  0  0
  121.5366  107.2067  107.9353 N   0  0  0  0  0  0  0  0  0  0  0  0
  120.5635  105.4111  107.0589 N   0  0  0  0  0  0  0  0  0  0  0  0
  122.9013  104.3479  109.0448 N   0  0  0  0  0  0  0  0  0  0  0  0
  117.3034  110.2140  107.3929 Cl  0  0  0  0  0  0  0  0  0  0  0  0
  117.8165  105.5317  106.1532 H   0  0  0  0  0  0  0  0  0  0  0  0
  116.5606  107.6588  106.3662 H   0  0  0  0  0  0  0  0  0  0  0  0
  120.0034  109.5879  108.1300 H   0  0  0  0  0  0  0  0  0  0  0  0
  120.6306  104.4916  104.4798 H   0  0  0  0  0  0  0  0  0  0  0  0
  120.8962  102.7927  104.9130 H   0  0  0  0  0  0  0  0  0  0  0  0
  122.1296  104.0107  105.2868 H   0  0  0  0  0  0  0  0  0  0  0  0
  123.6069  107.3298  106.1100 H   0  0  0  0  0  0  0  0  0  0  0  0
  125.3620  107.2687  106.2776 H   0  0  0  0  0  0  0  0  0  0  0  0
  124.5209  105.9475  105.4792 H   0  0  0  0  0  0  0  0  0  0  0  0
  125.4809  104.4961  108.8199 H   0  0  0  0  0  0  0  0  0  0  0  0
  126.4725  105.5926  107.8657 H   0  0  0  0  0  0  0  0  0  0  0  0
  125.5928  104.2732  107.0698 H   0  0  0  0  0  0  0  0  0  0  0  0
  124.2777  106.5794  109.7688 H   0  0  0  0  0  0  0  0  0  0  0  0
  125.3274  107.5671  108.7457 H   0  0  0  0  0  0  0  0  0  0  0  0
  123.5824  107.7768  108.6610 H   0  0  0  0  0  0  0  0  0  0  0  0
  120.8242  103.3823  107.3462 H   0  0  0  0  0  0  0  0  0  0  0  0
  119.3225  103.8431  106.5416 H   0  0  0  0  0  0  0  0  0  0  0  0
  122.9818  104.3740  106.9941 H   0  0  0  0  0  0  0  0  0  0  0  0
  123.7527  103.9973  109.4116 H   0  0  0  0  0  0  0  0  0  0  0  0
  122.0071  104.0418  109.3435 H   0  0  0  0  0  0  0  0  0  0  0  0
  1  2  2  0  0  0  0
  1  5  1  0  0  0  0
  2  6  1  0  0  0  0
  3  4  1  0  0  0  0
  3  6  2  0  0  0  0
  4  5  2  0  0  0  0
  4 15  1  0  0  0  0
  5 16  1  0  0  0  0
  6 18  1  0  0  0  0
  7 13  1  0  0  0  0
  7 15  2  0  0  0  0
  7 16  1  0  0  0  0
  8 12  1  0  0  0  0
  9 14  1  0  0  0  0
 10 14  1  0  0  0  0
 11 14  1  0  0  0  0
 12 16  1  0  0  0  0
 13 14  1  0  0  0  0
 13 17  1  0  0  0  0
  1 19  1  0  0  0  0
  2 20  1  0  0  0  0
  3 21  1  0  0  0  0
  8 22  1  0  0  0  0
  8 23  1  0  0  0  0
  8 24  1  0  0  0  0
  9 25  1  0  0  0  0
  9 26  1  0  0  0  0
  9 27  1  0  0  0  0
 10 28  1  0  0  0  0
 10 29  1  0  0  0  0
 10 30  1  0  0  0  0
 11 31  1  0  0  0  0
 11 32  1  0  0  0  0
 11 33  1  0  0  0  0
 12 34  1  0  0  0  0
 12 35  1  0  0  0  0
 13 36  1  0  0  0  0
 17 37  1  0  0  0  0
 17 38  1  0  0  0  0
M  END
> <FRED Chemgauss4 score>
-8.430945

$$$$
C48630888	P72699270
  -OEChem-05122015313D

 26 26  0     1  0  0  0  0  0999 V2000
  124.4374  108.1891  107.1620 C   0  0  0  0  0  0  0  0  0  0  0  0
  124.0370  108.9700  109.0559 C   0  0  0  0  0  0  0  0  0  0  0  0
  122.2170  108.6517  110.7509 C   0  0  0  0  0  0  0  0  0  0  0  0
  124.1771  104.9609  107.1702 C   0  0  0  0  0  0  0  0  0  0  0  0
  123.5921  109.2516  110.4303 C   0  0  0  0  0  0  0  0  0  0  0  0
  124.4328  107.2310  105.9787 C   0  0  1  0  0  0  0  0  0  0  0  0
  125.0821  105.8744  106.3461 C   0  0  1  0  0  0  0  0  0  0  0  0
  123.7798  107.9098  108.3257 N   0  0  0  0  0  0  0  0  0  0  0  0
  125.0852  109.3555  107.1263 N   0  0  0  0  0  0  0  0  0  0  0  0
  124.8132  109.8350  108.3495 N   0  0  0  0  0  0  0  0  0  0  0  0
  123.0681  107.0590  105.4685 N   0  0  0  0  0  0  0  0  0  0  0  0
  126.2607  106.1147  107.1226 O   0  0  0  0  0  0  0  0  0  0  0  0
  121.4653  109.0038  110.0362 H   0  0  0  0  0  0  0  0  0  0  0  0
  121.8848  108.9287  111.7563 H   0  0  0  0  0  0  0  0  0  0  0  0
  122.2492  107.5584  110.6934 H   0  0  0  0  0  0  0  0  0  0  0  0
  123.8277  105.4487  108.0845 H   0  0  0  0  0  0  0  0  0  0  0  0
  124.6968  104.0352  107.4410 H   0  0  0  0  0  0  0  0  0  0  0  0
  123.2986  104.6673  106.5846 H   0  0  0  0  0  0  0  0  0  0  0  0
  124.3182  108.8692  111.1760 H   0  0  0  0  0  0  0  0  0  0  0  0
  123.5469  110.3425  110.6245 H   0  0  0  0  0  0  0  0  0  0  0  0
  125.0279  107.6833  105.1741 H   0  0  0  0  0  0  0  0  0  0  0  0
  125.3980  105.3321  105.4476 H   0  0  0  0  0  0  0  0  0  0  0  0
  125.1844  110.7378  108.6211 H   0  0  0  0  0  0  0  0  0  0  0  0
  122.8763  106.2492  104.9253 H   0  0  0  0  0  0  0  0  0  0  0  0
  122.4569  107.8416  105.5103 H   0  0  0  0  0  0  0  0  0  0  0  0
  126.6624  105.2480  107.2783 H   0  0  0  0  0  0  0  0  0  0  0  0
  1  6  1  0  0  0  0
  1  8  1  0  0  0  0
  1  9  2  0  0  0  0
  2  5  1  0  0  0  0
  2  8  2  0  0  0  0
  2 10  1  0  0  0  0
  3  5  1  0  0  0  0
  4  7  1  0  0  0  0
  6  7  1  0  0  0  0
  6 11  1  0  0  0  0
  7 12  1  0  0  0  0
  9 10  1  0  0  0  0
  3 13  1  0  0  0  0
  3 14  1  0  0  0  0
  3 15  1  0  0  0  0
  4 16  1  0  0  0  0
  4 17  1  0  0  0  0
  4 18  1  0  0  0  0
  5 19  1  0  0  0  0
  5 20  1  0  0  0  0
  6 21  1  0  0  0  0
  7 22  1  0  0  0  0
 10 23  1  0  0  0  0
 11 24  1  0  0  0  0
 11 25  1  0  0  0  0
 12 26  1  0  0  0  0
M  END
> <FRED Chemgauss4 score>
-8.429560

$$$$
C72230870	P112219379
  -OEChem-05122015313D

 16 16  0     0  0  0  0  0  0999 V2000
  125.1255  105.0505  108.4405 C   0  0  0  0  0  0  0  0  0  0  0  0
  124.5823  104.8805  107.1708 C   0  0  0  0  0  0  0  0  0  0  0  0
  125.8655  106.1927  108.7311 C   0  0  0  0  0  0  0  0  0  0  0  0
  124.7944  105.8647  106.2158 C   0  0  0  0  0  0  0  0  0  0  0  0
  126.0452  107.1437  107.7366 C   0  0  0  0  0  0  0  0  0  0  0  0
  125.5110  106.9547  106.5223 N   0  3  0  0  0  0  0  0  0  0  0  0
  126.3722  109.5517  107.6066 N   0  0  0  0  0  0  0  0  0  0  0  0
  126.7923  108.3067  108.0137 N   0  0  0  0  0  0  0  0  0  0  0  0
  125.6823  107.8424  105.6048 O   0  5  0  0  0  0  0  0  0  0  0  0
  124.9721  104.2932  109.2036 H   0  0  0  0  0  0  0  0  0  0  0  0
  124.0034  103.9947  106.9316 H   0  0  0  0  0  0  0  0  0  0  0  0
  126.2896  106.3261  109.7217 H   0  0  0  0  0  0  0  0  0  0  0  0
  124.4086  105.8108  105.2087 H   0  0  0  0  0  0  0  0  0  0  0  0
  126.4692  110.1943  108.3913 H   0  0  0  0  0  0  0  0  0  0  0  0
  125.3747  109.5062  107.4022 H   0  0  0  0  0  0  0  0  0  0  0  0
  127.5331  108.2442  108.6979 H   0  0  0  0  0  0  0  0  0  0  0  0
  1  2  1  0  0  0  0
  1  3  2  0  0  0  0
  2  4  2  0  0  0  0
  3  5  1  0  0  0  0
  4  6  1  0  0  0  0
  5  6  2  0  0  0  0
  5  8  1  0  0  0  0
  6  9  1  0  0  0  0
  7  8  1  0  0  0  0
  1 10  1  0  0  0  0
  2 11  1  0  0  0  0
  3 12  1  0  0  0  0
  4 13  1  0  0  0  0
  7 14  1  0  0  0  0
  7 15  1  0  0  0  0
  8 16  1  0  0  0  0
M  CHG  2   6   1   9  -1
M  END
> <FRED Chemgauss4 score>
-8.428699

$$$$
C70295405	P108368128
  -OEChem-05122015313D

 43 44  0     1  0  0  0  0  0999 V2000
  120.0717  104.3506  106.6249 C   0  0  0  0  0  0  0  0  0  0  0  0
  121.0807  104.8176  105.7338 C   0  0  0  0  0  0  0  0  0  0  0  0
  118.9331  103.9571  105.9568 C   0  0  0  0  0  0  0  0  0  0  0  0
  120.6748  104.7629  104.4184 C   0  0  0  0  0  0  0  0  0  0  0  0
  123.7598  107.4921  106.2346 C   0  0  0  0  0  0  0  0  0  0  0  0
  125.0194  106.6585  106.0985 C   0  0  0  0  0  0  0  0  0  0  0  0
  125.3110  105.8406  107.3510 C   0  0  0  0  0  0  0  0  0  0  0  0
  124.5656  104.5064  107.4034 C   0  0  0  0  0  0  0  0  0  0  0  0
  122.4488  105.3184  106.1963 C   0  0  2  0  0  0  0  0  0  0  0  0
  123.0264  104.5874  107.4450 C   0  0  2  0  0  0  0  0  0  0  0  0
  117.6757  103.4190  106.5201 C   0  0  0  0  0  0  0  0  0  0  0  0
  121.4188  105.1525  103.1993 C   0  0  0  0  0  0  0  0  0  0  0  0
  120.1322  109.1300  108.1823 C   0  0  0  0  0  0  0  0  0  0  0  0
  121.4015  108.3416  107.8922 C   0  0  0  0  0  0  0  0  0  0  0  0
  121.3300  107.5727  106.5784 C   0  0  0  0  0  0  0  0  0  0  0  0
  122.5463  106.8006  106.3171 N   0  0  0  0  0  0  0  0  0  0  0  0
  122.5820  105.1864  108.7068 N   0  0  0  0  0  0  0  0  0  0  0  0
  123.8587  108.7220  106.2747 O   0  0  0  0  0  0  0  0  0  0  0  0
  119.0832  104.1509  104.2620 S   0  0  0  0  0  0  0  0  0  0  0  0
  120.1751  104.3062  107.7021 H   0  0  0  0  0  0  0  0  0  0  0  0
  124.9746  106.0399  105.1970 H   0  0  0  0  0  0  0  0  0  0  0  0
  125.8484  107.3613  105.9437 H   0  0  0  0  0  0  0  0  0  0  0  0
  126.3855  105.6189  107.3719 H   0  0  0  0  0  0  0  0  0  0  0  0
  125.0962  106.4275  108.2519 H   0  0  0  0  0  0  0  0  0  0  0  0
  124.8608  103.9032  106.5345 H   0  0  0  0  0  0  0  0  0  0  0  0
  124.9177  103.9499  108.2824 H   0  0  0  0  0  0  0  0  0  0  0  0
  123.1257  105.0573  105.3220 H   0  0  0  0  0  0  0  0  0  0  0  0
  122.6676  103.5481  107.4355 H   0  0  0  0  0  0  0  0  0  0  0  0
  116.9661  104.2302  106.7462 H   0  0  0  0  0  0  0  0  0  0  0  0
  117.1804  102.7207  105.8259 H   0  0  0  0  0  0  0  0  0  0  0  0
  117.8511  102.8545  107.4506 H   0  0  0  0  0  0  0  0  0  0  0  0
  121.9915  104.3016  102.7996 H   0  0  0  0  0  0  0  0  0  0  0  0
  120.7445  105.5102  102.4048 H   0  0  0  0  0  0  0  0  0  0  0  0
  122.1261  105.9742  103.3964 H   0  0  0  0  0  0  0  0  0  0  0  0
  119.9300  109.8542  107.3868 H   0  0  0  0  0  0  0  0  0  0  0  0
  119.2750  108.4524  108.2489 H   0  0  0  0  0  0  0  0  0  0  0  0
  120.2065  109.6710  109.1307 H   0  0  0  0  0  0  0  0  0  0  0  0
  121.5668  107.6306  108.7100 H   0  0  0  0  0  0  0  0  0  0  0  0
  122.2569  109.0276  107.8809 H   0  0  0  0  0  0  0  0  0  0  0  0
  120.4990  106.8610  106.6059 H   0  0  0  0  0  0  0  0  0  0  0  0
  121.1728  108.2475  105.7311 H   0  0  0  0  0  0  0  0  0  0  0  0
  123.1370  105.0284  109.5174 H   0  0  0  0  0  0  0  0  0  0  0  0
  121.6555  105.5470  108.7493 H   0  0  0  0  0  0  0  0  0  0  0  0
  1  2  1  0  0  0  0
  1  3  2  0  0  0  0
  2  4  2  0  0  0  0
  2  9  1  0  0  0  0
  3 11  1  0  0  0  0
  3 19  1  0  0  0  0
  4 12  1  0  0  0  0
  4 19  1  0  0  0  0
  5  6  1  0  0  0  0
  5 16  1  0  0  0  0
  5 18  2  0  0  0  0
  6  7  1  0  0  0  0
  7  8  1  0  0  0  0
  8 10  1  0  0  0  0
  9 10  1  0  0  0  0
  9 16  1  0  0  0  0
 10 17  1  0  0  0  0
 13 14  1  0  0  0  0
 14 15  1  0  0  0  0
 15 16  1  0  0  0  0
  1 20  1  0  0  0  0
  6 21  1  0  0  0  0
  6 22  1  0  0  0  0
  7 23  1  0  0  0  0
  7 24  1  0  0  0  0
  8 25  1  0  0  0  0
  8 26  1  0  0  0  0
  9 27  1  0  0  0  0
 10 28  1  0  0  0  0
 11 29  1  0  0  0  0
 11 30  1  0  0  0  0
 11 31  1  0  0  0  0
 12 32  1  0  0  0  0
 12 33  1  0  0  0  0
 12 34  1  0  0  0  0
 13 35  1  0  0  0  0
 13 36  1  0  0  0  0
 13 37  1  0  0  0  0
 14 38  1  0  0  0  0
 14 39  1  0  0  0  0
 15 40  1  0  0  0  0
 15 41  1  0  0  0  0
 17 42  1  0  0  0  0
 17 43  1  0  0  0  0
M  END
> <FRED Chemgauss4 score>
-8.426841

$$$$
C87229336	P136499715
  -OEChem-05122015313D

 30 31  0     1  0  0  0  0  0999 V2000
  125.2218  107.6081  108.4950 C   0  0  0  0  0  0  0  0  0  0  0  0
  124.0358  109.0368  109.5197 C   0  0  0  0  0  0  0  0  0  0  0  0
  125.7167  103.9500  108.5247 C   0  0  0  0  0  0  0  0  0  0  0  0
  125.9472  105.2740  109.2109 C   0  0  0  0  0  0  0  0  0  0  0  0
  124.6934  104.3234  107.4804 C   0  0  0  0  0  0  0  0  0  0  0  0
  125.8513  106.2865  108.0612 C   0  0  2  0  0  0  0  0  0  0  0  0
  127.2092  106.5305  107.3908 C   0  0  0  0  0  0  0  0  0  0  0  0
  123.4397  109.4565  111.9407 C   0  0  0  0  0  0  0  0  0  0  0  0
  123.0839  109.6440  110.4473 C   0  0  1  0  0  0  0  0  0  0  0  0
  125.5150  108.8022  107.9438 N   0  5  0  0  0  0  0  0  0  0  0  0
  124.3108  107.7265  109.4702 N   0  0  0  0  0  0  0  0  0  0  0  0
  124.7480  109.7270  108.6075 N   0  0  0  0  0  0  0  0  0  0  0  0
  122.8775  111.1322  110.2491 N   0  3  0  0  0  0  0  0  0  0  0  0
  125.0051  105.6596  107.0674 O   0  0  0  0  0  0  0  0  0  0  0  0
  126.6228  103.5140  108.0954 H   0  0  0  0  0  0  0  0  0  0  0  0
  125.2908  103.2275  109.2308 H   0  0  0  0  0  0  0  0  0  0  0  0
  125.2374  105.4600  110.0263 H   0  0  0  0  0  0  0  0  0  0  0  0
  126.9572  105.2771  109.6448 H   0  0  0  0  0  0  0  0  0  0  0  0
  124.7679  103.6755  106.6015 H   0  0  0  0  0  0  0  0  0  0  0  0
  123.6695  104.2837  107.8599 H   0  0  0  0  0  0  0  0  0  0  0  0
  127.6504  105.5816  107.0848 H   0  0  0  0  0  0  0  0  0  0  0  0
  127.8856  107.0263  108.0873 H   0  0  0  0  0  0  0  0  0  0  0  0
  127.0829  107.1616  106.5108 H   0  0  0  0  0  0  0  0  0  0  0  0
  124.4461  109.8301  112.1600 H   0  0  0  0  0  0  0  0  0  0  0  0
  122.7408  109.9744  112.6071 H   0  0  0  0  0  0  0  0  0  0  0  0
  123.4177  108.3914  112.1972 H   0  0  0  0  0  0  0  0  0  0  0  0
  122.0535  109.2399  110.3185 H   0  0  0  0  0  0  0  0  0  0  0  0
  123.0714  111.3716  109.2824 H   0  0  0  0  0  0  0  0  0  0  0  0
  123.5077  111.6416  110.8600 H   0  0  0  0  0  0  0  0  0  0  0  0
  121.9171  111.3701  110.4740 H   0  0  0  0  0  0  0  0  0  0  0  0
  1  6  1  0  0  0  0
  1 10  1  0  0  0  0
  1 11  2  0  0  0  0
  2  9  1  0  0  0  0
  2 11  1  0  0  0  0
  2 12  2  0  0  0  0
  3  4  1  0  0  0  0
  3  5  1  0  0  0  0
  4  6  1  0  0  0  0
  5 14  1  0  0  0  0
  6  7  1  0  0  0  0
  6 14  1  0  0  0  0
  8  9  1  0  0  0  0
  9 13  1  0  0  0  0
 10 12  1  0  0  0  0
  3 15  1  0  0  0  0
  3 16  1  0  0  0  0
  4 17  1  0  0  0  0
  4 18  1  0  0  0  0
  5 19  1  0  0  0  0
  5 20  1  0  0  0  0
  7 21  1  0  0  0  0
  7 22  1  0  0  0  0
  7 23  1  0  0  0  0
  8 24  1  0  0  0  0
  8 25  1  0  0  0  0
  8 26  1  0  0  0  0
  9 27  1  0  0  0  0
 13 28  1  0  0  0  0
 13 29  1  0  0  0  0
 13 30  1  0  0  0  0
M  CHG  2  10  -1  13   1
M  END
> <FRED Chemgauss4 score>
-8.422783

$$$$
C42040413	P63623377
  -OEChem-05122015313D

 26 26  0     1  0  0  0  0  0999 V2000
  123.5008  107.6199  109.0270 C   0  0  0  0  0  0  0  0  0  0  0  0
  122.8847  109.3691  110.1548 C   0  0  0  0  0  0  0  0  0  0  0  0
  125.9693  106.2284  106.6844 C   0  0  0  0  0  0  0  0  0  0  0  0
  124.7346  104.0105  108.4390 C   0  0  0  0  0  0  0  0  0  0  0  0
  126.0390  106.1839  108.2057 C   0  0  0  0  0  0  0  0  0  0  0  0
  123.4926  106.1985  108.5558 C   0  0  1  0  0  0  0  0  0  0  0  0
  124.8258  105.4838  108.8580 C   0  0  1  0  0  0  0  0  0  0  0  0
  124.3288  108.5319  108.6104 N   0  0  0  0  0  0  0  0  0  0  0  0
  122.6077  108.0362  109.9477 N   0  0  0  0  0  0  0  0  0  0  0  0
  123.9636  109.6492  109.3059 N   0  0  0  0  0  0  0  0  0  0  0  0
  122.3457  105.5759  109.1572 N   0  0  0  0  0  0  0  0  0  0  0  0
  122.3181  110.1431  110.9109 O   0  0  0  0  0  0  0  0  0  0  0  0
  125.9020  105.2119  106.2837 H   0  0  0  0  0  0  0  0  0  0  0  0
  125.0891  106.7767  106.3369 H   0  0  0  0  0  0  0  0  0  0  0  0
  126.8628  106.6993  106.2630 H   0  0  0  0  0  0  0  0  0  0  0  0
  124.5880  103.9215  107.3571 H   0  0  0  0  0  0  0  0  0  0  0  0
  125.6546  103.4704  108.6822 H   0  0  0  0  0  0  0  0  0  0  0  0
  123.9014  103.5036  108.9371 H   0  0  0  0  0  0  0  0  0  0  0  0
  126.1052  107.2172  108.5648 H   0  0  0  0  0  0  0  0  0  0  0  0
  126.9708  105.6858  108.4996 H   0  0  0  0  0  0  0  0  0  0  0  0
  123.3153  106.2257  107.4747 H   0  0  0  0  0  0  0  0  0  0  0  0
  124.9716  105.5045  109.9471 H   0  0  0  0  0  0  0  0  0  0  0  0
  121.8849  107.4842  110.3935 H   0  0  0  0  0  0  0  0  0  0  0  0
  124.4099  110.5534  109.2200 H   0  0  0  0  0  0  0  0  0  0  0  0
  122.2912  104.5697  109.1884 H   0  0  0  0  0  0  0  0  0  0  0  0
  121.5286  106.1335  109.3527 H   0  0  0  0  0  0  0  0  0  0  0  0
  1  6  1  0  0  0  0
  1  8  2  0  0  0  0
  1  9  1  0  0  0  0
  2  9  1  0  0  0  0
  2 10  1  0  0  0  0
  2 12  2  0  0  0  0
  3  5  1  0  0  0  0
  4  7  1  0  0  0  0
  5  7  1  0  0  0  0
  6  7  1  0  0  0  0
  6 11  1  0  0  0  0
  8 10  1  0  0  0  0
  3 13  1  0  0  0  0
  3 14  1  0  0  0  0
  3 15  1  0  0  0  0
  4 16  1  0  0  0  0
  4 17  1  0  0  0  0
  4 18  1  0  0  0  0
  5 19  1  0  0  0  0
  5 20  1  0  0  0  0
  6 21  1  0  0  0  0
  7 22  1  0  0  0  0
  9 23  1  0  0  0  0
 10 24  1  0  0  0  0
 11 25  1  0  0  0  0
 11 26  1  0  0  0  0
M  END
> <FRED Chemgauss4 score>
-8.419319

$$$$
C82476675	P128888917
  -OEChem-05122015313D

 28 28  0     1  0  0  0  0  0999 V2000
  125.3152  107.9227  106.6027 C   0  0  0  0  0  0  0  0  0  0  0  0
  121.6910  106.2620  106.4944 C   0  0  0  0  0  0  0  0  0  0  0  0
  124.5887  108.7111  108.8585 C   0  0  0  0  0  0  0  0  0  0  0  0
  124.0800  107.3048  109.1170 C   0  0  0  0  0  0  0  0  0  0  0  0
  124.6195  106.5901  106.8473 C   0  0  1  0  0  0  0  0  0  0  0  0
  125.0606  104.1748  107.3000 C   0  0  0  0  0  0  0  0  0  0  0  0
  122.3498  107.2646  107.4073 C   0  0  0  0  0  0  0  0  0  0  0  0
  125.6729  105.5282  107.1743 C   0  0  0  0  0  0  0  0  0  0  0  0
  125.3863  108.8060  107.6554 N   0  0  0  0  0  0  0  0  0  0  0  0
  123.5903  106.6630  107.8960 N   0  0  2  0  0  0  0  0  0  0  0  0
  121.3817  105.0598  107.0743 N   0  0  0  0  0  0  0  0  0  0  0  0
  125.8690  108.1486  105.5239 O   0  0  0  0  0  0  0  0  0  0  0  0
  121.3463  106.5942  104.8935 S   0  0  0  0  0  0  0  0  0  0  0  0
  123.7555  109.4164  108.7635 H   0  0  0  0  0  0  0  0  0  0  0  0
  125.2234  109.0525  109.6860 H   0  0  0  0  0  0  0  0  0  0  0  0
  124.9156  106.7222  109.5636 H   0  0  0  0  0  0  0  0  0  0  0  0
  123.2860  107.3230  109.8986 H   0  0  0  0  0  0  0  0  0  0  0  0
  124.1502  106.3034  105.8858 H   0  0  0  0  0  0  0  0  0  0  0  0
  124.3082  104.1894  108.0972 H   0  0  0  0  0  0  0  0  0  0  0  0
  125.8151  103.4244  107.5590 H   0  0  0  0  0  0  0  0  0  0  0  0
  124.5639  103.8803  106.3694 H   0  0  0  0  0  0  0  0  0  0  0  0
  121.7269  107.5240  108.2673 H   0  0  0  0  0  0  0  0  0  0  0  0
  122.6137  108.1727  106.8575 H   0  0  0  0  0  0  0  0  0  0  0  0
  126.4236  105.5250  106.3832 H   0  0  0  0  0  0  0  0  0  0  0  0
  126.1666  105.8013  108.1077 H   0  0  0  0  0  0  0  0  0  0  0  0
  126.0447  109.5795  107.5842 H   0  0  0  0  0  0  0  0  0  0  0  0
  121.5827  104.8619  108.0493 H   0  0  0  0  0  0  0  0  0  0  0  0
  120.9357  104.3205  106.5415 H   0  0  0  0  0  0  0  0  0  0  0  0
  1  5  1  0  0  0  0
  1  9  1  0  0  0  0
  1 12  2  0  0  0  0
  2  7  1  0  0  0  0
  2 11  1  0  0  0  0
  2 13  2  0  0  0  0
  3  4  1  0  0  0  0
  3  9  1  0  0  0  0
  4 10  1  0  0  0  0
  5  8  1  0  0  0  0
  5 10  1  0  0  0  0
  6  8  1  0  0  0  0
  7 10  1  0  0  0  0
  3 14  1  0  0  0  0
  3 15  1  0  0  0  0
  4 16  1  0  0  0  0
  4 17  1  0  0  0  0
  5 18  1  0  0  0  0
  6 19  1  0  0  0  0
  6 20  1  0  0  0  0
  6 21  1  0  0  0  0
  7 22  1  0  0  0  0
  7 23  1  0  0  0  0
  8 24  1  0  0  0  0
  8 25  1  0  0  0  0
  9 26  1  0  0  0  0
 11 27  1  0  0  0  0
 11 28  1  0  0  0  0
M  END
> <FRED Chemgauss4 score>
-8.417231

$$$$
C37919944	P56983499
  -OEChem-05122015313D

 26 27  0     1  0  0  0  0  0999 V2000
  126.5038  108.0182  107.4569 C   0  0  0  0  0  0  0  0  0  0  0  0
  124.5617  108.4442  108.0924 C   0  0  0  0  0  0  0  0  0  0  0  0
  122.6922  108.9680  112.6849 C   0  0  0  0  0  0  0  0  0  0  0  0
  123.1597  110.7903  111.3463 C   0  0  0  0  0  0  0  0  0  0  0  0
  123.4181  108.4025  111.4961 C   0  0  0  0  0  0  0  0  0  0  0  0
  123.6116  109.5870  110.5611 C   0  0  1  0  0  0  0  0  0  0  0  0
  122.0461  111.2094  113.5357 C   0  0  0  0  0  0  0  0  0  0  0  0
  123.1373  108.3794  108.5624 C   0  0  0  0  0  0  0  0  0  0  0  0
  125.3407  107.4169  107.8445 N   0  0  0  0  0  0  0  0  0  0  0  0
  125.2402  109.5997  107.8598 N   0  0  0  0  0  0  0  0  0  0  0  0
  126.4935  109.3529  107.4494 N   0  0  0  0  0  0  0  0  0  0  0  0
  122.6419  110.3375  112.5415 N   0  0  0  0  0  0  0  0  0  0  0  0
  122.7837  109.5247  109.3898 N   0  0  0  0  0  0  0  0  0  0  0  0
  122.2581  108.2920  113.6074 O   0  0  0  0  0  0  0  0  0  0  0  0
  123.1950  111.9414  110.9327 O   0  0  0  0  0  0  0  0  0  0  0  0
  127.3798  107.4497  107.1734 H   0  0  0  0  0  0  0  0  0  0  0  0
  124.3825  108.0038  111.8271 H   0  0  0  0  0  0  0  0  0  0  0  0
  122.8354  107.5886  111.0532 H   0  0  0  0  0  0  0  0  0  0  0  0
  124.6616  109.7087  110.2869 H   0  0  0  0  0  0  0  0  0  0  0  0
  122.7997  111.5180  114.2649 H   0  0  0  0  0  0  0  0  0  0  0  0
  121.2406  110.6889  114.0608 H   0  0  0  0  0  0  0  0  0  0  0  0
  121.6333  112.1016  113.0572 H   0  0  0  0  0  0  0  0  0  0  0  0
  122.4501  108.3543  107.7097 H   0  0  0  0  0  0  0  0  0  0  0  0
  122.9584  107.4733  109.1509 H   0  0  0  0  0  0  0  0  0  0  0  0
  127.1585  110.0878  107.2247 H   0  0  0  0  0  0  0  0  0  0  0  0
  122.9041  110.3802  108.8483 H   0  0  0  0  0  0  0  0  0  0  0  0
  1  9  2  0  0  0  0
  1 11  1  0  0  0  0
  2  8  1  0  0  0  0
  2  9  1  0  0  0  0
  2 10  2  0  0  0  0
  3  5  1  0  0  0  0
  3 12  1  0  0  0  0
  3 14  2  0  0  0  0
  4  6  1  0  0  0  0
  4 12  1  0  0  0  0
  4 15  2  0  0  0  0
  5  6  1  0  0  0  0
  6 13  1  0  0  0  0
  7 12  1  0  0  0  0
  8 13  1  0  0  0  0
 10 11  1  0  0  0  0
  1 16  1  0  0  0  0
  5 17  1  0  0  0  0
  5 18  1  0  0  0  0
  6 19  1  0  0  0  0
  7 20  1  0  0  0  0
  7 21  1  0  0  0  0
  7 22  1  0  0  0  0
  8 23  1  0  0  0  0
  8 24  1  0  0  0  0
 11 25  1  0  0  0  0
 13 26  1  0  0  0  0
M  END
> <FRED Chemgauss4 score>
-8.412386

$$$$
C35382256	P52512186
  -OEChem-05122015313D

 24 25  0     1  0  0  0  0  0999 V2000
  125.4012  105.1003  106.6758 C   0  0  0  0  0  0  0  0  0  0  0  0
  123.7104  108.3554  110.5423 C   0  0  0  0  0  0  0  0  0  0  0  0
  122.8413  109.3375  110.1292 C   0  0  0  0  0  0  0  0  0  0  0  0
  125.4231  104.0413  107.5533 C   0  0  0  0  0  0  0  0  0  0  0  0
  125.9794  105.8003  108.7135 C   0  0  0  0  0  0  0  0  0  0  0  0
  125.7626  106.2426  107.4292 C   0  0  0  0  0  0  0  0  0  0  0  0
  124.0628  108.5860  108.4559 C   0  0  0  0  0  0  0  0  0  0  0  0
  124.5715  108.4732  107.0368 C   0  0  0  0  0  0  0  0  0  0  0  0
  125.8865  107.6699  106.9238 C   0  0  1  0  0  0  0  0  0  0  0  0
  124.4682  107.8920  109.4961 N   0  0  0  0  0  0  0  0  0  0  0  0
  123.0790  109.4745  108.7906 N   0  0  0  0  0  0  0  0  0  0  0  0
  126.9597  108.3844  107.6282 N   0  0  0  0  0  0  0  0  0  0  0  0
  125.7745  104.4596  108.7976 O   0  0  0  0  0  0  0  0  0  0  0  0
  125.1550  105.0509  105.6247 H   0  0  0  0  0  0  0  0  0  0  0  0
  123.8301  107.9596  111.5401 H   0  0  0  0  0  0  0  0  0  0  0  0
  122.1009  109.9307  110.6457 H   0  0  0  0  0  0  0  0  0  0  0  0
  125.2243  102.9842  107.4545 H   0  0  0  0  0  0  0  0  0  0  0  0
  126.2688  106.2858  109.6344 H   0  0  0  0  0  0  0  0  0  0  0  0
  124.7244  109.4932  106.6570 H   0  0  0  0  0  0  0  0  0  0  0  0
  123.7901  108.0400  106.3985 H   0  0  0  0  0  0  0  0  0  0  0  0
  126.1830  107.6371  105.8676 H   0  0  0  0  0  0  0  0  0  0  0  0
  122.6100  110.1143  108.1630 H   0  0  0  0  0  0  0  0  0  0  0  0
  126.9339  109.3769  107.6207 H   0  0  0  0  0  0  0  0  0  0  0  0
  127.7592  107.8620  107.8996 H   0  0  0  0  0  0  0  0  0  0  0  0
  1  4  2  0  0  0  0
  1  6  1  0  0  0  0
  2  3  2  0  0  0  0
  2 10  1  0  0  0  0
  3 11  1  0  0  0  0
  4 13  1  0  0  0  0
  5  6  2  0  0  0  0
  5 13  1  0  0  0  0
  6  9  1  0  0  0  0
  7  8  1  0  0  0  0
  7 10  2  0  0  0  0
  7 11  1  0  0  0  0
  8  9  1  0  0  0  0
  9 12  1  0  0  0  0
  1 14  1  0  0  0  0
  2 15  1  0  0  0  0
  3 16  1  0  0  0  0
  4 17  1  0  0  0  0
  5 18  1  0  0  0  0
  8 19  1  0  0  0  0
  8 20  1  0  0  0  0
  9 21  1  0  0  0  0
 11 22  1  0  0  0  0
 12 23  1  0  0  0  0
 12 24  1  0  0  0  0
M  END
> <FRED Chemgauss4 score>
-8.412342

$$$$
C70286936	P108345849
  -OEChem-05122015313D

 25 25  0     1  0  0  0  0  0999 V2000
  123.4257  106.8694  106.3531 C   0  0  0  0  0  0  0  0  0  0  0  0
  126.3711  107.5206  107.5291 C   0  0  0  0  0  0  0  0  0  0  0  0
  121.9760  106.7684  106.7903 C   0  0  0  0  0  0  0  0  0  0  0  0
  121.6302  105.5191  107.5793 C   0  0  0  0  0  0  0  0  0  0  0  0
  124.0181  105.1850  108.1265 C   0  0  0  0  0  0  0  0  0  0  0  0
  122.6254  105.3571  108.7188 C   0  0  2  0  0  0  0  0  0  0  0  0
  125.7836  106.3237  106.8174 C   0  0  0  0  0  0  0  0  0  0  0  0
  124.3675  106.2072  107.1387 N   0  0  0  0  0  0  0  0  0  0  0  0
  126.8482  107.2025  108.7825 N   0  0  0  0  0  0  0  0  0  0  0  0
  122.2826  104.1945  109.5329 N   0  0  0  0  0  0  0  0  0  0  0  0
  123.7101  107.5857  105.3891 O   0  0  0  0  0  0  0  0  0  0  0  0
  126.4566  108.6400  107.0314 O   0  0  0  0  0  0  0  0  0  0  0  0
  121.7602  107.6599  107.3916 H   0  0  0  0  0  0  0  0  0  0  0  0
  121.3449  106.8139  105.8953 H   0  0  0  0  0  0  0  0  0  0  0  0
  120.6062  105.6034  107.9629 H   0  0  0  0  0  0  0  0  0  0  0  0
  121.6564  104.6435  106.9174 H   0  0  0  0  0  0  0  0  0  0  0  0
  124.7665  105.2119  108.9281 H   0  0  0  0  0  0  0  0  0  0  0  0
  124.1109  104.2169  107.6172 H   0  0  0  0  0  0  0  0  0  0  0  0
  122.6034  106.2518  109.3537 H   0  0  0  0  0  0  0  0  0  0  0  0
  126.2791  105.4009  107.1310 H   0  0  0  0  0  0  0  0  0  0  0  0
  125.8866  106.4540  105.7367 H   0  0  0  0  0  0  0  0  0  0  0  0
  126.7873  106.2543  109.1383 H   0  0  0  0  0  0  0  0  0  0  0  0
  127.2754  107.8919  109.3928 H   0  0  0  0  0  0  0  0  0  0  0  0
  121.3174  103.9966  109.6855 H   0  0  0  0  0  0  0  0  0  0  0  0
  123.0069  103.7666  110.0682 H   0  0  0  0  0  0  0  0  0  0  0  0
  1  3  1  0  0  0  0
  1  8  1  0  0  0  0
  1 11  2  0  0  0  0
  2  7  1  0  0  0  0
  2  9  1  0  0  0  0
  2 12  2  0  0  0  0
  3  4  1  0  0  0  0
  4  6  1  0  0  0  0
  5  6  1  0  0  0  0
  5  8  1  0  0  0  0
  6 10  1  0  0  0  0
  7  8  1  0  0  0  0
  3 13  1  0  0  0  0
  3 14  1  0  0  0  0
  4 15  1  0  0  0  0
  4 16  1  0  0  0  0
  5 17  1  0  0  0  0
  5 18  1  0  0  0  0
  6 19  1  0  0  0  0
  7 20  1  0  0  0  0
  7 21  1  0  0  0  0
  9 22  1  0  0  0  0
  9 23  1  0  0  0  0
 10 24  1  0  0  0  0
 10 25  1  0  0  0  0
M  END
> <FRED Chemgauss4 score>
-8.408877

$$$$
C80937149	P126379197
  -OEChem-05122015313D

 37 37  0     1  0  0  0  0  0999 V2000
  124.9955  107.3431  106.7249 C   0  0  0  0  0  0  0  0  0  0  0  0
  120.7780  106.6902  105.7393 C   0  0  0  0  0  0  0  0  0  0  0  0
  120.8830  104.8224  107.2612 C   0  0  0  0  0  0  0  0  0  0  0  0
  122.2920  106.5971  105.5209 C   0  0  0  0  0  0  0  0  0  0  0  0
  122.3969  104.7289  107.0415 C   0  0  0  0  0  0  0  0  0  0  0  0
  125.0247  104.9275  107.4341 C   0  0  0  0  0  0  0  0  0  0  0  0
  118.0322  105.5555  104.9576 C   0  0  0  0  0  0  0  0  0  0  0  0
  118.7729  105.4679  106.2883 C   0  0  0  0  0  0  0  0  0  0  0  0
  124.4015  105.9532  106.4959 C   0  0  1  0  0  0  0  0  0  0  0  0
  118.2255  104.3349  104.0798 C   0  0  0  0  0  0  0  0  0  0  0  0
  125.4010  107.5960  107.9357 N   0  0  0  0  0  0  0  0  0  0  0  0
  120.2162  105.3765  106.0765 N   0  0  0  0  0  0  0  0  0  0  0  0
  122.9580  106.0433  106.7062 N   0  0  0  0  0  0  0  0  0  0  0  0
  125.0397  108.1976  105.6450 N   0  0  0  0  0  0  0  0  0  0  0  0
  125.9154  108.8937  108.0113 O   0  0  0  0  0  0  0  0  0  0  0  0
  117.5648  104.4622  102.9094 F   0  0  0  0  0  0  0  0  0  0  0  0
  119.5358  104.1655  103.7928 F   0  0  0  0  0  0  0  0  0  0  0  0
  117.7933  103.2084  104.6835 F   0  0  0  0  0  0  0  0  0  0  0  0
  120.5635  107.4226  106.5295 H   0  0  0  0  0  0  0  0  0  0  0  0
  120.3188  107.0636  104.8158 H   0  0  0  0  0  0  0  0  0  0  0  0
  120.5013  103.8143  107.4635 H   0  0  0  0  0  0  0  0  0  0  0  0
  120.6760  105.4343  108.1497 H   0  0  0  0  0  0  0  0  0  0  0  0
  122.4999  105.9851  104.6326 H   0  0  0  0  0  0  0  0  0  0  0  0
  122.6737  107.6053  105.3186 H   0  0  0  0  0  0  0  0  0  0  0  0
  122.8563  104.3545  107.9643 H   0  0  0  0  0  0  0  0  0  0  0  0
  122.6108  103.9976  106.2501 H   0  0  0  0  0  0  0  0  0  0  0  0
  124.8545  105.2007  108.4811 H   0  0  0  0  0  0  0  0  0  0  0  0
  126.1060  104.8343  107.2828 H   0  0  0  0  0  0  0  0  0  0  0  0
  124.5860  103.9374  107.2677 H   0  0  0  0  0  0  0  0  0  0  0  0
  116.9608  105.6686  105.1605 H   0  0  0  0  0  0  0  0  0  0  0  0
  118.3506  106.4489  104.4076 H   0  0  0  0  0  0  0  0  0  0  0  0
  118.4304  104.6050  106.8688 H   0  0  0  0  0  0  0  0  0  0  0  0
  118.5635  106.3649  106.8803 H   0  0  0  0  0  0  0  0  0  0  0  0
  124.5910  105.6484  105.4598 H   0  0  0  0  0  0  0  0  0  0  0  0
  124.6843  107.9118  104.7390 H   0  0  0  0  0  0  0  0  0  0  0  0
  125.4131  109.1377  105.7212 H   0  0  0  0  0  0  0  0  0  0  0  0
  126.1743  108.9465  108.9469 H   0  0  0  0  0  0  0  0  0  0  0  0
  1  9  1  0  0  0  0
  1 11  2  0  0  0  0
  1 14  1  0  0  0  0
  2  4  1  0  0  0  0
  2 12  1  0  0  0  0
  3  5  1  0  0  0  0
  3 12  1  0  0  0  0
  4 13  1  0  0  0  0
  5 13  1  0  0  0  0
  6  9  1  0  0  0  0
  7  8  1  0  0  0  0
  7 10  1  0  0  0  0
  8 12  1  0  0  0  0
  9 13  1  0  0  0  0
 10 16  1  0  0  0  0
 10 17  1  0  0  0  0
 10 18  1  0  0  0  0
 11 15  1  0  0  0  0
  2 19  1  0  0  0  0
  2 20  1  0  0  0  0
  3 21  1  0  0  0  0
  3 22  1  0  0  0  0
  4 23  1  0  0  0  0
  4 24  1  0  0  0  0
  5 25  1  0  0  0  0
  5 26  1  0  0  0  0
  6 27  1  0  0  0  0
  6 28  1  0  0  0  0
  6 29  1  0  0  0  0
  7 30  1  0  0  0  0
  7 31  1  0  0  0  0
  8 32  1  0  0  0  0
  8 33  1  0  0  0  0
  9 34  1  0  0  0  0
 14 35  1  0  0  0  0
 14 36  1  0  0  0  0
 15 37  1  0  0  0  0
M  END
> <FRED Chemgauss4 score>
-8.408793

$$$$
C42040577	P63623457
  -OEChem-05122015313D

 26 26  0     1  0  0  0  0  0999 V2000
  122.7489  107.0847  108.7577 C   0  0  0  0  0  0  0  0  0  0  0  0
  121.7508  108.8008  109.6351 C   0  0  0  0  0  0  0  0  0  0  0  0
  124.9911  104.0004  107.8522 C   0  0  0  0  0  0  0  0  0  0  0  0
  125.5846  106.1697  108.9522 C   0  0  0  0  0  0  0  0  0  0  0  0
  124.6827  106.1584  106.6265 C   0  0  0  0  0  0  0  0  0  0  0  0
  123.1332  105.6459  108.5663 C   0  0  2  0  0  0  0  0  0  0  0  0
  124.5781  105.4776  108.0086 C   0  0  0  0  0  0  0  0  0  0  0  0
  123.1947  108.0709  108.0369 N   0  0  0  0  0  0  0  0  0  0  0  0
  121.8838  107.4336  109.7316 N   0  0  0  0  0  0  0  0  0  0  0  0
  122.5809  109.1694  108.5682 N   0  0  0  0  0  0  0  0  0  0  0  0
  122.1028  105.0486  107.7197 N   0  0  0  0  0  0  0  0  0  0  0  0
  121.0621  109.5369  110.3248 O   0  0  0  0  0  0  0  0  0  0  0  0
  124.3088  103.4576  107.1898 H   0  0  0  0  0  0  0  0  0  0  0  0
  126.0044  103.9018  107.4492 H   0  0  0  0  0  0  0  0  0  0  0  0
  124.9778  103.4869  108.8209 H   0  0  0  0  0  0  0  0  0  0  0  0
  125.3388  107.2268  109.1001 H   0  0  0  0  0  0  0  0  0  0  0  0
  126.6036  106.1138  108.5526 H   0  0  0  0  0  0  0  0  0  0  0  0
  125.5904  105.6962  109.9408 H   0  0  0  0  0  0  0  0  0  0  0  0
  124.3981  107.2156  106.6839 H   0  0  0  0  0  0  0  0  0  0  0  0
  124.0203  105.6766  105.8982 H   0  0  0  0  0  0  0  0  0  0  0  0
  125.7035  106.1177  106.2311 H   0  0  0  0  0  0  0  0  0  0  0  0
  123.0745  105.1704  109.5533 H   0  0  0  0  0  0  0  0  0  0  0  0
  121.4276  106.8190  110.3949 H   0  0  0  0  0  0  0  0  0  0  0  0
  122.7080  110.1173  108.2374 H   0  0  0  0  0  0  0  0  0  0  0  0
  121.1756  105.4076  107.7869 H   0  0  0  0  0  0  0  0  0  0  0  0
  122.3117  104.1862  107.2660 H   0  0  0  0  0  0  0  0  0  0  0  0
  1  6  1  0  0  0  0
  1  8  2  0  0  0  0
  1  9  1  0  0  0  0
  2  9  1  0  0  0  0
  2 10  1  0  0  0  0
  2 12  2  0  0  0  0
  3  7  1  0  0  0  0
  4  7  1  0  0  0  0
  5  7  1  0  0  0  0
  6  7  1  0  0  0  0
  6 11  1  0  0  0  0
  8 10  1  0  0  0  0
  3 13  1  0  0  0  0
  3 14  1  0  0  0  0
  3 15  1  0  0  0  0
  4 16  1  0  0  0  0
  4 17  1  0  0  0  0
  4 18  1  0  0  0  0
  5 19  1  0  0  0  0
  5 20  1  0  0  0  0
  5 21  1  0  0  0  0
  6 22  1  0  0  0  0
  9 23  1  0  0  0  0
 10 24  1  0  0  0  0
 11 25  1  0  0  0  0
 11 26  1  0  0  0  0
M  END
> <FRED Chemgauss4 score>
-8.401541

$$$$
C87666364	P137137159
  -OEChem-05122015313D

 29 30  0     1  0  0  0  0  0999 V2000
  122.8514  104.5733  107.5955 C   0  0  0  0  0  0  0  0  0  0  0  0
  124.1205  104.8127  107.9473 C   0  0  0  0  0  0  0  0  0  0  0  0
  123.5339  106.4117  106.4294 C   0  0  0  0  0  0  0  0  0  0  0  0
  120.4096  104.2909  105.7641 C   0  0  0  0  0  0  0  0  0  0  0  0
  119.9305  105.1728  106.8786 C   0  0  0  0  0  0  0  0  0  0  0  0
  121.1541  105.5561  106.0921 C   0  0  0  0  0  0  0  0  0  0  0  0
  125.9012  106.4699  107.3943 C   0  0  0  0  0  0  0  0  0  0  0  0
  125.0620  108.7210  108.2435 C   0  0  0  0  0  0  0  0  0  0  0  0
  125.9327  107.9891  107.2218 C   0  0  1  0  0  0  0  0  0  0  0  0
  122.4526  105.5179  106.6769 N   0  0  0  0  0  0  0  0  0  0  0  0
  124.5763  105.9182  107.2653 N   0  0  0  0  0  0  0  0  0  0  0  0
  124.7581  110.0535  107.7698 N   0  0  0  0  0  0  0  0  0  0  0  0
  123.5596  107.3743  105.6774 O   0  0  0  0  0  0  0  0  0  0  0  0
  127.2775  108.4515  107.3479 O   0  0  0  0  0  0  0  0  0  0  0  0
  122.1904  103.7915  107.9330 H   0  0  0  0  0  0  0  0  0  0  0  0
  124.7461  104.2748  108.6408 H   0  0  0  0  0  0  0  0  0  0  0  0
  120.8603  103.3427  106.0307 H   0  0  0  0  0  0  0  0  0  0  0  0
  119.8278  104.2706  104.8509 H   0  0  0  0  0  0  0  0  0  0  0  0
  119.0264  105.7463  106.7154 H   0  0  0  0  0  0  0  0  0  0  0  0
  120.0595  104.8166  107.8932 H   0  0  0  0  0  0  0  0  0  0  0  0
  121.0452  106.3789  105.3938 H   0  0  0  0  0  0  0  0  0  0  0  0
  126.5342  105.9799  106.6479 H   0  0  0  0  0  0  0  0  0  0  0  0
  126.2582  106.1896  108.3905 H   0  0  0  0  0  0  0  0  0  0  0  0
  125.5743  108.8095  109.2072 H   0  0  0  0  0  0  0  0  0  0  0  0
  124.1205  108.1843  108.3987 H   0  0  0  0  0  0  0  0  0  0  0  0
  125.5995  108.2349  106.2061 H   0  0  0  0  0  0  0  0  0  0  0  0
  125.4700  110.5674  107.2839 H   0  0  0  0  0  0  0  0  0  0  0  0
  123.9301  110.5089  108.1079 H   0  0  0  0  0  0  0  0  0  0  0  0
  127.7850  108.0115  106.6494 H   0  0  0  0  0  0  0  0  0  0  0  0
  1  2  2  0  0  0  0
  1 10  1  0  0  0  0
  2 11  1  0  0  0  0
  3 10  1  0  0  0  0
  3 11  1  0  0  0  0
  3 13  2  0  0  0  0
  4  5  1  0  0  0  0
  4  6  1  0  0  0  0
  5  6  1  0  0  0  0
  6 10  1  0  0  0  0
  7  9  1  0  0  0  0
  7 11  1  0  0  0  0
  8  9  1  0  0  0  0
  8 12  1  0  0  0  0
  9 14  1  0  0  0  0
  1 15  1  0  0  0  0
  2 16  1  0  0  0  0
  4 17  1  0  0  0  0
  4 18  1  0  0  0  0
  5 19  1  0  0  0  0
  5 20  1  0  0  0  0
  6 21  1  0  0  0  0
  7 22  1  0  0  0  0
  7 23  1  0  0  0  0
  8 24  1  0  0  0  0
  8 25  1  0  0  0  0
  9 26  1  0  0  0  0
 12 27  1  0  0  0  0
 12 28  1  0  0  0  0
 14 29  1  0  0  0  0
M  END
> <FRED Chemgauss4 score>
-8.399504

$$$$
C83274984	P130168707
  -OEChem-05122015313D

 27 28  0     1  0  0  0  0  0999 V2000
  125.6247  107.9000  107.3731 C   0  0  0  0  0  0  0  0  0  0  0  0
  124.5520  109.0358  108.8973 C   0  0  0  0  0  0  0  0  0  0  0  0
  126.1356  106.7191  106.6311 C   0  0  0  0  0  0  0  0  0  0  0  0
  125.2943  105.4693  106.9121 C   0  0  0  0  0  0  0  0  0  0  0  0
  125.0095  105.3211  108.4101 C   0  0  0  0  0  0  0  0  0  0  0  0
  124.2461  106.5347  108.9445 C   0  0  0  0  0  0  0  0  0  0  0  0
  124.4580  109.3825  111.4026 C   0  0  0  0  0  0  0  0  0  0  0  0
  123.6964  109.3436  110.0570 C   0  0  1  0  0  0  0  0  0  0  0  0
  125.8861  109.1759  107.1791 N   0  0  0  0  0  0  0  0  0  0  0  0
  125.2046  109.8949  108.1451 N   0  0  0  0  0  0  0  0  0  0  0  0
  124.7920  107.7786  108.4503 N   0  0  0  0  0  0  0  0  0  0  0  0
  122.9647  110.5978  109.8871 N   0  0  0  0  0  0  0  0  0  0  0  0
  123.5599  109.1920  112.4910 O   0  0  0  0  0  0  0  0  0  0  0  0
  126.1093  106.9431  105.5580 H   0  0  0  0  0  0  0  0  0  0  0  0
  127.1806  106.5291  106.8982 H   0  0  0  0  0  0  0  0  0  0  0  0
  124.3532  105.5257  106.3536 H   0  0  0  0  0  0  0  0  0  0  0  0
  125.8266  104.5780  106.5562 H   0  0  0  0  0  0  0  0  0  0  0  0
  124.4175  104.4118  108.5748 H   0  0  0  0  0  0  0  0  0  0  0  0
  125.9464  105.2000  108.9646 H   0  0  0  0  0  0  0  0  0  0  0  0
  123.1920  106.4779  108.6544 H   0  0  0  0  0  0  0  0  0  0  0  0
  124.3109  106.5759  110.0378 H   0  0  0  0  0  0  0  0  0  0  0  0
  125.1973  108.5749  111.4379 H   0  0  0  0  0  0  0  0  0  0  0  0
  124.9745  110.3378  111.5462 H   0  0  0  0  0  0  0  0  0  0  0  0
  122.8862  108.5919  110.1731 H   0  0  0  0  0  0  0  0  0  0  0  0
  122.6517  111.0710  110.7059 H   0  0  0  0  0  0  0  0  0  0  0  0
  122.6319  110.8250  108.9759 H   0  0  0  0  0  0  0  0  0  0  0  0
  124.0936  109.2265  113.3004 H   0  0  0  0  0  0  0  0  0  0  0  0
  1  3  1  0  0  0  0
  1  9  2  0  0  0  0
  1 11  1  0  0  0  0
  2  8  1  0  0  0  0
  2 10  2  0  0  0  0
  2 11  1  0  0  0  0
  3  4  1  0  0  0  0
  4  5  1  0  0  0  0
  5  6  1  0  0  0  0
  6 11  1  0  0  0  0
  7  8  1  0  0  0  0
  7 13  1  0  0  0  0
  8 12  1  0  0  0  0
  9 10  1  0  0  0  0
  3 14  1  0  0  0  0
  3 15  1  0  0  0  0
  4 16  1  0  0  0  0
  4 17  1  0  0  0  0
  5 18  1  0  0  0  0
  5 19  1  0  0  0  0
  6 20  1  0  0  0  0
  6 21  1  0  0  0  0
  7 22  1  0  0  0  0
  7 23  1  0  0  0  0
  8 24  1  0  0  0  0
 12 25  1  0  0  0  0
 12 26  1  0  0  0  0
 13 27  1  0  0  0  0
M  END
> <FRED Chemgauss4 score>
-8.395940

$$$$
C85275770	P133442969
  -OEChem-05122015313D

 29 30  0     1  0  0  0  0  0999 V2000
  122.8549  107.7063  107.1455 C   0  0  0  0  0  0  0  0  0  0  0  0
  123.2607  105.9599  105.9984 C   0  0  0  0  0  0  0  0  0  0  0  0
  124.0403  107.2116  107.6361 C   0  0  0  0  0  0  0  0  0  0  0  0
  125.2542  103.6825  107.2344 C   0  0  0  0  0  0  0  0  0  0  0  0
  125.7958  104.5225  108.3482 C   0  0  0  0  0  0  0  0  0  0  0  0
  125.4701  105.1621  107.0189 C   0  0  0  0  0  0  0  0  0  0  0  0
  123.7909  109.8503  109.5776 C   0  0  0  0  0  0  0  0  0  0  0  0
  124.9524  107.7000  108.7385 C   0  0  2  0  0  0  0  0  0  0  0  0
  125.0061  109.2371  108.8716 C   0  0  1  0  0  0  0  0  0  0  0  0
  122.3746  106.9225  106.1264 N   0  0  0  0  0  0  0  0  0  0  0  0
  124.2871  106.0925  106.8917 N   0  0  0  0  0  0  0  0  0  0  0  0
  125.1489  109.8267  107.5539 N   0  0  0  0  0  0  0  0  0  0  0  0
  124.0785  111.1479  110.0830 O   0  0  0  0  0  0  0  0  0  0  0  0
  126.2629  107.2017  108.4499 O   0  0  0  0  0  0  0  0  0  0  0  0
  122.3209  108.5867  107.4730 H   0  0  0  0  0  0  0  0  0  0  0  0
  123.2112  105.1475  105.2861 H   0  0  0  0  0  0  0  0  0  0  0  0
  125.9333  102.9972  106.7421 H   0  0  0  0  0  0  0  0  0  0  0  0
  124.2384  103.3175  107.3277 H   0  0  0  0  0  0  0  0  0  0  0  0
  125.1449  104.7219  109.1908 H   0  0  0  0  0  0  0  0  0  0  0  0
  126.8410  104.4055  108.6069 H   0  0  0  0  0  0  0  0  0  0  0  0
  126.2772  105.4728  106.3917 H   0  0  0  0  0  0  0  0  0  0  0  0
  123.4806  109.2291  110.4235 H   0  0  0  0  0  0  0  0  0  0  0  0
  122.9351  109.9293  108.8980 H   0  0  0  0  0  0  0  0  0  0  0  0
  124.6565  107.2502  109.6946 H   0  0  0  0  0  0  0  0  0  0  0  0
  125.9119  109.5380  109.4119 H   0  0  0  0  0  0  0  0  0  0  0  0
  125.6924  109.3398  106.8679 H   0  0  0  0  0  0  0  0  0  0  0  0
  124.8803  110.7831  107.4258 H   0  0  0  0  0  0  0  0  0  0  0  0
  123.2681  111.4667  110.5118 H   0  0  0  0  0  0  0  0  0  0  0  0
  126.8359  107.5210  109.1618 H   0  0  0  0  0  0  0  0  0  0  0  0
  1  3  2  0  0  0  0
  1 10  1  0  0  0  0
  2 10  2  0  0  0  0
  2 11  1  0  0  0  0
  3  8  1  0  0  0  0
  3 11  1  0  0  0  0
  4  5  1  0  0  0  0
  4  6  1  0  0  0  0
  5  6  1  0  0  0  0
  6 11  1  0  0  0  0
  7  9  1  0  0  0  0
  7 13  1  0  0  0  0
  8  9  1  0  0  0  0
  8 14  1  0  0  0  0
  9 12  1  0  0  0  0
  1 15  1  0  0  0  0
  2 16  1  0  0  0  0
  4 17  1  0  0  0  0
  4 18  1  0  0  0  0
  5 19  1  0  0  0  0
  5 20  1  0  0  0  0
  6 21  1  0  0  0  0
  7 22  1  0  0  0  0
  7 23  1  0  0  0  0
  8 24  1  0  0  0  0
  9 25  1  0  0  0  0
 12 26  1  0  0  0  0
 12 27  1  0  0  0  0
 13 28  1  0  0  0  0
 14 29  1  0  0  0  0
M  END
> <FRED Chemgauss4 score>
-8.395445

$$$$
C85420816	P133703560
  -OEChem-05122015313D

 23 23  0     0  0  0  0  0  0999 V2000
  123.1175  108.6934  110.1015 C   0  0  0  0  0  0  0  0  0  0  0  0
  124.7196  108.8712  108.7753 C   0  0  0  0  0  0  0  0  0  0  0  0
  125.7860  106.3421  108.0632 C   0  0  0  0  0  0  0  0  0  0  0  0
  125.3314  107.4470  105.8469 C   0  0  0  0  0  0  0  0  0  0  0  0
  126.0902  107.5419  107.1691 C   0  0  0  0  0  0  0  0  0  0  0  0
  123.8710  107.9733  109.2192 N   0  0  0  0  0  0  0  0  0  0  0  0
  123.4465  109.9804  110.2314 N   0  0  0  0  0  0  0  0  0  0  0  0
  124.4737  110.0681  109.3727 N   0  0  0  0  0  0  0  0  0  0  0  0
  122.1163  108.0602  110.7656 N   0  0  0  0  0  0  0  0  0  0  0  0
  125.7480  108.7704  107.8560 N   0  0  0  0  0  0  0  0  0  0  0  0
  126.1385  106.6529  109.4066 O   0  0  0  0  0  0  0  0  0  0  0  0
  125.9604  108.2811  104.8806 O   0  0  0  0  0  0  0  0  0  0  0  0
  126.3745  105.4707  107.7575 H   0  0  0  0  0  0  0  0  0  0  0  0
  124.7227  106.0799  108.0346 H   0  0  0  0  0  0  0  0  0  0  0  0
  124.2895  107.7669  105.9571 H   0  0  0  0  0  0  0  0  0  0  0  0
  125.3481  106.4217  105.4631 H   0  0  0  0  0  0  0  0  0  0  0  0
  127.1681  107.6087  106.9793 H   0  0  0  0  0  0  0  0  0  0  0  0
  124.9468  110.9555  109.2525 H   0  0  0  0  0  0  0  0  0  0  0  0
  121.8863  107.0762  110.5853 H   0  0  0  0  0  0  0  0  0  0  0  0
  121.4893  108.5631  111.4041 H   0  0  0  0  0  0  0  0  0  0  0  0
  126.2951  109.5959  107.6490 H   0  0  0  0  0  0  0  0  0  0  0  0
  125.9301  105.8680  109.9376 H   0  0  0  0  0  0  0  0  0  0  0  0
  125.4494  108.1913  104.0606 H   0  0  0  0  0  0  0  0  0  0  0  0
  1  6  1  0  0  0  0
  1  7  2  0  0  0  0
  1  9  1  0  0  0  0
  2  6  2  0  0  0  0
  2  8  1  0  0  0  0
  2 10  1  0  0  0  0
  3  5  1  0  0  0  0
  3 11  1  0  0  0  0
  4  5  1  0  0  0  0
  4 12  1  0  0  0  0
  5 10  1  0  0  0  0
  7  8  1  0  0  0  0
  3 13  1  0  0  0  0
  3 14  1  0  0  0  0
  4 15  1  0  0  0  0
  4 16  1  0  0  0  0
  5 17  1  0  0  0  0
  8 18  1  0  0  0  0
  9 19  1  0  0  0  0
  9 20  1  0  0  0  0
 10 21  1  0  0  0  0
 11 22  1  0  0  0  0
 12 23  1  0  0  0  0
M  END
> <FRED Chemgauss4 score>
-8.392970

$$$$
C48262969	P72208098
  -OEChem-05122015313D

 27 27  0     0  0  0  0  0  0999 V2000
  114.9960  105.5139  103.8362 C   0  0  0  0  0  0  0  0  0  0  0  0
  116.9585  106.8970  103.9779 C   0  0  0  0  0  0  0  0  0  0  0  0
  114.2577  106.6132  104.2440 C   0  0  0  0  0  0  0  0  0  0  0  0
  116.1323  107.9344  104.3791 C   0  0  0  0  0  0  0  0  0  0  0  0
  116.3715  105.6668  103.7031 C   0  0  0  0  0  0  0  0  0  0  0  0
  119.5418  103.8809  106.1093 C   0  0  0  0  0  0  0  0  0  0  0  0
  120.1913  104.8744  107.0231 C   0  0  0  0  0  0  0  0  0  0  0  0
  117.2241  104.5022  103.2629 C   0  0  0  0  0  0  0  0  0  0  0  0
  117.7322  103.6609  104.4312 C   0  0  0  0  0  0  0  0  0  0  0  0
  114.7923  107.8238  104.5199 N   0  0  0  0  0  0  0  0  0  0  0  0
  121.8500  105.1118  108.6987 N   0  0  0  0  0  0  0  0  0  0  0  0
  118.5222  104.4289  105.3648 N   0  0  0  0  0  0  0  0  0  0  0  0
  121.1805  104.3147  107.7943 N   0  0  0  0  0  0  0  0  0  0  0  0
  119.9516  102.7314  106.1304 O   0  0  0  0  0  0  0  0  0  0  0  0
  119.7804  106.0240  107.0010 O   0  0  0  0  0  0  0  0  0  0  0  0
  114.5078  104.5672  103.6304 H   0  0  0  0  0  0  0  0  0  0  0  0
  118.0284  107.0474  103.8830 H   0  0  0  0  0  0  0  0  0  0  0  0
  113.1813  106.5456  104.3643 H   0  0  0  0  0  0  0  0  0  0  0  0
  116.5411  108.9136  104.6053 H   0  0  0  0  0  0  0  0  0  0  0  0
  118.0801  104.8917  102.6973 H   0  0  0  0  0  0  0  0  0  0  0  0
  116.6602  103.8735  102.5619 H   0  0  0  0  0  0  0  0  0  0  0  0
  116.8859  103.2541  104.9936 H   0  0  0  0  0  0  0  0  0  0  0  0
  118.3483  102.8233  104.0880 H   0  0  0  0  0  0  0  0  0  0  0  0
  122.0822  104.5227  109.4973 H   0  0  0  0  0  0  0  0  0  0  0  0
  121.1791  105.7981  109.0415 H   0  0  0  0  0  0  0  0  0  0  0  0
  118.2992  105.4137  105.4755 H   0  0  0  0  0  0  0  0  0  0  0  0
  121.4147  103.3315  107.7001 H   0  0  0  0  0  0  0  0  0  0  0  0
  1  3  1  0  0  0  0
  1  5  2  0  0  0  0
  2  4  2  0  0  0  0
  2  5  1  0  0  0  0
  3 10  2  0  0  0  0
  4 10  1  0  0  0  0
  5  8  1  0  0  0  0
  6  7  1  0  0  0  0
  6 12  1  0  0  0  0
  6 14  2  0  0  0  0
  7 13  1  0  0  0  0
  7 15  2  0  0  0  0
  8  9  1  0  0  0  0
  9 12  1  0  0  0  0
 11 13  1  0  0  0  0
  1 16  1  0  0  0  0
  2 17  1  0  0  0  0
  3 18  1  0  0  0  0
  4 19  1  0  0  0  0
  8 20  1  0  0  0  0
  8 21  1  0  0  0  0
  9 22  1  0  0  0  0
  9 23  1  0  0  0  0
 11 24  1  0  0  0  0
 11 25  1  0  0  0  0
 12 26  1  0  0  0  0
 13 27  1  0  0  0  0
M  END
> <FRED Chemgauss4 score>
-8.392605

$$$$
C83281337	P130183447
  -OEChem-05122015313D

 30 31  0     1  0  0  0  0  0999 V2000
  124.9988  107.9512  107.2650 C   0  0  0  0  0  0  0  0  0  0  0  0
  124.2790  108.7965  109.1442 C   0  0  0  0  0  0  0  0  0  0  0  0
  125.3183  106.9215  106.2434 C   0  0  0  0  0  0  0  0  0  0  0  0
  125.4229  105.5243  106.8645 C   0  0  0  0  0  0  0  0  0  0  0  0
  124.2608  105.2595  107.8270 C   0  0  0  0  0  0  0  0  0  0  0  0
  124.2486  106.2829  108.9645 C   0  0  0  0  0  0  0  0  0  0  0  0
  124.2218  110.1101  111.3375 C   0  0  0  0  0  0  0  0  0  0  0  0
  123.4945  111.3963  110.9594 C   0  0  0  0  0  0  0  0  0  0  0  0
  123.7390  108.8851  110.5125 C   0  0  1  0  0  0  0  0  0  0  0  0
  125.1097  109.2607  107.1831 N   0  0  0  0  0  0  0  0  0  0  0  0
  124.6542  109.7953  108.3753 N   0  0  0  0  0  0  0  0  0  0  0  0
  124.4749  107.6278  108.4854 N   0  0  0  0  0  0  0  0  0  0  0  0
  122.2773  108.8968  110.5280 N   0  0  0  0  0  0  0  0  0  0  0  0
  124.0125  112.4616  111.7459 O   0  0  0  0  0  0  0  0  0  0  0  0
  124.5266  106.9253  105.4847 H   0  0  0  0  0  0  0  0  0  0  0  0
  126.2562  107.1718  105.7361 H   0  0  0  0  0  0  0  0  0  0  0  0
  125.4344  104.7685  106.0710 H   0  0  0  0  0  0  0  0  0  0  0  0
  126.3710  105.4325  107.4097 H   0  0  0  0  0  0  0  0  0  0  0  0
  123.3154  105.3142  107.2722 H   0  0  0  0  0  0  0  0  0  0  0  0
  124.3333  104.2478  108.2405 H   0  0  0  0  0  0  0  0  0  0  0  0
  123.2873  106.2573  109.4878 H   0  0  0  0  0  0  0  0  0  0  0  0
  125.0483  106.0665  109.6819 H   0  0  0  0  0  0  0  0  0  0  0  0
  124.0822  109.9346  112.4132 H   0  0  0  0  0  0  0  0  0  0  0  0
  125.3037  110.2544  111.2174 H   0  0  0  0  0  0  0  0  0  0  0  0
  123.6455  111.6461  109.9051 H   0  0  0  0  0  0  0  0  0  0  0  0
  122.4213  111.3096  111.1567 H   0  0  0  0  0  0  0  0  0  0  0  0
  123.9977  107.9836  111.1091 H   0  0  0  0  0  0  0  0  0  0  0  0
  121.8213  109.2995  111.3169 H   0  0  0  0  0  0  0  0  0  0  0  0
  121.7982  108.3306  109.8628 H   0  0  0  0  0  0  0  0  0  0  0  0
  123.5315  113.2627  111.4830 H   0  0  0  0  0  0  0  0  0  0  0  0
  1  3  1  0  0  0  0
  1 10  2  0  0  0  0
  1 12  1  0  0  0  0
  2  9  1  0  0  0  0
  2 11  2  0  0  0  0
  2 12  1  0  0  0  0
  3  4  1  0  0  0  0
  4  5  1  0  0  0  0
  5  6  1  0  0  0  0
  6 12  1  0  0  0  0
  7  8  1  0  0  0  0
  7  9  1  0  0  0  0
  8 14  1  0  0  0  0
  9 13  1  0  0  0  0
 10 11  1  0  0  0  0
  3 15  1  0  0  0  0
  3 16  1  0  0  0  0
  4 17  1  0  0  0  0
  4 18  1  0  0  0  0
  5 19  1  0  0  0  0
  5 20  1  0  0  0  0
  6 21  1  0  0  0  0
  6 22  1  0  0  0  0
  7 23  1  0  0  0  0
  7 24  1  0  0  0  0
  8 25  1  0  0  0  0
  8 26  1  0  0  0  0
  9 27  1  0  0  0  0
 13 28  1  0  0  0  0
 13 29  1  0  0  0  0
 14 30  1  0  0  0  0
M  END
> <FRED Chemgauss4 score>
-8.384974

$$$$
C70590893	P108886028
  -OEChem-05122015313D

 28 28  0     1  0  0  0  0  0999 V2000
  126.1606  107.6049  107.1929 C   0  0  0  0  0  0  0  0  0  0  0  0
  126.6453  106.1726  107.1689 C   0  0  0  0  0  0  0  0  0  0  0  0
  124.9615  106.4380  108.8661 C   0  0  0  0  0  0  0  0  0  0  0  0
  126.1913  105.6201  108.5160 C   0  0  2  0  0  0  0  0  0  0  0  0
  121.4665  106.0644  107.4812 C   0  0  0  0  0  0  0  0  0  0  0  0
  124.4045  108.8705  108.4868 C   0  0  0  0  0  0  0  0  0  0  0  0
  122.5068  108.1069  106.9627 C   0  0  0  0  0  0  0  0  0  0  0  0
  122.9104  108.5735  108.3581 C   0  0  2  0  0  0  0  0  0  0  0  0
  125.2003  107.6973  108.1963 N   0  0  0  0  0  0  0  0  0  0  0  0
  126.5363  108.4774  106.4239 O   0  0  0  0  0  0  0  0  0  0  0  0
  127.2176  105.8499  109.4778 O   0  0  0  0  0  0  0  0  0  0  0  0
  122.1586  109.7441  108.6806 O   0  0  0  0  0  0  0  0  0  0  0  0
  121.2712  107.4039  107.0521 O   0  0  0  0  0  0  0  0  0  0  0  0
  126.1459  105.6618  106.3396 H   0  0  0  0  0  0  0  0  0  0  0  0
  127.7308  106.1455  107.0428 H   0  0  0  0  0  0  0  0  0  0  0  0
  124.0499  106.0043  108.4429 H   0  0  0  0  0  0  0  0  0  0  0  0
  124.8450  106.6059  109.9407 H   0  0  0  0  0  0  0  0  0  0  0  0
  125.9953  104.5445  108.4849 H   0  0  0  0  0  0  0  0  0  0  0  0
  120.5014  105.5551  107.5389 H   0  0  0  0  0  0  0  0  0  0  0  0
  121.9511  106.0617  108.4609 H   0  0  0  0  0  0  0  0  0  0  0  0
  122.1051  105.5495  106.7596 H   0  0  0  0  0  0  0  0  0  0  0  0
  124.6907  109.6605  107.7844 H   0  0  0  0  0  0  0  0  0  0  0  0
  124.6359  109.2205  109.4982 H   0  0  0  0  0  0  0  0  0  0  0  0
  123.2546  107.4264  106.5440 H   0  0  0  0  0  0  0  0  0  0  0  0
  122.3573  108.9526  106.2839 H   0  0  0  0  0  0  0  0  0  0  0  0
  122.6287  107.8088  109.0916 H   0  0  0  0  0  0  0  0  0  0  0  0
  126.8954  105.4874  110.3176 H   0  0  0  0  0  0  0  0  0  0  0  0
  122.3882  109.9734  109.5935 H   0  0  0  0  0  0  0  0  0  0  0  0
  1  2  1  0  0  0  0
  1  9  1  0  0  0  0
  1 10  2  0  0  0  0
  2  4  1  0  0  0  0
  3  4  1  0  0  0  0
  3  9  1  0  0  0  0
  4 11  1  0  0  0  0
  5 13  1  0  0  0  0
  6  8  1  0  0  0  0
  6  9  1  0  0  0  0
  7  8  1  0  0  0  0
  7 13  1  0  0  0  0
  8 12  1  0  0  0  0
  2 14  1  0  0  0  0
  2 15  1  0  0  0  0
  3 16  1  0  0  0  0
  3 17  1  0  0  0  0
  4 18  1  0  0  0  0
  5 19  1  0  0  0  0
  5 20  1  0  0  0  0
  5 21  1  0  0  0  0
  6 22  1  0  0  0  0
  6 23  1  0  0  0  0
  7 24  1  0  0  0  0
  7 25  1  0  0  0  0
  8 26  1  0  0  0  0
 11 27  1  0  0  0  0
 12 28  1  0  0  0  0
M  END
> <FRED Chemgauss4 score>
-8.370621

$$$$
C85133553	P133223209
  -OEChem-05122015313D

 34 34  0     1  0  0  0  0  0999 V2000
  125.2895  108.7213  107.9540 C   0  0  0  0  0  0  0  0  0  0  0  0
  124.9461  105.9004  108.6523 C   0  0  0  0  0  0  0  0  0  0  0  0
  125.6268  106.2558  107.3456 C   0  0  0  0  0  0  0  0  0  0  0  0
  123.8400  106.9025  108.9219 C   0  0  0  0  0  0  0  0  0  0  0  0
  126.2506  107.6358  107.4700 C   0  0  1  0  0  0  0  0  0  0  0  0
  123.9069  108.6205  111.7598 C   0  0  0  0  0  0  0  0  0  0  0  0
  122.9204  110.8985  111.3493 C   0  0  0  0  0  0  0  0  0  0  0  0
  123.3589  109.2840  109.3832 C   0  0  0  0  0  0  0  0  0  0  0  0
  123.5906  111.7530  112.4207 C   0  0  0  0  0  0  0  0  0  0  0  0
  123.8121  109.7824  110.7637 C   0  0  2  0  0  0  0  0  0  0  0  0
  124.2578  108.2986  108.7970 N   0  0  0  0  0  0  0  0  0  0  0  0
  126.8067  108.0599  106.2090 N   0  0  0  0  0  0  0  0  0  0  0  0
  125.5056  109.9070  107.6864 O   0  0  0  0  0  0  0  0  0  0  0  0
  124.7506  112.3772  111.8912 O   0  0  0  0  0  0  0  0  0  0  0  0
  124.5306  104.8881  108.6051 H   0  0  0  0  0  0  0  0  0  0  0  0
  125.6760  105.9157  109.4709 H   0  0  0  0  0  0  0  0  0  0  0  0
  126.3957  105.5089  107.1141 H   0  0  0  0  0  0  0  0  0  0  0  0
  124.8922  106.2273  106.5301 H   0  0  0  0  0  0  0  0  0  0  0  0
  123.0155  106.7529  108.2144 H   0  0  0  0  0  0  0  0  0  0  0  0
  123.4473  106.7446  109.9327 H   0  0  0  0  0  0  0  0  0  0  0  0
  127.0609  107.5989  108.2178 H   0  0  0  0  0  0  0  0  0  0  0  0
  122.9295  108.1600  111.9377 H   0  0  0  0  0  0  0  0  0  0  0  0
  124.5867  107.8454  111.3905 H   0  0  0  0  0  0  0  0  0  0  0  0
  124.2934  108.9688  112.7236 H   0  0  0  0  0  0  0  0  0  0  0  0
  122.5543  111.5522  110.5486 H   0  0  0  0  0  0  0  0  0  0  0  0
  122.0377  110.4234  111.7973 H   0  0  0  0  0  0  0  0  0  0  0  0
  123.2938  110.1197  108.6780 H   0  0  0  0  0  0  0  0  0  0  0  0
  122.3652  108.8288  109.4354 H   0  0  0  0  0  0  0  0  0  0  0  0
  123.8945  111.1203  113.2611 H   0  0  0  0  0  0  0  0  0  0  0  0
  122.9145  112.5234  112.8023 H   0  0  0  0  0  0  0  0  0  0  0  0
  124.8279  110.1822  110.6450 H   0  0  0  0  0  0  0  0  0  0  0  0
  127.2364  107.3705  105.6335 H   0  0  0  0  0  0  0  0  0  0  0  0
  126.9225  109.0369  106.0557 H   0  0  0  0  0  0  0  0  0  0  0  0
  125.1379  112.9061  112.6080 H   0  0  0  0  0  0  0  0  0  0  0  0
  1  5  1  0  0  0  0
  1 11  1  0  0  0  0
  1 13  2  0  0  0  0
  2  3  1  0  0  0  0
  2  4  1  0  0  0  0
  3  5  1  0  0  0  0
  4 11  1  0  0  0  0
  5 12  1  0  0  0  0
  6 10  1  0  0  0  0
  7  9  1  0  0  0  0
  7 10  1  0  0  0  0
  8 10  1  0  0  0  0
  8 11  1  0  0  0  0
  9 14  1  0  0  0  0
  2 15  1  0  0  0  0
  2 16  1  0  0  0  0
  3 17  1  0  0  0  0
  3 18  1  0  0  0  0
  4 19  1  0  0  0  0
  4 20  1  0  0  0  0
  5 21  1  0  0  0  0
  6 22  1  0  0  0  0
  6 23  1  0  0  0  0
  6 24  1  0  0  0  0
  7 25  1  0  0  0  0
  7 26  1  0  0  0  0
  8 27  1  0  0  0  0
  8 28  1  0  0  0  0
  9 29  1  0  0  0  0
  9 30  1  0  0  0  0
 10 31  1  0  0  0  0
 12 32  1  0  0  0  0
 12 33  1  0  0  0  0
 14 34  1  0  0  0  0
M  END
> <FRED Chemgauss4 score>
-8.364606

$$$$
C04787862	P06905685
  -OEChem-05122015313D

 36 36  0     1  0  0  0  0  0999 V2000
  121.0250  107.3695  107.4132 C   0  0  0  0  0  0  0  0  0  0  0  0
  120.7645  104.0060  105.7451 C   0  0  0  0  0  0  0  0  0  0  0  0
  122.9600  106.4344  106.1612 C   0  0  2  0  0  0  0  0  0  0  0  0
  122.9903  104.9131  106.3569 C   0  0  1  0  0  0  0  0  0  0  0  0
  124.3774  106.9203  105.8283 C   0  0  2  0  0  0  0  0  0  0  0  0
  125.4761  106.3689  106.7511 C   0  0  1  0  0  0  0  0  0  0  0  0
  124.0656  104.4828  107.3630 C   0  0  1  0  0  0  0  0  0  0  0  0
  120.6485  108.0977  108.6607 C   0  0  0  0  0  0  0  0  0  0  0  0
  119.4931  103.4754  106.3197 C   0  0  0  0  0  0  0  0  0  0  0  0
  125.6878  107.1171  108.0662 C   0  0  0  0  0  0  0  0  0  0  0  0
  122.3805  107.1261  107.2892 N   0  0  0  0  0  0  0  0  0  0  0  0
  121.6945  104.3773  106.6941 N   0  0  0  0  0  0  0  0  0  0  0  0
  120.1526  107.0465  106.6155 O   0  0  0  0  0  0  0  0  0  0  0  0
  120.8959  104.0734  104.5285 O   0  0  0  0  0  0  0  0  0  0  0  0
  125.3531  104.9584  106.9604 O   0  0  0  0  0  0  0  0  0  0  0  0
  124.4377  108.3382  105.7512 O   0  0  0  0  0  0  0  0  0  0  0  0
  123.7196  104.8855  108.6834 O   0  0  0  0  0  0  0  0  0  0  0  0
  126.9728  106.7953  108.5676 O   0  0  0  0  0  0  0  0  0  0  0  0
  122.3224  106.6487  105.3100 H   0  0  0  0  0  0  0  0  0  0  0  0
  123.2178  104.4243  105.3680 H   0  0  0  0  0  0  0  0  0  0  0  0
  124.6165  106.5748  104.7572 H   0  0  0  0  0  0  0  0  0  0  0  0
  126.4725  106.4978  106.1679 H   0  0  0  0  0  0  0  0  0  0  0  0
  124.1097  103.3636  107.3772 H   0  0  0  0  0  0  0  0  0  0  0  0
  120.6577  109.1916  108.5281 H   0  0  0  0  0  0  0  0  0  0  0  0
  119.6283  107.8540  108.9982 H   0  0  0  0  0  0  0  0  0  0  0  0
  121.2952  107.9060  109.5318 H   0  0  0  0  0  0  0  0  0  0  0  0
  118.7471  104.2677  106.4932 H   0  0  0  0  0  0  0  0  0  0  0  0
  118.9992  102.7519  105.6514 H   0  0  0  0  0  0  0  0  0  0  0  0
  119.5934  102.9554  107.2859 H   0  0  0  0  0  0  0  0  0  0  0  0
  124.9327  106.8158  108.7930 H   0  0  0  0  0  0  0  0  0  0  0  0
  125.6265  108.1928  107.8982 H   0  0  0  0  0  0  0  0  0  0  0  0
  122.9992  107.4496  108.0278 H   0  0  0  0  0  0  0  0  0  0  0  0
  121.4561  104.2686  107.6734 H   0  0  0  0  0  0  0  0  0  0  0  0
  123.8233  108.6007  105.0492 H   0  0  0  0  0  0  0  0  0  0  0  0
  124.4372  104.5835  109.2618 H   0  0  0  0  0  0  0  0  0  0  0  0
  127.0832  107.2820  109.4020 H   0  0  0  0  0  0  0  0  0  0  0  0
  1  8  1  0  0  0  0
  1 11  1  0  0  0  0
  1 13  2  0  0  0  0
  2  9  1  0  0  0  0
  2 12  1  0  0  0  0
  2 14  2  0  0  0  0
  3  4  1  0  0  0  0
  3  5  1  0  0  0  0
  3 11  1  0  0  0  0
  4  7  1  0  0  0  0
  4 12  1  0  0  0  0
  5  6  1  0  0  0  0
  5 16  1  0  0  0  0
  6 10  1  0  0  0  0
  6 15  1  0  0  0  0
  7 15  1  0  0  0  0
  7 17  1  0  0  0  0
 10 18  1  0  0  0  0
  3 19  1  0  0  0  0
  4 20  1  0  0  0  0
  5 21  1  0  0  0  0
  6 22  1  0  0  0  0
  7 23  1  0  0  0  0
  8 24  1  0  0  0  0
  8 25  1  0  0  0  0
  8 26  1  0  0  0  0
  9 27  1  0  0  0  0
  9 28  1  0  0  0  0
  9 29  1  0  0  0  0
 10 30  1  0  0  0  0
 10 31  1  0  0  0  0
 11 32  1  0  0  0  0
 12 33  1  0  0  0  0
 16 34  1  0  0  0  0
 17 35  1  0  0  0  0
 18 36  1  0  0  0  0
M  END
> <FRED Chemgauss4 score>
-8.363230

$$$$
C82583446	P129059853
  -OEChem-05122015313D

 29 30  0     1  0  0  0  0  0999 V2000
  122.2773  110.1049  112.0226 C   0  0  0  0  0  0  0  0  0  0  0  0
  122.5751  108.7432  111.9636 C   0  0  0  0  0  0  0  0  0  0  0  0
  122.7873  110.9496  111.0416 C   0  0  0  0  0  0  0  0  0  0  0  0
  123.3809  108.3087  110.9034 C   0  0  0  0  0  0  0  0  0  0  0  0
  123.8217  109.2601  109.9939 C   0  0  0  0  0  0  0  0  0  0  0  0
  124.5578  107.2520  109.4715 C   0  0  0  0  0  0  0  0  0  0  0  0
  125.0478  104.3782  106.8564 C   0  0  0  0  0  0  0  0  0  0  0  0
  125.2495  109.1214  107.9389 C   0  0  0  0  0  0  0  0  0  0  0  0
  125.2733  106.2054  108.7124 C   0  0  1  0  0  0  0  0  0  0  0  0
  124.3855  105.5245  107.6179 C   0  0  2  0  0  0  0  0  0  0  0  0
  123.5693  110.5794  109.9984 N   0  0  0  0  0  0  0  0  0  0  0  0
  123.8482  107.0624  110.5638 N   0  0  0  0  0  0  0  0  0  0  0  0
  124.5717  108.5660  109.0872 N   0  0  0  0  0  0  0  0  0  0  0  0
  126.5148  106.7217  108.0861 N   0  0  0  0  0  0  0  0  0  0  0  0
  123.2209  104.9907  108.2572 O   0  0  0  0  0  0  0  0  0  0  0  0
  121.6576  110.4981  112.8214 H   0  0  0  0  0  0  0  0  0  0  0  0
  122.1959  108.0546  112.7103 H   0  0  0  0  0  0  0  0  0  0  0  0
  122.5621  112.0121  111.0764 H   0  0  0  0  0  0  0  0  0  0  0  0
  125.4176  103.6001  107.5299 H   0  0  0  0  0  0  0  0  0  0  0  0
  125.8821  104.7429  106.2472 H   0  0  0  0  0  0  0  0  0  0  0  0
  124.3329  103.9178  106.1651 H   0  0  0  0  0  0  0  0  0  0  0  0
  126.2565  109.4121  108.2497 H   0  0  0  0  0  0  0  0  0  0  0  0
  125.2962  108.3707  107.1452 H   0  0  0  0  0  0  0  0  0  0  0  0
  124.6939  109.9911  107.5771 H   0  0  0  0  0  0  0  0  0  0  0  0
  125.6001  105.3908  109.3965 H   0  0  0  0  0  0  0  0  0  0  0  0
  124.0373  106.2686  106.8924 H   0  0  0  0  0  0  0  0  0  0  0  0
  126.8573  106.2297  107.3028 H   0  0  0  0  0  0  0  0  0  0  0  0
  127.0297  107.3881  108.5998 H   0  0  0  0  0  0  0  0  0  0  0  0
  122.6565  104.6499  107.5485 H   0  0  0  0  0  0  0  0  0  0  0  0
  1  2  2  0  0  0  0
  1  3  1  0  0  0  0
  2  4  1  0  0  0  0
  3 11  2  0  0  0  0
  4  5  2  0  0  0  0
  4 12  1  0  0  0  0
  5 11  1  0  0  0  0
  5 13  1  0  0  0  0
  6  9  1  0  0  0  0
  6 12  2  0  0  0  0
  6 13  1  0  0  0  0
  7 10  1  0  0  0  0
  8 13  1  0  0  0  0
  9 10  1  0  0  0  0
  9 14  1  0  0  0  0
 10 15  1  0  0  0  0
  1 16  1  0  0  0  0
  2 17  1  0  0  0  0
  3 18  1  0  0  0  0
  7 19  1  0  0  0  0
  7 20  1  0  0  0  0
  7 21  1  0  0  0  0
  8 22  1  0  0  0  0
  8 23  1  0  0  0  0
  8 24  1  0  0  0  0
  9 25  1  0  0  0  0
 10 26  1  0  0  0  0
 14 27  1  0  0  0  0
 14 28  1  0  0  0  0
 15 29  1  0  0  0  0
M  END
> <FRED Chemgauss4 score>
-8.360840

$$$$
C94465098	P148064370
  -OEChem-05122015313D

 44 45  0     1  0  0  0  0  0999 V2000
  120.7798  105.4637  104.4002 C   0  0  0  0  0  0  0  0  0  0  0  0
  114.8017  106.8224  105.2110 C   0  0  0  0  0  0  0  0  0  0  0  0
  115.3134  105.7812  106.1874 C   0  0  0  0  0  0  0  0  0  0  0  0
  115.5876  106.4995  103.9575 C   0  0  0  0  0  0  0  0  0  0  0  0
  116.6208  104.4560  103.1045 C   0  0  0  0  0  0  0  0  0  0  0  0
  118.0248  104.4897  103.7340 C   0  0  0  0  0  0  0  0  0  0  0  0
  116.8420  103.7794  105.7275 C   0  0  0  0  0  0  0  0  0  0  0  0
  115.5690  104.5411  105.3191 C   0  0  2  0  0  0  0  0  0  0  0  0
  123.9616  104.3610  106.8372 C   0  0  0  0  0  0  0  0  0  0  0  0
  120.1065  106.0566  106.7869 C   0  0  0  0  0  0  0  0  0  0  0  0
  119.2608  103.9013  105.7284 C   0  0  0  0  0  0  0  0  0  0  0  0
  122.7534  105.0815  106.3435 C   0  0  0  0  0  0  0  0  0  0  0  0
  120.4211  104.9239  105.7987 C   0  0  1  0  0  0  0  0  0  0  0  0
  115.5654  105.0359  103.9280 N   0  0  1  0  0  0  0  0  0  0  0  0
  118.0226  104.4655  105.2030 N   0  0  1  0  0  0  0  0  0  0  0  0
  121.0739  104.4969  103.4624 N   0  0  0  0  0  0  0  0  0  0  0  0
  121.6054  104.1956  106.2784 N   0  0  0  0  0  0  0  0  0  0  0  0
  120.8233  106.6651  104.1359 O   0  0  0  0  0  0  0  0  0  0  0  0
  113.7353  106.7047  105.0550 H   0  0  0  0  0  0  0  0  0  0  0  0
  115.0085  107.8282  105.5563 H   0  0  0  0  0  0  0  0  0  0  0  0
  116.2038  106.1153  106.7213 H   0  0  0  0  0  0  0  0  0  0  0  0
  114.5371  105.5613  106.9257 H   0  0  0  0  0  0  0  0  0  0  0  0
  115.1194  106.9242  103.0678 H   0  0  0  0  0  0  0  0  0  0  0  0
  116.5997  106.9025  104.0417 H   0  0  0  0  0  0  0  0  0  0  0  0
  116.6459  104.9402  102.1193 H   0  0  0  0  0  0  0  0  0  0  0  0
  116.3559  103.4075  102.9086 H   0  0  0  0  0  0  0  0  0  0  0  0
  118.5861  103.6120  103.3529 H   0  0  0  0  0  0  0  0  0  0  0  0
  118.5797  105.3764  103.3593 H   0  0  0  0  0  0  0  0  0  0  0  0
  116.9043  103.6750  106.8171 H   0  0  0  0  0  0  0  0  0  0  0  0
  116.7838  102.7680  105.3101 H   0  0  0  0  0  0  0  0  0  0  0  0
  114.7023  103.8336  105.4462 H   0  0  0  0  0  0  0  0  0  0  0  0
  123.7946  103.9620  107.8436 H   0  0  0  0  0  0  0  0  0  0  0  0
  124.2290  103.5400  106.1631 H   0  0  0  0  0  0  0  0  0  0  0  0
  124.8123  105.0513  106.8844 H   0  0  0  0  0  0  0  0  0  0  0  0
  119.8531  105.6611  107.7771 H   0  0  0  0  0  0  0  0  0  0  0  0
  120.9574  106.7328  106.9295 H   0  0  0  0  0  0  0  0  0  0  0  0
  119.2664  106.6680  106.4375 H   0  0  0  0  0  0  0  0  0  0  0  0
  119.5443  103.0503  105.0960 H   0  0  0  0  0  0  0  0  0  0  0  0
  119.0495  103.4970  106.7265 H   0  0  0  0  0  0  0  0  0  0  0  0
  122.9271  105.4773  105.3383 H   0  0  0  0  0  0  0  0  0  0  0  0
  122.4971  105.9108  107.0093 H   0  0  0  0  0  0  0  0  0  0  0  0
  121.0422  103.5176  103.7241 H   0  0  0  0  0  0  0  0  0  0  0  0
  121.3217  104.7554  102.5131 H   0  0  0  0  0  0  0  0  0  0  0  0
  121.4029  103.8250  107.2015 H   0  0  0  0  0  0  0  0  0  0  0  0
  1 13  1  0  0  0  0
  1 16  1  0  0  0  0
  1 18  2  0  0  0  0
  2  3  1  0  0  0  0
  2  4  1  0  0  0  0
  3  8  1  0  0  0  0
  4 14  1  0  0  0  0
  5  6  1  0  0  0  0
  5 14  1  0  0  0  0
  6 15  1  0  0  0  0
  7  8  1  0  0  0  0
  7 15  1  0  0  0  0
  8 14  1  0  0  0  0
  9 12  1  0  0  0  0
 10 13  1  0  0  0  0
 11 13  1  0  0  0  0
 11 15  1  0  0  0  0
 12 17  1  0  0  0  0
 13 17  1  0  0  0  0
  2 19  1  0  0  0  0
  2 20  1  0  0  0  0
  3 21  1  0  0  0  0
  3 22  1  0  0  0  0
  4 23  1  0  0  0  0
  4 24  1  0  0  0  0
  5 25  1  0  0  0  0
  5 26  1  0  0  0  0
  6 27  1  0  0  0  0
  6 28  1  0  0  0  0
  7 29  1  0  0  0  0
  7 30  1  0  0  0  0
  8 31  1  0  0  0  0
  9 32  1  0  0  0  0
  9 33  1  0  0  0  0
  9 34  1  0  0  0  0
 10 35  1  0  0  0  0
 10 36  1  0  0  0  0
 10 37  1  0  0  0  0
 11 38  1  0  0  0  0
 11 39  1  0  0  0  0
 12 40  1  0  0  0  0
 12 41  1  0  0  0  0
 16 42  1  0  0  0  0
 16 43  1  0  0  0  0
 17 44  1  0  0  0  0
M  END
> <FRED Chemgauss4 score>
-8.354924

$$$$
C04786584	P06903634
  -OEChem-05122015313D

 16 16  0     1  0  0  0  0  0999 V2000
  124.3726  106.1238  106.3327 C   0  0  0  0  0  0  0  0  0  0  0  0
  124.5195  104.9203  107.2171 C   0  0  0  0  0  0  0  0  0  0  0  0
  125.2101  107.3481  106.5835 C   0  0  0  0  0  0  0  0  0  0  0  0
  125.4153  104.9789  108.4242 C   0  0  0  0  0  0  0  0  0  0  0  0
  126.3408  107.1708  107.5772 C   0  0  2  0  0  0  0  0  0  0  0  0
  125.9120  106.3609  108.7997 C   0  0  2  0  0  0  0  0  0  0  0  0
  123.5678  106.1119  105.4197 O   0  0  0  0  0  0  0  0  0  0  0  0
  123.9217  103.8940  106.9506 O   0  0  0  0  0  0  0  0  0  0  0  0
  124.9550  108.3694  105.9655 O   0  0  0  0  0  0  0  0  0  0  0  0
  125.6537  103.9451  109.0280 O   0  0  0  0  0  0  0  0  0  0  0  0
  126.7487  108.4634  108.0022 O   0  0  0  0  0  0  0  0  0  0  0  0
  127.0312  106.1986  109.6591 O   0  0  0  0  0  0  0  0  0  0  0  0
  127.1882  106.6959  107.0694 H   0  0  0  0  0  0  0  0  0  0  0  0
  125.1254  106.8809  109.3585 H   0  0  0  0  0  0  0  0  0  0  0  0
  127.0416  108.9406  107.2087 H   0  0  0  0  0  0  0  0  0  0  0  0
  126.7195  105.7074  110.4367 H   0  0  0  0  0  0  0  0  0  0  0  0
  1  2  1  0  0  0  0
  1  3  1  0  0  0  0
  1  7  2  0  0  0  0
  2  4  1  0  0  0  0
  2  8  2  0  0  0  0
  3  5  1  0  0  0  0
  3  9  2  0  0  0  0
  4  6  1  0  0  0  0
  4 10  2  0  0  0  0
  5  6  1  0  0  0  0
  5 11  1  0  0  0  0
  6 12  1  0  0  0  0
  5 13  1  0  0  0  0
  6 14  1  0  0  0  0
 11 15  1  0  0  0  0
 12 16  1  0  0  0  0
M  END
> <FRED Chemgauss4 score>
-8.350883

$$$$
C20417407	P30428796
  -OEChem-05122015313D

 15 15  0     0  0  0  0  0  0999 V2000
  125.8649  106.6842  107.8486 C   0  0  0  0  0  0  0  0  0  0  0  0
  126.1337  107.8914  107.2355 C   0  0  0  0  0  0  0  0  0  0  0  0
  124.2331  106.3400  106.1670 C   0  0  0  0  0  0  0  0  0  0  0  0
  124.8822  105.8819  107.2959 C   0  0  0  0  0  0  0  0  0  0  0  0
  124.5364  104.5672  107.8994 C   0  0  0  0  0  0  0  0  0  0  0  0
  125.4827  108.3146  106.1313 N   0  0  0  0  0  0  0  0  0  0  0  0
  124.5166  107.5261  105.5884 N   0  0  0  0  0  0  0  0  0  0  0  0
  123.2917  104.6045  108.6275 N   0  0  0  0  0  0  0  0  0  0  0  0
  126.4121  106.3817  108.7348 H   0  0  0  0  0  0  0  0  0  0  0  0
  126.8917  108.5640  107.6189 H   0  0  0  0  0  0  0  0  0  0  0  0
  123.4521  105.7649  105.6818 H   0  0  0  0  0  0  0  0  0  0  0  0
  124.4417  103.7862  107.1299 H   0  0  0  0  0  0  0  0  0  0  0  0
  125.3120  104.2244  108.6003 H   0  0  0  0  0  0  0  0  0  0  0  0
  123.1460  103.9498  109.3766 H   0  0  0  0  0  0  0  0  0  0  0  0
  122.5235  105.1334  108.2517 H   0  0  0  0  0  0  0  0  0  0  0  0
  1  2  1  0  0  0  0
  1  4  2  0  0  0  0
  2  6  2  0  0  0  0
  3  4  1  0  0  0  0
  3  7  2  0  0  0  0
  4  5  1  0  0  0  0
  5  8  1  0  0  0  0
  6  7  1  0  0  0  0
  1  9  1  0  0  0  0
  2 10  1  0  0  0  0
  3 11  1  0  0  0  0
  5 12  1  0  0  0  0
  5 13  1  0  0  0  0
  8 14  1  0  0  0  0
  8 15  1  0  0  0  0
M  END
> <FRED Chemgauss4 score>
-8.345510

$$$$
C92775311	P145220810
  -OEChem-05122015313D

 34 35  0     1  0  0  0  0  0999 V2000
  122.1059  107.6315  109.4076 C   0  0  0  0  0  0  0  0  0  0  0  0
  124.7437  108.6708  109.2531 C   0  0  0  0  0  0  0  0  0  0  0  0
  122.4316  108.8408  109.9933 C   0  0  0  0  0  0  0  0  0  0  0  0
  123.7313  109.3374  109.9132 C   0  0  0  0  0  0  0  0  0  0  0  0
  124.4209  107.4514  108.6552 C   0  0  0  0  0  0  0  0  0  0  0  0
  123.1137  106.9356  108.7322 C   0  0  0  0  0  0  0  0  0  0  0  0
  122.5735  110.9171  111.1271 C   0  0  0  0  0  0  0  0  0  0  0  0
  121.5819  109.7929  110.7813 C   0  0  1  0  0  0  0  0  0  0  0  0
  119.3728  109.4310  109.9155 C   0  0  0  0  0  0  0  0  0  0  0  0
  125.8208  105.4185  108.3947 C   0  0  0  0  0  0  0  0  0  0  0  0
  126.1096  107.3537  106.8390 C   0  0  0  0  0  0  0  0  0  0  0  0
  125.0880  107.6911  105.7684 C   0  0  0  0  0  0  0  0  0  0  0  0
  123.8111  110.5557  110.5791 N   0  0  0  0  0  0  0  0  0  0  0  0
  120.4862  110.3662  110.0164 N   0  0  0  0  0  0  0  0  0  0  0  0
  125.4433  106.7501  107.9728 N   0  0  3  0  0  0  0  0  0  0  0  0
  122.3144  111.9326  111.7551 O   0  0  0  0  0  0  0  0  0  0  0  0
  125.7423  108.3161  104.6715 O   0  0  0  0  0  0  0  0  0  0  0  0
  122.6569  105.2766  107.9247 Br  0  0  0  0  0  0  0  0  0  0  0  0
  121.0943  107.2444  109.4773 H   0  0  0  0  0  0  0  0  0  0  0  0
  125.7471  109.0805  109.2032 H   0  0  0  0  0  0  0  0  0  0  0  0
  121.2347  109.3226  111.7070 H   0  0  0  0  0  0  0  0  0  0  0  0
  119.6994  108.5093  109.4270 H   0  0  0  0  0  0  0  0  0  0  0  0
  118.5613  109.8712  109.3298 H   0  0  0  0  0  0  0  0  0  0  0  0
  118.9935  109.1861  110.9113 H   0  0  0  0  0  0  0  0  0  0  0  0
  126.6212  105.0350  107.7566 H   0  0  0  0  0  0  0  0  0  0  0  0
  124.9633  104.7435  108.3277 H   0  0  0  0  0  0  0  0  0  0  0  0
  126.1734  105.4356  109.4295 H   0  0  0  0  0  0  0  0  0  0  0  0
  126.8578  106.6475  106.4651 H   0  0  0  0  0  0  0  0  0  0  0  0
  126.6144  108.2613  107.1834 H   0  0  0  0  0  0  0  0  0  0  0  0
  124.3478  108.3931  106.1648 H   0  0  0  0  0  0  0  0  0  0  0  0
  124.5727  106.7952  105.4071 H   0  0  0  0  0  0  0  0  0  0  0  0
  124.6552  111.1103  110.6578 H   0  0  0  0  0  0  0  0  0  0  0  0
  120.1647  111.2198  110.4740 H   0  0  0  0  0  0  0  0  0  0  0  0
  125.0569  108.5142  104.0133 H   0  0  0  0  0  0  0  0  0  0  0  0
  1  3  1  0  0  0  0
  1  6  2  0  0  0  0
  2  4  1  0  0  0  0
  2  5  2  0  0  0  0
  3  4  2  0  0  0  0
  3  8  1  0  0  0  0
  4 13  1  0  0  0  0
  5  6  1  0  0  0  0
  5 15  1  0  0  0  0
  6 18  1  0  0  0  0
  7  8  1  0  0  0  0
  7 13  1  0  0  0  0
  7 16  2  0  0  0  0
  8 14  1  0  0  0  0
  9 14  1  0  0  0  0
 10 15  1  0  0  0  0
 11 12  1  0  0  0  0
 11 15  1  0  0  0  0
 12 17  1  0  0  0  0
  1 19  1  0  0  0  0
  2 20  1  0  0  0  0
  8 21  1  0  0  0  0
  9 22  1  0  0  0  0
  9 23  1  0  0  0  0
  9 24  1  0  0  0  0
 10 25  1  0  0  0  0
 10 26  1  0  0  0  0
 10 27  1  0  0  0  0
 11 28  1  0  0  0  0
 11 29  1  0  0  0  0
 12 30  1  0  0  0  0
 12 31  1  0  0  0  0
 13 32  1  0  0  0  0
 14 33  1  0  0  0  0
 17 34  1  0  0  0  0
M  END
> <FRED Chemgauss4 score>
-8.342142

$$$$
C91657941	P143485470
  -OEChem-05122015313D

 32 34  0     1  0  0  0  0  0999 V2000
  119.3557  103.6388  105.5816 C   0  0  0  0  0  0  0  0  0  0  0  0
  119.0433  104.3074  106.7566 C   0  0  0  0  0  0  0  0  0  0  0  0
  118.7378  104.0152  104.3944 C   0  0  0  0  0  0  0  0  0  0  0  0
  118.1300  105.3657  106.7399 C   0  0  0  0  0  0  0  0  0  0  0  0
  117.0004  109.3686  108.1736 C   0  0  0  0  0  0  0  0  0  0  0  0
  117.8056  105.0681  104.3720 C   0  0  0  0  0  0  0  0  0  0  0  0
  117.5115  105.7968  105.5478 C   0  0  0  0  0  0  0  0  0  0  0  0
  117.3452  108.5308  107.1326 C   0  0  0  0  0  0  0  0  0  0  0  0
  116.3184  107.7675  106.6154 C   0  0  0  0  0  0  0  0  0  0  0  0
  114.8399  108.6670  108.0891 C   0  0  0  0  0  0  0  0  0  0  0  0
  117.1457  105.4007  103.0602 C   0  0  0  0  0  0  0  0  0  0  0  0
  115.8394  106.1416  103.2952 C   0  0  0  0  0  0  0  0  0  0  0  0
  116.0338  107.3284  104.2424 C   0  0  2  0  0  0  0  0  0  0  0  0
  116.9160  108.4224  103.6252 C   0  0  0  0  0  0  0  0  0  0  0  0
  115.7528  109.4623  108.6786 N   0  0  0  0  0  0  0  0  0  0  0  0
  115.0493  107.8104  107.0713 N   0  0  0  0  0  0  0  0  0  0  0  0
  116.5948  106.8803  105.5418 N   0  0  0  0  0  0  0  0  0  0  0  0
  113.2456  108.7536  108.6977 Cl  0  0  0  0  0  0  0  0  0  0  0  0
  119.1234  108.4827  106.5077 Br  0  0  0  0  0  0  0  0  0  0  0  0
  120.0827  102.8333  105.5871 H   0  0  0  0  0  0  0  0  0  0  0  0
  119.5094  104.0110  107.6923 H   0  0  0  0  0  0  0  0  0  0  0  0
  118.9850  103.4856  103.4774 H   0  0  0  0  0  0  0  0  0  0  0  0
  117.9042  105.8521  107.6884 H   0  0  0  0  0  0  0  0  0  0  0  0
  117.7292  110.0133  108.6551 H   0  0  0  0  0  0  0  0  0  0  0  0
  117.8257  106.0204  102.4741 H   0  0  0  0  0  0  0  0  0  0  0  0
  116.9423  104.4881  102.4989 H   0  0  0  0  0  0  0  0  0  0  0  0
  115.4230  106.4737  102.3387 H   0  0  0  0  0  0  0  0  0  0  0  0
  115.1109  105.4508  103.7379 H   0  0  0  0  0  0  0  0  0  0  0  0
  115.0453  107.7691  104.4044 H   0  0  0  0  0  0  0  0  0  0  0  0
  117.9139  108.0291  103.4452 H   0  0  0  0  0  0  0  0  0  0  0  0
  116.9804  109.2677  104.3064 H   0  0  0  0  0  0  0  0  0  0  0  0
  116.4841  108.7520  102.6830 H   0  0  0  0  0  0  0  0  0  0  0  0
  1  2  1  0  0  0  0
  1  3  2  0  0  0  0
  2  4  2  0  0  0  0
  3  6  1  0  0  0  0
  4  7  1  0  0  0  0
  5  8  2  0  0  0  0
  5 15  1  0  0  0  0
  6  7  2  0  0  0  0
  6 11  1  0  0  0  0
  7 17  1  0  0  0  0
  8  9  1  0  0  0  0
  8 19  1  0  0  0  0
  9 16  2  0  0  0  0
  9 17  1  0  0  0  0
 10 15  2  0  0  0  0
 10 16  1  0  0  0  0
 10 18  1  0  0  0  0
 11 12  1  0  0  0  0
 12 13  1  0  0  0  0
 13 14  1  0  0  0  0
 13 17  1  0  0  0  0
  1 20  1  0  0  0  0
  2 21  1  0  0  0  0
  3 22  1  0  0  0  0
  4 23  1  0  0  0  0
  5 24  1  0  0  0  0
 11 25  1  0  0  0  0
 11 26  1  0  0  0  0
 12 27  1  0  0  0  0
 12 28  1  0  0  0  0
 13 29  1  0  0  0  0
 14 30  1  0  0  0  0
 14 31  1  0  0  0  0
 14 32  1  0  0  0  0
M  END
> <FRED Chemgauss4 score>
-8.342112

$$$$
C85074710	P133146096
  -OEChem-05122015313D

 27 27  0     1  0  0  0  0  0999 V2000
  125.1516  109.0422  108.1162 C   0  0  0  0  0  0  0  0  0  0  0  0
  124.2704  107.6056  109.5286 C   0  0  0  0  0  0  0  0  0  0  0  0
  124.9589  107.6660  108.3416 C   0  0  0  0  0  0  0  0  0  0  0  0
  123.1461  110.8372  111.1031 C   0  0  0  0  0  0  0  0  0  0  0  0
  124.9965  105.1485  108.0756 C   0  0  0  0  0  0  0  0  0  0  0  0
  123.4274  109.3446  111.1235 C   0  0  0  0  0  0  0  0  0  0  0  0
  124.8543  106.6944  106.0317 C   0  0  0  0  0  0  0  0  0  0  0  0
  125.4117  106.4966  107.4611 C   0  0  1  0  0  0  0  0  0  0  0  0
  124.6277  109.8012  109.0823 N   0  0  0  0  0  0  0  0  0  0  0  0
  124.0990  108.8988  109.9263 N   0  0  0  0  0  0  0  0  0  0  0  0
  123.3954  106.7779  105.9904 N   0  0  0  0  0  0  0  0  0  0  0  0
  126.8439  106.4899  107.3821 O   0  0  0  0  0  0  0  0  0  0  0  0
  125.6508  109.5260  107.2886 H   0  0  0  0  0  0  0  0  0  0  0  0
  123.8961  106.7732  110.1090 H   0  0  0  0  0  0  0  0  0  0  0  0
  124.0727  111.4133  111.0083 H   0  0  0  0  0  0  0  0  0  0  0  0
  122.6479  111.1421  112.0285 H   0  0  0  0  0  0  0  0  0  0  0  0
  122.4986  111.1062  110.2619 H   0  0  0  0  0  0  0  0  0  0  0  0
  125.3178  104.3077  107.4499 H   0  0  0  0  0  0  0  0  0  0  0  0
  123.9043  105.0743  108.1438 H   0  0  0  0  0  0  0  0  0  0  0  0
  125.4114  104.9991  109.0774 H   0  0  0  0  0  0  0  0  0  0  0  0
  122.4947  108.7770  111.2184 H   0  0  0  0  0  0  0  0  0  0  0  0
  124.0568  109.0818  111.9812 H   0  0  0  0  0  0  0  0  0  0  0  0
  125.1641  105.8697  105.3795 H   0  0  0  0  0  0  0  0  0  0  0  0
  125.2566  107.6196  105.6002 H   0  0  0  0  0  0  0  0  0  0  0  0
  122.8754  106.1726  106.5868 H   0  0  0  0  0  0  0  0  0  0  0  0
  122.9770  107.2780  105.2372 H   0  0  0  0  0  0  0  0  0  0  0  0
  127.0938  107.3392  106.9927 H   0  0  0  0  0  0  0  0  0  0  0  0
  1  3  1  0  0  0  0
  1  9  2  0  0  0  0
  2  3  2  0  0  0  0
  2 10  1  0  0  0  0
  3  8  1  0  0  0  0
  4  6  1  0  0  0  0
  5  8  1  0  0  0  0
  6 10  1  0  0  0  0
  7  8  1  0  0  0  0
  7 11  1  0  0  0  0
  8 12  1  0  0  0  0
  9 10  1  0  0  0  0
  1 13  1  0  0  0  0
  2 14  1  0  0  0  0
  4 15  1  0  0  0  0
  4 16  1  0  0  0  0
  4 17  1  0  0  0  0
  5 18  1  0  0  0  0
  5 19  1  0  0  0  0
  5 20  1  0  0  0  0
  6 21  1  0  0  0  0
  6 22  1  0  0  0  0
  7 23  1  0  0  0  0
  7 24  1  0  0  0  0
 11 25  1  0  0  0  0
 11 26  1  0  0  0  0
 12 27  1  0  0  0  0
M  END
> <FRED Chemgauss4 score>
-8.341980

$$$$
C88067871	P137751168
  -OEChem-05122015313D

 26 26  0     1  0  0  0  0  0999 V2000
  120.8731  105.7057  106.0900 C   0  0  0  0  0  0  0  0  0  0  0  0
  121.9302  105.1302  106.7652 C   0  0  0  0  0  0  0  0  0  0  0  0
  121.1863  106.8043  105.3160 C   0  0  0  0  0  0  0  0  0  0  0  0
  123.3760  106.6611  105.9091 C   0  0  0  0  0  0  0  0  0  0  0  0
  124.7503  107.4552  109.8937 C   0  0  0  0  0  0  0  0  0  0  0  0
  124.7753  107.1953  105.8079 C   0  0  0  0  0  0  0  0  0  0  0  0
  124.8274  109.3477  108.1828 C   0  0  0  0  0  0  0  0  0  0  0  0
  124.5879  107.8537  108.4289 C   0  0  1  0  0  0  0  0  0  0  0  0
  123.1991  105.5836  106.6972 N   0  0  0  0  0  0  0  0  0  0  0  0
  122.4317  107.3108  105.2022 N   0  0  0  0  0  0  0  0  0  0  0  0
  123.8755  110.1740  108.9180 N   0  0  0  0  0  0  0  0  0  0  0  0
  126.9855  107.7178  107.2531 O   0  0  0  0  0  0  0  0  0  0  0  0
  125.7545  106.8858  107.3874 S   0  0  2  0  0  0  0  0  0  0  0  0
  119.8649  105.3208  106.1629 H   0  0  0  0  0  0  0  0  0  0  0  0
  121.7813  104.2622  107.3986 H   0  0  0  0  0  0  0  0  0  0  0  0
  120.4212  107.3234  104.7486 H   0  0  0  0  0  0  0  0  0  0  0  0
  125.7435  107.7193  110.2733 H   0  0  0  0  0  0  0  0  0  0  0  0
  124.0048  107.9501  110.5243 H   0  0  0  0  0  0  0  0  0  0  0  0
  124.6230  106.3748  110.0245 H   0  0  0  0  0  0  0  0  0  0  0  0
  125.3120  106.7179  104.9811 H   0  0  0  0  0  0  0  0  0  0  0  0
  124.7709  108.2731  105.6138 H   0  0  0  0  0  0  0  0  0  0  0  0
  125.8444  109.6274  108.4821 H   0  0  0  0  0  0  0  0  0  0  0  0
  124.7350  109.5744  107.1141 H   0  0  0  0  0  0  0  0  0  0  0  0
  123.5848  107.5741  108.0860 H   0  0  0  0  0  0  0  0  0  0  0  0
  123.6707  111.0836  108.5636 H   0  0  0  0  0  0  0  0  0  0  0  0
  123.6226  109.8919  109.8407 H   0  0  0  0  0  0  0  0  0  0  0  0
  1  2  1  0  0  0  0
  1  3  2  0  0  0  0
  2  9  2  0  0  0  0
  3 10  1  0  0  0  0
  4  6  1  0  0  0  0
  4  9  1  0  0  0  0
  4 10  2  0  0  0  0
  5  8  1  0  0  0  0
  6 13  1  0  0  0  0
  7  8  1  0  0  0  0
  7 11  1  0  0  0  0
  8 13  1  0  0  0  0
 12 13  2  0  0  0  0
  1 14  1  0  0  0  0
  2 15  1  0  0  0  0
  3 16  1  0  0  0  0
  5 17  1  0  0  0  0
  5 18  1  0  0  0  0
  5 19  1  0  0  0  0
  6 20  1  0  0  0  0
  6 21  1  0  0  0  0
  7 22  1  0  0  0  0
  7 23  1  0  0  0  0
  8 24  1  0  0  0  0
 11 25  1  0  0  0  0
 11 26  1  0  0  0  0
M  END
> <FRED Chemgauss4 score>
-8.340549

$$$$
C52785703	P79103784
  -OEChem-05122015313D

 23 23  0     1  0  0  0  0  0999 V2000
  127.4214  107.0329  107.4618 C   0  0  0  0  0  0  0  0  0  0  0  0
  125.4202  106.9748  106.8712 C   0  0  0  0  0  0  0  0  0  0  0  0
  120.0954  103.9635  106.0055 C   0  0  0  0  0  0  0  0  0  0  0  0
  123.1044  105.8954  106.8904 C   0  0  0  0  0  0  0  0  0  0  0  0
  122.0114  105.3241  105.9930 C   0  0  0  0  0  0  0  0  0  0  0  0
  124.1127  106.7750  106.1338 C   0  0  1  0  0  0  0  0  0  0  0  0
  126.6128  106.6466  106.4314 N   0  0  0  0  0  0  0  0  0  0  0  0
  125.5254  107.5304  108.1081 N   0  0  0  0  0  0  0  0  0  0  0  0
  126.8041  107.5794  108.5114 N   0  0  0  0  0  0  0  0  0  0  0  0
  123.5093  108.0523  105.8197 N   0  0  0  0  0  0  0  0  0  0  0  0
  121.1260  104.5479  106.7900 O   0  0  0  0  0  0  0  0  0  0  0  0
  128.4954  106.9046  107.4308 H   0  0  0  0  0  0  0  0  0  0  0  0
  119.4356  103.3760  106.6486 H   0  0  0  0  0  0  0  0  0  0  0  0
  120.5386  103.3236  105.2383 H   0  0  0  0  0  0  0  0  0  0  0  0
  119.5195  104.7585  105.5258 H   0  0  0  0  0  0  0  0  0  0  0  0
  123.6353  105.0598  107.3674 H   0  0  0  0  0  0  0  0  0  0  0  0
  122.6432  106.4433  107.7228 H   0  0  0  0  0  0  0  0  0  0  0  0
  121.4314  106.1184  105.5139 H   0  0  0  0  0  0  0  0  0  0  0  0
  122.4397  104.6777  105.2205 H   0  0  0  0  0  0  0  0  0  0  0  0
  124.3108  106.3075  105.1610 H   0  0  0  0  0  0  0  0  0  0  0  0
  127.0883  107.9608  109.4095 H   0  0  0  0  0  0  0  0  0  0  0  0
  122.5246  108.0871  105.6312 H   0  0  0  0  0  0  0  0  0  0  0  0
  124.1075  108.8267  105.5983 H   0  0  0  0  0  0  0  0  0  0  0  0
  1  7  2  0  0  0  0
  1  9  1  0  0  0  0
  2  6  1  0  0  0  0
  2  7  1  0  0  0  0
  2  8  2  0  0  0  0
  3 11  1  0  0  0  0
  4  5  1  0  0  0  0
  4  6  1  0  0  0  0
  5 11  1  0  0  0  0
  6 10  1  0  0  0  0
  8  9  1  0  0  0  0
  1 12  1  0  0  0  0
  3 13  1  0  0  0  0
  3 14  1  0  0  0  0
  3 15  1  0  0  0  0
  4 16  1  0  0  0  0
  4 17  1  0  0  0  0
  5 18  1  0  0  0  0
  5 19  1  0  0  0  0
  6 20  1  0  0  0  0
  9 21  1  0  0  0  0
 10 22  1  0  0  0  0
 10 23  1  0  0  0  0
M  END
> <FRED Chemgauss4 score>
-8.333794

$$$$
C05517273	P08195376
  -OEChem-05122015313D

 21 21  0     1  0  0  0  0  0999 V2000
  123.6512  106.6381  108.8681 C   0  0  0  0  0  0  0  0  0  0  0  0
  125.5630  107.6006  107.5666 C   0  0  0  0  0  0  0  0  0  0  0  0
  125.7307  105.4449  108.8283 C   0  0  0  0  0  0  0  0  0  0  0  0
  124.6294  104.5664  108.2574 C   0  0  0  0  0  0  0  0  0  0  0  0
  125.1477  106.8628  108.7984 C   0  0  2  0  0  0  0  0  0  0  0  0
  123.4405  105.2946  108.5865 N   0  0  0  0  0  0  0  0  0  0  0  0
  122.1865  104.7555  108.4388 N   0  0  0  0  0  0  0  0  0  0  0  0
  127.2603  109.0202  106.6912 N   0  0  0  0  0  0  0  0  0  0  0  0
  126.7338  108.3107  107.7509 N   0  0  0  0  0  0  0  0  0  0  0  0
  122.8214  107.5088  109.0841 O   0  0  0  0  0  0  0  0  0  0  0  0
  124.9167  107.5299  106.5237 O   0  0  0  0  0  0  0  0  0  0  0  0
  125.9195  105.1569  109.8705 H   0  0  0  0  0  0  0  0  0  0  0  0
  126.6699  105.3357  108.2769 H   0  0  0  0  0  0  0  0  0  0  0  0
  124.7036  104.4889  107.1675 H   0  0  0  0  0  0  0  0  0  0  0  0
  124.6179  103.5681  108.7044 H   0  0  0  0  0  0  0  0  0  0  0  0
  125.4762  107.4336  109.6739 H   0  0  0  0  0  0  0  0  0  0  0  0
  121.4916  105.2316  109.0417 H   0  0  0  0  0  0  0  0  0  0  0  0
  122.1553  103.7711  108.7588 H   0  0  0  0  0  0  0  0  0  0  0  0
  127.7050  109.8496  107.0822 H   0  0  0  0  0  0  0  0  0  0  0  0
  126.4721  109.3574  106.1401 H   0  0  0  0  0  0  0  0  0  0  0  0
  127.1998  108.3105  108.6528 H   0  0  0  0  0  0  0  0  0  0  0  0
  1  5  1  0  0  0  0
  1  6  1  0  0  0  0
  1 10  2  0  0  0  0
  2  5  1  0  0  0  0
  2  9  1  0  0  0  0
  2 11  2  0  0  0  0
  3  4  1  0  0  0  0
  3  5  1  0  0  0  0
  4  6  1  0  0  0  0
  6  7  1  0  0  0  0
  8  9  1  0  0  0  0
  3 12  1  0  0  0  0
  3 13  1  0  0  0  0
  4 14  1  0  0  0  0
  4 15  1  0  0  0  0
  5 16  1  0  0  0  0
  7 17  1  0  0  0  0
  7 18  1  0  0  0  0
  8 19  1  0  0  0  0
  8 20  1  0  0  0  0
  9 21  1  0  0  0  0
M  END
> <FRED Chemgauss4 score>
-8.330877

$$$$
C12504391	P18375293
  -OEChem-05122015313D

 28 28  0     1  0  0  0  0  0999 V2000
  125.3817  107.9341  106.7635 C   0  0  1  0  0  0  0  0  0  0  0  0
  124.4408  106.7630  106.4687 C   0  0  1  0  0  0  0  0  0  0  0  0
  126.5665  107.4788  107.6152 C   0  0  1  0  0  0  0  0  0  0  0  0
  124.0740  106.0299  107.7665 C   0  0  1  0  0  0  0  0  0  0  0  0
  126.0604  106.7530  108.8613 C   0  0  1  0  0  0  0  0  0  0  0  0
  121.7908  105.0755  107.3120 C   0  0  0  0  0  0  0  0  0  0  0  0
  123.2679  104.7621  107.5002 C   0  0  2  0  0  0  0  0  0  0  0  0
  125.2507  105.6380  108.4812 O   0  0  0  0  0  0  0  0  0  0  0  0
  125.8457  108.4864  105.5343 O   0  0  0  0  0  0  0  0  0  0  0  0
  123.2675  107.2828  105.8476 O   0  0  0  0  0  0  0  0  0  0  0  0
  127.3706  106.5791  106.8457 O   0  0  0  0  0  0  0  0  0  0  0  0
  127.1837  106.3212  109.6233 O   0  0  0  0  0  0  0  0  0  0  0  0
  121.0871  103.8566  107.0977 O   0  0  0  0  0  0  0  0  0  0  0  0
  123.4057  103.8898  108.6189 O   0  0  0  0  0  0  0  0  0  0  0  0
  124.8278  108.7271  107.2813 H   0  0  0  0  0  0  0  0  0  0  0  0
  124.9213  106.0832  105.7540 H   0  0  0  0  0  0  0  0  0  0  0  0
  127.2093  108.3264  107.8771 H   0  0  0  0  0  0  0  0  0  0  0  0
  123.4664  106.6791  108.4108 H   0  0  0  0  0  0  0  0  0  0  0  0
  125.4725  107.4352  109.4881 H   0  0  0  0  0  0  0  0  0  0  0  0
  121.3696  105.5546  108.2020 H   0  0  0  0  0  0  0  0  0  0  0  0
  121.6304  105.7180  106.4406 H   0  0  0  0  0  0  0  0  0  0  0  0
  123.6614  104.2400  106.6230 H   0  0  0  0  0  0  0  0  0  0  0  0
  126.4350  109.2207  105.7665 H   0  0  0  0  0  0  0  0  0  0  0  0
  122.8743  107.9054  106.4785 H   0  0  0  0  0  0  0  0  0  0  0  0
  126.7967  105.8348  106.6135 H   0  0  0  0  0  0  0  0  0  0  0  0
  126.8306  105.8663  110.4039 H   0  0  0  0  0  0  0  0  0  0  0  0
  120.1530  104.0919  106.9821 H   0  0  0  0  0  0  0  0  0  0  0  0
  124.3519  103.6942  108.7016 H   0  0  0  0  0  0  0  0  0  0  0  0
  1  2  1  0  0  0  0
  1  3  1  0  0  0  0
  1  9  1  0  0  0  0
  2  4  1  0  0  0  0
  2 10  1  0  0  0  0
  3  5  1  0  0  0  0
  3 11  1  0  0  0  0
  4  7  1  0  0  0  0
  4  8  1  0  0  0  0
  5  8  1  0  0  0  0
  5 12  1  0  0  0  0
  6  7  1  0  0  0  0
  6 13  1  0  0  0  0
  7 14  1  0  0  0  0
  1 15  1  0  0  0  0
  2 16  1  0  0  0  0
  3 17  1  0  0  0  0
  4 18  1  0  0  0  0
  5 19  1  0  0  0  0
  6 20  1  0  0  0  0
  6 21  1  0  0  0  0
  7 22  1  0  0  0  0
  9 23  1  0  0  0  0
 10 24  1  0  0  0  0
 11 25  1  0  0  0  0
 12 26  1  0  0  0  0
 13 27  1  0  0  0  0
 14 28  1  0  0  0  0
M  END
> <FRED Chemgauss4 score>
-8.328938

$$$$
C70948079	P109520047
  -OEChem-05122015313D

 31 31  0     1  0  0  0  0  0999 V2000
  119.1016  105.2537  106.2148 C   0  0  0  0  0  0  0  0  0  0  0  0
  119.7478  106.3544  106.6345 C   0  0  0  0  0  0  0  0  0  0  0  0
  119.7036  103.9266  106.4774 C   0  0  0  0  0  0  0  0  0  0  0  0
  121.4768  105.1802  107.5336 C   0  0  0  0  0  0  0  0  0  0  0  0
  118.2872  108.1280  107.5436 C   0  0  0  0  0  0  0  0  0  0  0  0
  124.5618  108.5229  108.1523 C   0  0  0  0  0  0  0  0  0  0  0  0
  119.1752  107.7205  106.3902 C   0  0  0  0  0  0  0  0  0  0  0  0
  124.0074  107.2049  107.6344 C   0  0  0  0  0  0  0  0  0  0  0  0
  123.2867  106.4285  108.7391 C   0  0  0  0  0  0  0  0  0  0  0  0
  122.7822  105.0725  108.2536 C   0  0  1  0  0  0  0  0  0  0  0  0
  120.9521  106.3434  107.3040 N   0  0  0  0  0  0  0  0  0  0  0  0
  120.9066  103.9850  107.1508 N   0  0  0  0  0  0  0  0  0  0  0  0
  122.4946  104.1901  109.3521 N   0  0  0  0  0  0  0  0  0  0  0  0
  119.1508  102.8945  106.1128 O   0  0  0  0  0  0  0  0  0  0  0  0
  118.1546  105.2904  105.6897 H   0  0  0  0  0  0  0  0  0  0  0  0
  117.4605  107.4190  107.6513 H   0  0  0  0  0  0  0  0  0  0  0  0
  117.8660  109.1265  107.3849 H   0  0  0  0  0  0  0  0  0  0  0  0
  118.8453  108.1497  108.4855 H   0  0  0  0  0  0  0  0  0  0  0  0
  125.2545  108.3578  108.9837 H   0  0  0  0  0  0  0  0  0  0  0  0
  123.7564  109.1776  108.5002 H   0  0  0  0  0  0  0  0  0  0  0  0
  125.1040  109.0444  107.3572 H   0  0  0  0  0  0  0  0  0  0  0  0
  120.0052  108.4184  106.2698 H   0  0  0  0  0  0  0  0  0  0  0  0
  118.6089  107.6808  105.4584 H   0  0  0  0  0  0  0  0  0  0  0  0
  123.3203  107.4094  106.8054 H   0  0  0  0  0  0  0  0  0  0  0  0
  124.8306  106.6025  107.2331 H   0  0  0  0  0  0  0  0  0  0  0  0
  122.4526  107.0299  109.1242 H   0  0  0  0  0  0  0  0  0  0  0  0
  123.9758  106.2780  109.5804 H   0  0  0  0  0  0  0  0  0  0  0  0
  123.5126  104.5739  107.6094 H   0  0  0  0  0  0  0  0  0  0  0  0
  121.3881  103.1183  107.3719 H   0  0  0  0  0  0  0  0  0  0  0  0
  123.1123  104.1790  110.1481 H   0  0  0  0  0  0  0  0  0  0  0  0
  121.8112  103.4598  109.2296 H   0  0  0  0  0  0  0  0  0  0  0  0
  1  2  2  0  0  0  0
  1  3  1  0  0  0  0
  2  7  1  0  0  0  0
  2 11  1  0  0  0  0
  3 12  1  0  0  0  0
  3 14  2  0  0  0  0
  4 10  1  0  0  0  0
  4 11  2  0  0  0  0
  4 12  1  0  0  0  0
  5  7  1  0  0  0  0
  6  8  1  0  0  0  0
  8  9  1  0  0  0  0
  9 10  1  0  0  0  0
 10 13  1  0  0  0  0
  1 15  1  0  0  0  0
  5 16  1  0  0  0  0
  5 17  1  0  0  0  0
  5 18  1  0  0  0  0
  6 19  1  0  0  0  0
  6 20  1  0  0  0  0
  6 21  1  0  0  0  0
  7 22  1  0  0  0  0
  7 23  1  0  0  0  0
  8 24  1  0  0  0  0
  8 25  1  0  0  0  0
  9 26  1  0  0  0  0
  9 27  1  0  0  0  0
 10 28  1  0  0  0  0
 12 29  1  0  0  0  0
 13 30  1  0  0  0  0
 13 31  1  0  0  0  0
M  END
> <FRED Chemgauss4 score>
-8.325191

$$$$
C01532566	P57081967
  -OEChem-05122015313D

 22 22  0     1  0  0  0  0  0999 V2000
  124.2206  106.2606  106.4959 C   0  0  0  0  0  0  0  0  0  0  0  0
  125.1802  107.4240  106.3857 C   0  0  2  0  0  0  0  0  0  0  0  0
  125.9592  107.6991  107.6579 C   0  0  1  0  0  0  0  0  0  0  0  0
  126.5871  106.4116  108.1693 C   0  0  2  0  0  0  0  0  0  0  0  0
  125.4949  105.3656  108.3655 C   0  0  2  0  0  0  0  0  0  0  0  0
  126.0645  103.9946  108.7191 C   0  0  0  0  0  0  0  0  0  0  0  0
  123.1477  106.2294  105.8997 O   0  0  0  0  0  0  0  0  0  0  0  0
  124.6781  105.1881  107.1880 O   0  0  0  0  0  0  0  0  0  0  0  0
  124.4376  108.5882  106.0497 O   0  0  0  0  0  0  0  0  0  0  0  0
  127.0098  108.6232  107.3666 O   0  0  0  0  0  0  0  0  0  0  0  0
  127.2335  106.6873  109.4090 O   0  0  0  0  0  0  0  0  0  0  0  0
  126.8090  104.1119  109.9175 O   0  0  0  0  0  0  0  0  0  0  0  0
  125.8647  107.2218  105.5533 H   0  0  0  0  0  0  0  0  0  0  0  0
  125.3288  108.1662  108.4242 H   0  0  0  0  0  0  0  0  0  0  0  0
  127.3501  106.0679  107.4600 H   0  0  0  0  0  0  0  0  0  0  0  0
  124.8271  105.6651  109.1841 H   0  0  0  0  0  0  0  0  0  0  0  0
  126.7194  103.6471  107.9202 H   0  0  0  0  0  0  0  0  0  0  0  0
  125.2534  103.2818  108.8667 H   0  0  0  0  0  0  0  0  0  0  0  0
  124.0032  108.4078  105.2003 H   0  0  0  0  0  0  0  0  0  0  0  0
  127.5676  108.1995  106.6975 H   0  0  0  0  0  0  0  0  0  0  0  0
  126.5470  107.0102  110.0132 H   0  0  0  0  0  0  0  0  0  0  0  0
  127.1612  103.2289  110.1226 H   0  0  0  0  0  0  0  0  0  0  0  0
  1  2  1  0  0  0  0
  1  7  2  0  0  0  0
  1  8  1  0  0  0  0
  2  3  1  0  0  0  0
  2  9  1  0  0  0  0
  3  4  1  0  0  0  0
  3 10  1  0  0  0  0
  4  5  1  0  0  0  0
  4 11  1  0  0  0  0
  5  6  1  0  0  0  0
  5  8  1  0  0  0  0
  6 12  1  0  0  0  0
  2 13  1  0  0  0  0
  3 14  1  0  0  0  0
  4 15  1  0  0  0  0
  5 16  1  0  0  0  0
  6 17  1  0  0  0  0
  6 18  1  0  0  0  0
  9 19  1  0  0  0  0
 10 20  1  0  0  0  0
 11 21  1  0  0  0  0
 12 22  1  0  0  0  0
M  END
> <FRED Chemgauss4 score>
-8.324124

$$$$
C87339114	P136639590
  -OEChem-05122015313D

 24 24  0     0  0  0  0  0  0999 V2000
  125.4018  108.6337  107.6022 C   0  0  0  0  0  0  0  0  0  0  0  0
  123.7174  109.7758  110.4579 C   0  0  0  0  0  0  0  0  0  0  0  0
  123.2471  108.4838  110.4573 C   0  0  0  0  0  0  0  0  0  0  0  0
  124.6188  108.8431  108.7702 C   0  0  0  0  0  0  0  0  0  0  0  0
  122.7152  106.3904  107.7548 C   0  0  0  0  0  0  0  0  0  0  0  0
  123.6406  106.5154  108.9461 C   0  0  0  0  0  0  0  0  0  0  0  0
  120.3020  106.1191  107.2164 C   0  0  0  0  0  0  0  0  0  0  0  0
  120.0696  104.6485  106.9212 C   0  0  0  0  0  0  0  0  0  0  0  0
  126.0410  108.4629  106.6488 N   0  0  0  0  0  0  0  0  0  0  0  0
  124.5705  109.9932  109.4050 N   0  0  0  0  0  0  0  0  0  0  0  0
  123.8329  107.8988  109.3702 N   0  0  0  0  0  0  0  0  0  0  0  0
  121.3928  106.2588  108.1532 N   0  0  0  0  0  0  0  0  0  0  0  0
  123.1052  106.4034  106.5904 O   0  0  0  0  0  0  0  0  0  0  0  0
  121.2376  104.0956  106.3280 O   0  0  0  0  0  0  0  0  0  0  0  0
  123.4850  110.5606  111.1628 H   0  0  0  0  0  0  0  0  0  0  0  0
  122.5717  107.9511  111.1121 H   0  0  0  0  0  0  0  0  0  0  0  0
  124.6221  106.0955  108.6986 H   0  0  0  0  0  0  0  0  0  0  0  0
  123.2328  105.9540  109.7944 H   0  0  0  0  0  0  0  0  0  0  0  0
  120.5586  106.6707  106.3064 H   0  0  0  0  0  0  0  0  0  0  0  0
  119.4083  106.5634  107.6647 H   0  0  0  0  0  0  0  0  0  0  0  0
  119.2441  104.5346  106.2117 H   0  0  0  0  0  0  0  0  0  0  0  0
  119.8376  104.0869  107.8320 H   0  0  0  0  0  0  0  0  0  0  0  0
  121.1729  106.2242  109.1442 H   0  0  0  0  0  0  0  0  0  0  0  0
  121.0474  103.1593  106.1563 H   0  0  0  0  0  0  0  0  0  0  0  0
  1  4  1  0  0  0  0
  1  9  3  0  0  0  0
  2  3  2  0  0  0  0
  2 10  1  0  0  0  0
  3 11  1  0  0  0  0
  4 10  2  0  0  0  0
  4 11  1  0  0  0  0
  5  6  1  0  0  0  0
  5 12  1  0  0  0  0
  5 13  2  0  0  0  0
  6 11  1  0  0  0  0
  7  8  1  0  0  0  0
  7 12  1  0  0  0  0
  8 14  1  0  0  0  0
  2 15  1  0  0  0  0
  3 16  1  0  0  0  0
  6 17  1  0  0  0  0
  6 18  1  0  0  0  0
  7 19  1  0  0  0  0
  7 20  1  0  0  0  0
  8 21  1  0  0  0  0
  8 22  1  0  0  0  0
 12 23  1  0  0  0  0
 14 24  1  0  0  0  0
M  END
> <FRED Chemgauss4 score>
-8.323183

$$$$
C82510254	P128945651
  -OEChem-05122015313D

 27 28  0     1  0  0  0  0  0999 V2000
  125.4945  108.0179  108.1103 C   0  0  0  0  0  0  0  0  0  0  0  0
  124.3356  109.0247  109.5246 C   0  0  0  0  0  0  0  0  0  0  0  0
  125.5622  104.7026  108.0846 C   0  0  0  0  0  0  0  0  0  0  0  0
  126.6185  105.7516  108.3370 C   0  0  0  0  0  0  0  0  0  0  0  0
  125.2326  104.9276  106.6270 C   0  0  0  0  0  0  0  0  0  0  0  0
  126.2187  106.8913  107.4073 C   0  0  1  0  0  0  0  0  0  0  0  0
  124.1447  110.5272  111.5534 C   0  0  0  0  0  0  0  0  0  0  0  0
  123.4976  109.4492  110.6575 C   0  0  1  0  0  0  0  0  0  0  0  0
  124.7901  107.8211  109.2634 N   0  0  0  0  0  0  0  0  0  0  0  0
  125.5046  109.2675  107.6416 N   0  0  0  0  0  0  0  0  0  0  0  0
  124.7563  109.8912  108.5643 N   0  0  0  0  0  0  0  0  0  0  0  0
  122.1853  109.9434  110.2487 N   0  0  0  0  0  0  0  0  0  0  0  0
  125.3475  106.3388  106.4024 O   0  0  0  0  0  0  0  0  0  0  0  0
  125.9940  103.7033  108.2213 H   0  0  0  0  0  0  0  0  0  0  0  0
  124.6909  104.7909  108.7402 H   0  0  0  0  0  0  0  0  0  0  0  0
  126.5788  106.0666  109.3942 H   0  0  0  0  0  0  0  0  0  0  0  0
  127.6417  105.3901  108.1494 H   0  0  0  0  0  0  0  0  0  0  0  0
  125.9061  104.3907  105.9550 H   0  0  0  0  0  0  0  0  0  0  0  0
  124.2020  104.6357  106.4039 H   0  0  0  0  0  0  0  0  0  0  0  0
  127.0795  107.3061  106.8959 H   0  0  0  0  0  0  0  0  0  0  0  0
  124.4048  111.4097  110.9585 H   0  0  0  0  0  0  0  0  0  0  0  0
  123.4741  110.8466  112.3590 H   0  0  0  0  0  0  0  0  0  0  0  0
  125.0612  110.1561  112.0258 H   0  0  0  0  0  0  0  0  0  0  0  0
  123.2641  108.5933  111.3268 H   0  0  0  0  0  0  0  0  0  0  0  0
  124.5821  110.8850  108.4712 H   0  0  0  0  0  0  0  0  0  0  0  0
  121.7084  110.5690  110.8609 H   0  0  0  0  0  0  0  0  0  0  0  0
  121.7298  109.4890  109.4873 H   0  0  0  0  0  0  0  0  0  0  0  0
  1  6  1  0  0  0  0
  1  9  1  0  0  0  0
  1 10  2  0  0  0  0
  2  8  1  0  0  0  0
  2  9  2  0  0  0  0
  2 11  1  0  0  0  0
  3  4  1  0  0  0  0
  3  5  1  0  0  0  0
  4  6  1  0  0  0  0
  5 13  1  0  0  0  0
  6 13  1  0  0  0  0
  7  8  1  0  0  0  0
  8 12  1  0  0  0  0
 10 11  1  0  0  0  0
  3 14  1  0  0  0  0
  3 15  1  0  0  0  0
  4 16  1  0  0  0  0
  4 17  1  0  0  0  0
  5 18  1  0  0  0  0
  5 19  1  0  0  0  0
  6 20  1  0  0  0  0
  7 21  1  0  0  0  0
  7 22  1  0  0  0  0
  7 23  1  0  0  0  0
  8 24  1  0  0  0  0
 11 25  1  0  0  0  0
 12 26  1  0  0  0  0
 12 27  1  0  0  0  0
M  END
> <FRED Chemgauss4 score>
-8.322738

$$$$
C83693351	P130916066
  -OEChem-05122015313D

 31 31  0     1  0  0  0  0  0999 V2000
  124.4557  104.4245  106.8986 C   0  0  0  0  0  0  0  0  0  0  0  0
  125.1651  104.7110  108.2182 C   0  0  0  0  0  0  0  0  0  0  0  0
  124.8077  106.8376  106.6397 C   0  0  0  0  0  0  0  0  0  0  0  0
  123.7828  105.7228  106.4507 C   0  0  2  0  0  0  0  0  0  0  0  0
  120.7496  104.5829  104.5866 C   0  0  0  0  0  0  0  0  0  0  0  0
  119.1573  103.7747  106.3617 C   0  0  0  0  0  0  0  0  0  0  0  0
  120.2536  104.7809  106.0171 C   0  0  0  0  0  0  0  0  0  0  0  0
  121.3777  104.6534  106.9620 N   0  0  0  0  0  0  0  0  0  0  0  0
  127.1672  106.3454  107.7064 O   0  0  0  0  0  0  0  0  0  0  0  0
  125.2938  107.1444  109.2170 O   0  0  0  0  0  0  0  0  0  0  0  0
  122.6131  106.0290  108.7720 O   0  0  0  0  0  0  0  0  0  0  0  0
  121.6523  107.1972  106.7550 O   0  0  0  0  0  0  0  0  0  0  0  0
  121.3684  105.7811  104.1313 O   0  0  0  0  0  0  0  0  0  0  0  0
  118.0618  103.9461  105.4695 O   0  0  0  0  0  0  0  0  0  0  0  0
  125.7683  106.3850  108.0790 S   0  0  0  0  0  0  0  0  0  0  0  0
  122.2938  106.0408  107.3556 S   0  0  0  0  0  0  0  0  0  0  0  0
  125.2001  104.1309  106.1479 H   0  0  0  0  0  0  0  0  0  0  0  0
  123.7483  103.5959  107.0045 H   0  0  0  0  0  0  0  0  0  0  0  0
  124.4711  104.6693  109.0620 H   0  0  0  0  0  0  0  0  0  0  0  0
  126.0018  104.0318  108.3955 H   0  0  0  0  0  0  0  0  0  0  0  0
  125.4993  106.8697  105.7920 H   0  0  0  0  0  0  0  0  0  0  0  0
  124.3657  107.8246  106.7943 H   0  0  0  0  0  0  0  0  0  0  0  0
  123.4697  105.6607  105.4032 H   0  0  0  0  0  0  0  0  0  0  0  0
  119.9148  104.3625  103.9131 H   0  0  0  0  0  0  0  0  0  0  0  0
  121.4802  103.7690  104.5243 H   0  0  0  0  0  0  0  0  0  0  0  0
  118.7953  103.9095  107.3868 H   0  0  0  0  0  0  0  0  0  0  0  0
  119.5226  102.7490  106.2472 H   0  0  0  0  0  0  0  0  0  0  0  0
  119.8801  105.8031  106.1501 H   0  0  0  0  0  0  0  0  0  0  0  0
  121.2124  103.9766  107.7183 H   0  0  0  0  0  0  0  0  0  0  0  0
  121.6672  105.6123  103.2237 H   0  0  0  0  0  0  0  0  0  0  0  0
  117.3920  103.2912  105.7223 H   0  0  0  0  0  0  0  0  0  0  0  0
  1  2  1  0  0  0  0
  1  4  1  0  0  0  0
  2 15  1  0  0  0  0
  3  4  1  0  0  0  0
  3 15  1  0  0  0  0
  4 16  1  0  0  0  0
  5  7  1  0  0  0  0
  5 13  1  0  0  0  0
  6  7  1  0  0  0  0
  6 14  1  0  0  0  0
  7  8  1  0  0  0  0
  8 16  1  0  0  0  0
  9 15  2  0  0  0  0
 10 15  2  0  0  0  0
 11 16  2  0  0  0  0
 12 16  2  0  0  0  0
  1 17  1  0  0  0  0
  1 18  1  0  0  0  0
  2 19  1  0  0  0  0
  2 20  1  0  0  0  0
  3 21  1  0  0  0  0
  3 22  1  0  0  0  0
  4 23  1  0  0  0  0
  5 24  1  0  0  0  0
  5 25  1  0  0  0  0
  6 26  1  0  0  0  0
  6 27  1  0  0  0  0
  7 28  1  0  0  0  0
  8 29  1  0  0  0  0
 13 30  1  0  0  0  0
 14 31  1  0  0  0  0
M  END
> <FRED Chemgauss4 score>
-8.317771

$$$$
C54498092	P82014584
  -OEChem-05122015313D

 32 32  0     1  0  0  0  0  0999 V2000
  123.4703  106.3298  105.6820 C   0  0  0  0  0  0  0  0  0  0  0  0
  124.6850  107.4253  107.1081 C   0  0  0  0  0  0  0  0  0  0  0  0
  124.6685  103.8683  107.1964 C   0  0  0  0  0  0  0  0  0  0  0  0
  122.5708  104.8030  108.2603 C   0  0  0  0  0  0  0  0  0  0  0  0
  123.9005  109.1507  112.2108 C   0  0  0  0  0  0  0  0  0  0  0  0
  124.6187  107.7151  109.6441 C   0  0  0  0  0  0  0  0  0  0  0  0
  123.8159  108.9925  109.8676 C   0  0  0  0  0  0  0  0  0  0  0  0
  125.4680  107.7483  108.3634 C   0  0  2  0  0  0  0  0  0  0  0  0
  123.9987  105.1039  107.8009 C   0  0  0  0  0  0  0  0  0  0  0  0
  123.7312  107.5058  105.1571 N   0  0  0  0  0  0  0  0  0  0  0  0
  124.5040  108.2027  106.0644 N   0  0  0  0  0  0  0  0  0  0  0  0
  124.0515  106.2361  106.9102 N   0  0  0  0  0  0  0  0  0  0  0  0
  126.1242  109.0312  108.2294 N   0  0  0  0  0  0  0  0  0  0  0  0
  123.0862  108.8665  111.0814 O   0  0  0  0  0  0  0  0  0  0  0  0
  122.8879  105.5383  105.2326 H   0  0  0  0  0  0  0  0  0  0  0  0
  124.1519  103.5235  106.2943 H   0  0  0  0  0  0  0  0  0  0  0  0
  124.6709  103.0419  107.9151 H   0  0  0  0  0  0  0  0  0  0  0  0
  125.7083  104.0817  106.9245 H   0  0  0  0  0  0  0  0  0  0  0  0
  121.9394  104.5182  107.4114 H   0  0  0  0  0  0  0  0  0  0  0  0
  122.1245  105.6854  108.7312 H   0  0  0  0  0  0  0  0  0  0  0  0
  122.5393  103.9854  108.9883 H   0  0  0  0  0  0  0  0  0  0  0  0
  123.3089  109.0444  113.1234 H   0  0  0  0  0  0  0  0  0  0  0  0
  124.2904  110.1687  112.1331 H   0  0  0  0  0  0  0  0  0  0  0  0
  124.7336  108.4443  112.2351 H   0  0  0  0  0  0  0  0  0  0  0  0
  123.9197  106.8686  109.5963 H   0  0  0  0  0  0  0  0  0  0  0  0
  125.2383  107.5146  110.5283 H   0  0  0  0  0  0  0  0  0  0  0  0
  124.4693  109.8660  109.9516 H   0  0  0  0  0  0  0  0  0  0  0  0
  123.1052  109.1541  109.0509 H   0  0  0  0  0  0  0  0  0  0  0  0
  126.2851  107.0251  108.4792 H   0  0  0  0  0  0  0  0  0  0  0  0
  124.5747  105.3808  108.6934 H   0  0  0  0  0  0  0  0  0  0  0  0
  126.4638  109.3072  107.3267 H   0  0  0  0  0  0  0  0  0  0  0  0
  126.4048  109.5182  109.0604 H   0  0  0  0  0  0  0  0  0  0  0  0
  1 10  2  0  0  0  0
  1 12  1  0  0  0  0
  2  8  1  0  0  0  0
  2 11  2  0  0  0  0
  2 12  1  0  0  0  0
  3  9  1  0  0  0  0
  4  9  1  0  0  0  0
  5 14  1  0  0  0  0
  6  7  1  0  0  0  0
  6  8  1  0  0  0  0
  7 14  1  0  0  0  0
  8 13  1  0  0  0  0
  9 12  1  0  0  0  0
 10 11  1  0  0  0  0
  1 15  1  0  0  0  0
  3 16  1  0  0  0  0
  3 17  1  0  0  0  0
  3 18  1  0  0  0  0
  4 19  1  0  0  0  0
  4 20  1  0  0  0  0
  4 21  1  0  0  0  0
  5 22  1  0  0  0  0
  5 23  1  0  0  0  0
  5 24  1  0  0  0  0
  6 25  1  0  0  0  0
  6 26  1  0  0  0  0
  7 27  1  0  0  0  0
  7 28  1  0  0  0  0
  8 29  1  0  0  0  0
  9 30  1  0  0  0  0
 13 31  1  0  0  0  0
 13 32  1  0  0  0  0
M  END
> <FRED Chemgauss4 score>
-8.317430

$$$$
C70628574	P108955020
  -OEChem-05122015313D

 29 30  0     1  0  0  0  0  0999 V2000
  120.1032  104.1866  106.6012 C   0  0  0  0  0  0  0  0  0  0  0  0
  123.9618  107.7965  106.7572 C   0  0  0  0  0  0  0  0  0  0  0  0
  120.0095  105.6260  106.1581 C   0  0  0  0  0  0  0  0  0  0  0  0
  120.8218  106.3661  107.2178 C   0  0  0  0  0  0  0  0  0  0  0  0
  125.7527  107.5921  108.3288 C   0  0  0  0  0  0  0  0  0  0  0  0
  124.8456  106.3789  108.4314 C   0  0  0  0  0  0  0  0  0  0  0  0
  124.9169  108.6244  107.5804 C   0  0  2  0  0  0  0  0  0  0  0  0
  121.8627  105.3482  107.6676 C   0  0  2  0  0  0  0  0  0  0  0  0
  123.1418  105.4120  106.8435 C   0  0  0  0  0  0  0  0  0  0  0  0
  121.1803  104.0923  107.4760 N   0  0  0  0  0  0  0  0  0  0  0  0
  123.9879  106.5030  107.2763 N   0  0  0  0  0  0  0  0  0  0  0  0
  124.0977  109.4254  108.5064 N   0  0  0  0  0  0  0  0  0  0  0  0
  119.3779  103.2809  106.2199 O   0  0  0  0  0  0  0  0  0  0  0  0
  123.2744  108.2269  105.8424 O   0  0  0  0  0  0  0  0  0  0  0  0
  120.4582  105.7223  105.1648 H   0  0  0  0  0  0  0  0  0  0  0  0
  118.9699  105.9616  106.1352 H   0  0  0  0  0  0  0  0  0  0  0  0
  121.2495  107.3022  106.8467 H   0  0  0  0  0  0  0  0  0  0  0  0
  120.1639  106.6129  108.0613 H   0  0  0  0  0  0  0  0  0  0  0  0
  126.1208  107.9290  109.3030 H   0  0  0  0  0  0  0  0  0  0  0  0
  126.6307  107.3374  107.7209 H   0  0  0  0  0  0  0  0  0  0  0  0
  125.4059  105.4404  108.3968 H   0  0  0  0  0  0  0  0  0  0  0  0
  124.2218  106.4089  109.3306 H   0  0  0  0  0  0  0  0  0  0  0  0
  125.5314  109.2641  106.9516 H   0  0  0  0  0  0  0  0  0  0  0  0
  122.1089  105.4637  108.7251 H   0  0  0  0  0  0  0  0  0  0  0  0
  122.9091  105.5692  105.7860 H   0  0  0  0  0  0  0  0  0  0  0  0
  123.7149  104.4856  106.9443 H   0  0  0  0  0  0  0  0  0  0  0  0
  121.4574  103.2289  107.9323 H   0  0  0  0  0  0  0  0  0  0  0  0
  123.2351  109.8000  108.1709 H   0  0  0  0  0  0  0  0  0  0  0  0
  124.5157  109.7368  109.3582 H   0  0  0  0  0  0  0  0  0  0  0  0
  1  3  1  0  0  0  0
  1 10  1  0  0  0  0
  1 13  2  0  0  0  0
  2  7  1  0  0  0  0
  2 11  1  0  0  0  0
  2 14  2  0  0  0  0
  3  4  1  0  0  0  0
  4  8  1  0  0  0  0
  5  6  1  0  0  0  0
  5  7  1  0  0  0  0
  6 11  1  0  0  0  0
  7 12  1  0  0  0  0
  8  9  1  0  0  0  0
  8 10  1  0  0  0  0
  9 11  1  0  0  0  0
  3 15  1  0  0  0  0
  3 16  1  0  0  0  0
  4 17  1  0  0  0  0
  4 18  1  0  0  0  0
  5 19  1  0  0  0  0
  5 20  1  0  0  0  0
  6 21  1  0  0  0  0
  6 22  1  0  0  0  0
  7 23  1  0  0  0  0
  8 24  1  0  0  0  0
  9 25  1  0  0  0  0
  9 26  1  0  0  0  0
 10 27  1  0  0  0  0
 12 28  1  0  0  0  0
 12 29  1  0  0  0  0
M  END
> <FRED Chemgauss4 score>
-8.317254

$$$$
C65742667	P101141789
  -OEChem-05122015313D

 27 27  0     1  0  0  0  0  0999 V2000
  125.4737  107.5989  106.1736 C   0  0  2  0  0  0  0  0  0  0  0  0
  124.5338  106.4183  105.9290 C   0  0  1  0  0  0  0  0  0  0  0  0
  124.9985  108.4051  107.3832 C   0  0  1  0  0  0  0  0  0  0  0  0
  124.3358  105.5738  107.1902 C   0  0  1  0  0  0  0  0  0  0  0  0
  124.8483  107.4966  108.6176 C   0  0  1  0  0  0  0  0  0  0  0  0
  125.5148  104.6503  107.4841 C   0  0  0  0  0  0  0  0  0  0  0  0
  124.1933  108.2665  109.7687 C   0  0  0  0  0  0  0  0  0  0  0  0
  123.9947  106.3822  108.3251 O   0  0  0  0  0  0  0  0  0  0  0  0
  125.4883  108.4177  105.0064 O   0  0  0  0  0  0  0  0  0  0  0  0
  123.2432  106.9111  105.5476 O   0  0  0  0  0  0  0  0  0  0  0  0
  125.9281  109.4478  107.6687 O   0  0  0  0  0  0  0  0  0  0  0  0
  126.1438  107.0775  109.0526 O   0  0  0  0  0  0  0  0  0  0  0  0
  126.7137  105.3460  107.1969 O   0  0  0  0  0  0  0  0  0  0  0  0
  123.2300  109.0578  109.2447 F   0  0  0  0  0  0  0  0  0  0  0  0
  126.5000  107.2472  106.3239 H   0  0  0  0  0  0  0  0  0  0  0  0
  124.8931  105.8084  105.0927 H   0  0  0  0  0  0  0  0  0  0  0  0
  124.0382  108.8827  107.1428 H   0  0  0  0  0  0  0  0  0  0  0  0
  123.4611  104.9280  107.0421 H   0  0  0  0  0  0  0  0  0  0  0  0
  125.4547  103.7608  106.8574 H   0  0  0  0  0  0  0  0  0  0  0  0
  125.5077  104.3619  108.5350 H   0  0  0  0  0  0  0  0  0  0  0  0
  124.9287  108.8874  110.2707 H   0  0  0  0  0  0  0  0  0  0  0  0
  123.7403  107.5745  110.4720 H   0  0  0  0  0  0  0  0  0  0  0  0
  125.8062  107.8579  104.2817 H   0  0  0  0  0  0  0  0  0  0  0  0
  122.6896  106.1306  105.4053 H   0  0  0  0  0  0  0  0  0  0  0  0
  125.9662  110.0067  106.8775 H   0  0  0  0  0  0  0  0  0  0  0  0
  126.0014  106.5118  109.8259 H   0  0  0  0  0  0  0  0  0  0  0  0
  127.4492  104.7400  107.3910 H   0  0  0  0  0  0  0  0  0  0  0  0
  1  2  1  0  0  0  0
  1  3  1  0  0  0  0
  1  9  1  0  0  0  0
  2  4  1  0  0  0  0
  2 10  1  0  0  0  0
  3  5  1  0  0  0  0
  3 11  1  0  0  0  0
  4  6  1  0  0  0  0
  4  8  1  0  0  0  0
  5  7  1  0  0  0  0
  5  8  1  0  0  0  0
  5 12  1  0  0  0  0
  6 13  1  0  0  0  0
  7 14  1  0  0  0  0
  1 15  1  0  0  0  0
  2 16  1  0  0  0  0
  3 17  1  0  0  0  0
  4 18  1  0  0  0  0
  6 19  1  0  0  0  0
  6 20  1  0  0  0  0
  7 21  1  0  0  0  0
  7 22  1  0  0  0  0
  9 23  1  0  0  0  0
 10 24  1  0  0  0  0
 11 25  1  0  0  0  0
 12 26  1  0  0  0  0
 13 27  1  0  0  0  0
M  END
> <FRED Chemgauss4 score>
-8.310030

$$$$
C38034588	P120930303
  -OEChem-05122015313D

 25 26  0     1  0  0  0  0  0999 V2000
  119.0910  104.1664  105.5839 C   0  0  0  0  0  0  0  0  0  0  0  0
  121.0358  104.6860  106.0607 C   0  0  0  0  0  0  0  0  0  0  0  0
  125.5008  106.2384  107.0387 C   0  0  0  0  0  0  0  0  0  0  0  0
  125.0459  104.1054  107.3403 C   0  0  0  0  0  0  0  0  0  0  0  0
  124.5429  106.2344  108.2224 C   0  0  0  0  0  0  0  0  0  0  0  0
  124.1309  104.7803  108.3170 C   0  0  1  0  0  0  0  0  0  0  0  0
  117.8971  103.3488  105.3418 C   0  0  0  0  0  0  0  0  0  0  0  0
  122.4833  104.7962  106.4399 C   0  0  0  0  0  0  0  0  0  0  0  0
  120.2822  103.6200  105.9641 N   0  0  0  0  0  0  0  0  0  0  0  0
  119.0796  105.4954  105.4447 N   0  0  0  0  0  0  0  0  0  0  0  0
  125.7568  105.0338  106.6158 N   0  0  0  0  0  0  0  0  0  0  0  0
  122.7197  104.6140  107.8990 N   0  3  0  0  0  0  0  0  0  0  0  0
  125.9415  107.3258  106.6202 O   0  5  0  0  0  0  0  0  0  0  0  0
  125.1015  102.8908  107.1924 O   0  0  0  0  0  0  0  0  0  0  0  0
  120.3959  105.8483  105.7674 O   0  0  0  0  0  0  0  0  0  0  0  0
  125.0894  106.5425  109.1220 H   0  0  0  0  0  0  0  0  0  0  0  0
  123.7062  106.9241  108.0657 H   0  0  0  0  0  0  0  0  0  0  0  0
  124.2352  104.3718  109.3254 H   0  0  0  0  0  0  0  0  0  0  0  0
  117.2975  103.2230  106.2621 H   0  0  0  0  0  0  0  0  0  0  0  0
  117.2316  103.7892  104.5749 H   0  0  0  0  0  0  0  0  0  0  0  0
  118.1464  102.3357  104.9722 H   0  0  0  0  0  0  0  0  0  0  0  0
  123.0857  104.0390  105.9267 H   0  0  0  0  0  0  0  0  0  0  0  0
  122.8875  105.7794  106.1761 H   0  0  0  0  0  0  0  0  0  0  0  0
  122.3883  103.6774  108.1754 H   0  0  0  0  0  0  0  0  0  0  0  0
  122.1277  105.2800  108.4179 H   0  0  0  0  0  0  0  0  0  0  0  0
  1  7  1  0  0  0  0
  1  9  1  0  0  0  0
  1 10  2  0  0  0  0
  2  8  1  0  0  0  0
  2  9  2  0  0  0  0
  2 15  1  0  0  0  0
  3  5  1  0  0  0  0
  3 11  2  0  0  0  0
  3 13  1  0  0  0  0
  4  6  1  0  0  0  0
  4 11  1  0  0  0  0
  4 14  2  0  0  0  0
  5  6  1  0  0  0  0
  6 12  1  0  0  0  0
  8 12  1  0  0  0  0
 10 15  1  0  0  0  0
  5 16  1  0  0  0  0
  5 17  1  0  0  0  0
  6 18  1  0  0  0  0
  7 19  1  0  0  0  0
  7 20  1  0  0  0  0
  7 21  1  0  0  0  0
  8 22  1  0  0  0  0
  8 23  1  0  0  0  0
 12 24  1  0  0  0  0
 12 25  1  0  0  0  0
M  CHG  2  12   1  13  -1
M  END
> <FRED Chemgauss4 score>
-8.309810

$$$$
C36904451	P54858491
  -OEChem-05122015313D

 25 25  0     0  0  0  0  0  0999 V2000
  125.0353  107.6394  106.4761 C   0  0  0  0  0  0  0  0  0  0  0  0
  126.2516  107.7547  107.3173 C   0  0  0  0  0  0  0  0  0  0  0  0
  121.9031  106.2531  106.5568 C   0  0  0  0  0  0  0  0  0  0  0  0
  121.6215  104.9399  107.2865 C   0  0  0  0  0  0  0  0  0  0  0  0
  123.1714  106.2317  105.7091 C   0  0  0  0  0  0  0  0  0  0  0  0
  123.8973  104.1308  107.5682 C   0  0  0  0  0  0  0  0  0  0  0  0
  124.8502  105.3053  107.3571 C   0  0  0  0  0  0  0  0  0  0  0  0
  122.6578  104.5300  108.2349 N   0  0  0  0  0  0  0  0  0  0  0  0
  124.3716  106.4137  106.5245 N   0  0  0  0  0  0  0  0  0  0  0  0
  125.9831  108.2235  108.5741 N   0  0  0  0  0  0  0  0  0  0  0  0
  124.7489  108.6331  105.8213 O   0  0  0  0  0  0  0  0  0  0  0  0
  127.3485  107.4488  106.8808 O   0  0  0  0  0  0  0  0  0  0  0  0
  121.0500  106.4528  105.8964 H   0  0  0  0  0  0  0  0  0  0  0  0
  121.9427  107.0794  107.2778 H   0  0  0  0  0  0  0  0  0  0  0  0
  120.6874  105.0563  107.8487 H   0  0  0  0  0  0  0  0  0  0  0  0
  121.4341  104.1369  106.5629 H   0  0  0  0  0  0  0  0  0  0  0  0
  123.2677  105.3085  105.1275 H   0  0  0  0  0  0  0  0  0  0  0  0
  123.1105  107.0505  104.9830 H   0  0  0  0  0  0  0  0  0  0  0  0
  123.7022  103.5940  106.6323 H   0  0  0  0  0  0  0  0  0  0  0  0
  124.4010  103.4093  108.2224 H   0  0  0  0  0  0  0  0  0  0  0  0
  125.1468  105.7126  108.3317 H   0  0  0  0  0  0  0  0  0  0  0  0
  125.7669  104.9335  106.8829 H   0  0  0  0  0  0  0  0  0  0  0  0
  122.8405  105.2813  108.8989 H   0  0  0  0  0  0  0  0  0  0  0  0
  125.0209  108.4416  108.8115 H   0  0  0  0  0  0  0  0  0  0  0  0
  126.6979  108.3642  109.2814 H   0  0  0  0  0  0  0  0  0  0  0  0
  1  2  1  0  0  0  0
  1  9  1  0  0  0  0
  1 11  2  0  0  0  0
  2 10  1  0  0  0  0
  2 12  2  0  0  0  0
  3  4  1  0  0  0  0
  3  5  1  0  0  0  0
  4  8  1  0  0  0  0
  5  9  1  0  0  0  0
  6  7  1  0  0  0  0
  6  8  1  0  0  0  0
  7  9  1  0  0  0  0
  3 13  1  0  0  0  0
  3 14  1  0  0  0  0
  4 15  1  0  0  0  0
  4 16  1  0  0  0  0
  5 17  1  0  0  0  0
  5 18  1  0  0  0  0
  6 19  1  0  0  0  0
  6 20  1  0  0  0  0
  7 21  1  0  0  0  0
  7 22  1  0  0  0  0
  8 23  1  0  0  0  0
 10 24  1  0  0  0  0
 10 25  1  0  0  0  0
M  END
> <FRED Chemgauss4 score>
-8.305023

$$$$
C00344325	P20214856
  -OEChem-05122015313D

 36 40  0     1  0  0  0  0  0999 V2000
  115.7354  103.3557  103.8201 C   0  0  0  0  0  0  0  0  0  0  0  0
  116.8614  103.1756  104.6233 C   0  0  0  0  0  0  0  0  0  0  0  0
  115.2293  104.6377  103.6058 C   0  0  0  0  0  0  0  0  0  0  0  0
  121.9894  106.0966  107.6342 C   0  0  0  0  0  0  0  0  0  0  0  0
  117.0552  111.5163  105.4536 C   0  0  0  0  0  0  0  0  0  0  0  0
  120.6045  106.0604  107.7251 C   0  0  0  0  0  0  0  0  0  0  0  0
  117.3255  110.3157  104.8111 C   0  0  0  0  0  0  0  0  0  0  0  0
  117.4813  104.2776  105.2123 C   0  0  0  0  0  0  0  0  0  0  0  0
  115.8492  105.7397  104.1948 C   0  0  0  0  0  0  0  0  0  0  0  0
  122.5399  106.6773  106.5114 C   0  0  0  0  0  0  0  0  0  0  0  0
  117.0178  111.5071  106.8315 C   0  0  0  0  0  0  0  0  0  0  0  0
  119.8011  106.5982  106.7062 C   0  0  0  0  0  0  0  0  0  0  0  0
  117.5515  109.1383  105.5446 C   0  0  0  0  0  0  0  0  0  0  0  0
  116.9752  105.5597  104.9981 C   0  0  0  0  0  0  0  0  0  0  0  0
  120.4576  107.1630  105.6089 C   0  0  0  0  0  0  0  0  0  0  0  0
  117.4899  109.2369  106.9361 C   0  0  0  0  0  0  0  0  0  0  0  0
  118.2964  106.5517  106.8629 C   0  0  2  0  0  0  0  0  0  0  0  0
  117.8638  107.8610  104.7933 C   0  0  2  0  0  0  0  0  0  0  0  0
  121.8117  107.2049  105.5045 N   0  0  0  0  0  0  0  0  0  0  0  0
  117.2253  110.4036  107.5807 N   0  0  0  0  0  0  0  0  0  0  0  0
  117.5943  106.6608  105.5862 N   0  0  0  0  0  0  0  0  0  0  0  0
  119.6040  107.8554  104.2018 S   0  0  0  0  0  0  0  0  0  0  0  0
  117.7108  107.8448  108.0268 S   0  0  0  0  0  0  0  0  0  0  0  0
  115.2526  102.4974  103.3616 H   0  0  0  0  0  0  0  0  0  0  0  0
  117.2552  102.1776  104.7901 H   0  0  0  0  0  0  0  0  0  0  0  0
  114.3524  104.7777  102.9802 H   0  0  0  0  0  0  0  0  0  0  0  0
  122.6134  105.6826  108.4174 H   0  0  0  0  0  0  0  0  0  0  0  0
  116.8799  112.4258  104.8914 H   0  0  0  0  0  0  0  0  0  0  0  0
  120.1484  105.6068  108.6016 H   0  0  0  0  0  0  0  0  0  0  0  0
  117.3596  110.2988  103.7242 H   0  0  0  0  0  0  0  0  0  0  0  0
  118.3582  104.1267  105.8367 H   0  0  0  0  0  0  0  0  0  0  0  0
  115.4460  106.7341  104.0205 H   0  0  0  0  0  0  0  0  0  0  0  0
  123.6156  106.7353  106.3836 H   0  0  0  0  0  0  0  0  0  0  0  0
  116.8118  112.4135  107.3904 H   0  0  0  0  0  0  0  0  0  0  0  0
  118.0520  105.5761  107.3140 H   0  0  0  0  0  0  0  0  0  0  0  0
  117.2467  107.8386  103.8839 H   0  0  0  0  0  0  0  0  0  0  0  0
  1  2  1  0  0  0  0
  1  3  2  0  0  0  0
  2  8  2  0  0  0  0
  3  9  1  0  0  0  0
  4  6  2  0  0  0  0
  4 10  1  0  0  0  0
  5  7  2  0  0  0  0
  5 11  1  0  0  0  0
  6 12  1  0  0  0  0
  7 13  1  0  0  0  0
  8 14  1  0  0  0  0
  9 14  2  0  0  0  0
 10 19  2  0  0  0  0
 11 20  2  0  0  0  0
 12 15  2  0  0  0  0
 12 17  1  0  0  0  0
 13 16  2  0  0  0  0
 13 18  1  0  0  0  0
 14 21  1  0  0  0  0
 15 19  1  0  0  0  0
 15 22  1  0  0  0  0
 16 20  1  0  0  0  0
 16 23  1  0  0  0  0
 17 21  1  0  0  0  0
 17 23  1  0  0  0  0
 18 21  1  0  0  0  0
 18 22  1  0  0  0  0
  1 24  1  0  0  0  0
  2 25  1  0  0  0  0
  3 26  1  0  0  0  0
  4 27  1  0  0  0  0
  5 28  1  0  0  0  0
  6 29  1  0  0  0  0
  7 30  1  0  0  0  0
  8 31  1  0  0  0  0
  9 32  1  0  0  0  0
 10 33  1  0  0  0  0
 11 34  1  0  0  0  0
 17 35  1  0  0  0  0
 18 36  1  0  0  0  0
M  END
> <FRED Chemgauss4 score>
-8.304893

$$$$
C84444357	P132149567
  -OEChem-05122015313D

 33 33  0     1  0  0  0  0  0999 V2000
  124.0696  105.9002  106.5451 C   0  0  0  0  0  0  0  0  0  0  0  0
  124.8405  104.3890  107.8434 C   0  0  0  0  0  0  0  0  0  0  0  0
  123.8038  104.3826  106.6939 C   0  0  0  0  0  0  0  0  0  0  0  0
  125.4646  105.6321  107.1620 C   0  0  0  0  0  0  0  0  0  0  0  0
  118.0819  106.1400  106.0080 C   0  0  0  0  0  0  0  0  0  0  0  0
  118.2233  105.3036  103.7602 C   0  0  0  0  0  0  0  0  0  0  0  0
  118.9267  103.9281  105.6003 C   0  0  0  0  0  0  0  0  0  0  0  0
  121.4139  104.1669  106.0663 C   0  0  0  0  0  0  0  0  0  0  0  0
  120.0472  103.7907  106.6335 C   0  0  2  0  0  0  0  0  0  0  0  0
  118.8408  105.2785  105.0923 N   0  0  0  0  0  0  0  0  0  0  0  0
  122.4415  104.0673  107.1356 N   0  3  0  0  0  0  0  0  0  0  0  0
  125.8708  106.6190  108.0693 O   0  5  0  0  0  0  0  0  0  0  0  0
  120.0586  102.4408  107.0967 O   0  0  0  0  0  0  0  0  0  0  0  0
  124.0774  106.2675  105.5140 H   0  0  0  0  0  0  0  0  0  0  0  0
  123.3994  106.5388  107.1358 H   0  0  0  0  0  0  0  0  0  0  0  0
  124.4112  104.5538  108.8406 H   0  0  0  0  0  0  0  0  0  0  0  0
  125.4865  103.5064  107.8863 H   0  0  0  0  0  0  0  0  0  0  0  0
  124.1165  103.7926  105.8217 H   0  0  0  0  0  0  0  0  0  0  0  0
  126.2460  105.4016  106.4300 H   0  0  0  0  0  0  0  0  0  0  0  0
  118.5372  106.1253  107.0017 H   0  0  0  0  0  0  0  0  0  0  0  0
  117.0495  105.7891  106.0887 H   0  0  0  0  0  0  0  0  0  0  0  0
  118.0745  107.1693  105.6396 H   0  0  0  0  0  0  0  0  0  0  0  0
  118.7842  104.6637  103.0740 H   0  0  0  0  0  0  0  0  0  0  0  0
  118.2176  106.3232  103.3654 H   0  0  0  0  0  0  0  0  0  0  0  0
  117.1926  104.9430  103.8145 H   0  0  0  0  0  0  0  0  0  0  0  0
  117.9651  103.6502  106.0441 H   0  0  0  0  0  0  0  0  0  0  0  0
  119.1149  103.2563  104.7560 H   0  0  0  0  0  0  0  0  0  0  0  0
  121.4404  105.2018  105.7135 H   0  0  0  0  0  0  0  0  0  0  0  0
  121.7391  103.4872  105.2732 H   0  0  0  0  0  0  0  0  0  0  0  0
  119.7983  104.4298  107.4894 H   0  0  0  0  0  0  0  0  0  0  0  0
  122.4270  103.1166  107.5302 H   0  0  0  0  0  0  0  0  0  0  0  0
  122.1850  104.6951  107.9101 H   0  0  0  0  0  0  0  0  0  0  0  0
  119.1880  102.2787  107.4906 H   0  0  0  0  0  0  0  0  0  0  0  0
  1  3  1  0  0  0  0
  1  4  1  0  0  0  0
  2  3  1  0  0  0  0
  2  4  1  0  0  0  0
  3 11  1  0  0  0  0
  4 12  1  0  0  0  0
  5 10  1  0  0  0  0
  6 10  1  0  0  0  0
  7  9  1  0  0  0  0
  7 10  1  0  0  0  0
  8  9  1  0  0  0  0
  8 11  1  0  0  0  0
  9 13  1  0  0  0  0
  1 14  1  0  0  0  0
  1 15  1  0  0  0  0
  2 16  1  0  0  0  0
  2 17  1  0  0  0  0
  3 18  1  0  0  0  0
  4 19  1  0  0  0  0
  5 20  1  0  0  0  0
  5 21  1  0  0  0  0
  5 22  1  0  0  0  0
  6 23  1  0  0  0  0
  6 24  1  0  0  0  0
  6 25  1  0  0  0  0
  7 26  1  0  0  0  0
  7 27  1  0  0  0  0
  8 28  1  0  0  0  0
  8 29  1  0  0  0  0
  9 30  1  0  0  0  0
 11 31  1  0  0  0  0
 11 32  1  0  0  0  0
 13 33  1  0  0  0  0
M  CHG  2  11   1  12  -1
M  END
> <FRED Chemgauss4 score>
-8.304488

$$$$
C95673041	P150460172
  -OEChem-05122015313D

 23 23  0     1  0  0  0  0  0999 V2000
  122.4878  104.8164  107.0492 C   0  0  0  0  0  0  0  0  0  0  0  0
  121.4752  105.1626  106.1615 C   0  0  0  0  0  0  0  0  0  0  0  0
  123.6620  105.5605  107.0801 C   0  0  0  0  0  0  0  0  0  0  0  0
  121.6842  106.2527  105.3323 C   0  0  0  0  0  0  0  0  0  0  0  0
  123.7733  106.6327  106.2096 C   0  0  0  0  0  0  0  0  0  0  0  0
  124.8707  108.0721  108.7147 C   0  0  0  0  0  0  0  0  0  0  0  0
  125.0451  107.4697  106.2155 C   0  0  2  0  0  0  0  0  0  0  0  0
  125.7234  107.4565  107.6072 C   0  0  1  0  0  0  0  0  0  0  0  0
  122.8112  106.9994  105.3334 N   0  0  0  0  0  0  0  0  0  0  0  0
  124.7571  108.8344  105.7603 N   0  0  0  0  0  0  0  0  0  0  0  0
  126.9398  108.2090  107.5420 O   0  0  0  0  0  0  0  0  0  0  0  0
  122.3620  103.9684  107.7157 H   0  0  0  0  0  0  0  0  0  0  0  0
  120.5514  104.5970  106.1202 H   0  0  0  0  0  0  0  0  0  0  0  0
  124.4596  105.3008  107.7679 H   0  0  0  0  0  0  0  0  0  0  0  0
  120.9252  106.5638  104.6221 H   0  0  0  0  0  0  0  0  0  0  0  0
  124.5666  109.0950  108.4754 H   0  0  0  0  0  0  0  0  0  0  0  0
  125.4112  108.0788  109.6676 H   0  0  0  0  0  0  0  0  0  0  0  0
  123.9646  107.4763  108.8725 H   0  0  0  0  0  0  0  0  0  0  0  0
  125.7457  107.0268  105.4951 H   0  0  0  0  0  0  0  0  0  0  0  0
  125.9954  106.4371  107.9038 H   0  0  0  0  0  0  0  0  0  0  0  0
  124.0560  108.9518  105.0658 H   0  0  0  0  0  0  0  0  0  0  0  0
  125.4016  109.5496  106.0070 H   0  0  0  0  0  0  0  0  0  0  0  0
  127.3560  108.1246  108.4118 H   0  0  0  0  0  0  0  0  0  0  0  0
  1  2  1  0  0  0  0
  1  3  2  0  0  0  0
  2  4  2  0  0  0  0
  3  5  1  0  0  0  0
  4  9  1  0  0  0  0
  5  7  1  0  0  0  0
  5  9  2  0  0  0  0
  6  8  1  0  0  0  0
  7  8  1  0  0  0  0
  7 10  1  0  0  0  0
  8 11  1  0  0  0  0
  1 12  1  0  0  0  0
  2 13  1  0  0  0  0
  3 14  1  0  0  0  0
  4 15  1  0  0  0  0
  6 16  1  0  0  0  0
  6 17  1  0  0  0  0
  6 18  1  0  0  0  0
  7 19  1  0  0  0  0
  8 20  1  0  0  0  0
 10 21  1  0  0  0  0
 10 22  1  0  0  0  0
 11 23  1  0  0  0  0
M  END
> <FRED Chemgauss4 score>
-8.302650

$$$$
C94464663	P148063757
  -OEChem-05122015313D

 44 45  0     1  0  0  0  0  0999 V2000
  122.6461  105.8688  108.1360 C   0  0  0  0  0  0  0  0  0  0  0  0
  117.7082  108.4492  104.1983 C   0  0  0  0  0  0  0  0  0  0  0  0
  119.2235  108.2254  104.1416 C   0  0  0  0  0  0  0  0  0  0  0  0
  117.1607  107.3373  105.0969 C   0  0  0  0  0  0  0  0  0  0  0  0
  120.7167  106.3457  105.0962 C   0  0  0  0  0  0  0  0  0  0  0  0
  118.2205  105.4146  106.2225 C   0  0  0  0  0  0  0  0  0  0  0  0
  119.4720  107.2126  105.2451 C   0  0  2  0  0  0  0  0  0  0  0  0
  119.4653  104.4926  106.1391 C   0  0  1  0  0  0  0  0  0  0  0  0
  119.3381  103.5200  104.9534 C   0  0  0  0  0  0  0  0  0  0  0  0
  123.8897  106.1165  105.9239 C   0  0  0  0  0  0  0  0  0  0  0  0
  125.1418  104.6161  108.0042 C   0  0  0  0  0  0  0  0  0  0  0  0
  121.9259  104.5062  106.1019 C   0  0  0  0  0  0  0  0  0  0  0  0
  123.1126  105.1656  106.8461 C   0  0  2  0  0  0  0  0  0  0  0  0
  118.2660  106.3906  105.1425 N   0  0  2  0  0  0  0  0  0  0  0  0
  120.7050  105.3040  106.1371 N   0  0  1  0  0  0  0  0  0  0  0  0
  121.9406  105.0698  109.0103 N   0  0  0  0  0  0  0  0  0  0  0  0
  124.0113  104.0803  107.2678 N   0  0  0  0  0  0  0  0  0  0  0  0
  122.8638  107.0578  108.3679 O   0  0  0  0  0  0  0  0  0  0  0  0
  117.4708  109.4343  104.6146 H   0  0  0  0  0  0  0  0  0  0  0  0
  117.2818  108.3955  103.1905 H   0  0  0  0  0  0  0  0  0  0  0  0
  119.5031  107.8283  103.1580 H   0  0  0  0  0  0  0  0  0  0  0  0
  119.7777  109.1558  104.3000 H   0  0  0  0  0  0  0  0  0  0  0  0
  116.9266  107.7422  106.0892 H   0  0  0  0  0  0  0  0  0  0  0  0
  116.2533  106.8909  104.6791 H   0  0  0  0  0  0  0  0  0  0  0  0
  120.7715  105.9026  104.0937 H   0  0  0  0  0  0  0  0  0  0  0  0
  121.6022  106.9823  105.2152 H   0  0  0  0  0  0  0  0  0  0  0  0
  117.3083  104.8107  106.1458 H   0  0  0  0  0  0  0  0  0  0  0  0
  118.1960  105.9117  107.2018 H   0  0  0  0  0  0  0  0  0  0  0  0
  119.5043  107.7383  106.2120 H   0  0  0  0  0  0  0  0  0  0  0  0
  119.4661  103.8872  107.0553 H   0  0  0  0  0  0  0  0  0  0  0  0
  119.3339  104.0844  104.0268 H   0  0  0  0  0  0  0  0  0  0  0  0
  118.4121  102.9624  105.0461 H   0  0  0  0  0  0  0  0  0  0  0  0
  120.1797  102.8353  104.9607 H   0  0  0  0  0  0  0  0  0  0  0  0
  124.2161  105.6059  105.0108 H   0  0  0  0  0  0  0  0  0  0  0  0
  123.2846  106.9724  105.6034 H   0  0  0  0  0  0  0  0  0  0  0  0
  124.7767  106.5209  106.4253 H   0  0  0  0  0  0  0  0  0  0  0  0
  124.7935  105.1409  108.8976 H   0  0  0  0  0  0  0  0  0  0  0  0
  125.7014  105.3177  107.3797 H   0  0  0  0  0  0  0  0  0  0  0  0
  125.8114  103.8075  108.3095 H   0  0  0  0  0  0  0  0  0  0  0  0
  122.1891  104.3300  105.0512 H   0  0  0  0  0  0  0  0  0  0  0  0
  121.7000  103.5258  106.5401 H   0  0  0  0  0  0  0  0  0  0  0  0
  121.7684  104.0984  108.7752 H   0  0  0  0  0  0  0  0  0  0  0  0
  121.5920  105.4439  109.8867 H   0  0  0  0  0  0  0  0  0  0  0  0
  124.3387  103.5939  106.4392 H   0  0  0  0  0  0  0  0  0  0  0  0
  1 13  1  0  0  0  0
  1 16  1  0  0  0  0
  1 18  2  0  0  0  0
  2  3  1  0  0  0  0
  2  4  1  0  0  0  0
  3  7  1  0  0  0  0
  4 14  1  0  0  0  0
  5  7  1  0  0  0  0
  5 15  1  0  0  0  0
  6  8  1  0  0  0  0
  6 14  1  0  0  0  0
  7 14  1  0  0  0  0
  8  9  1  0  0  0  0
  8 15  1  0  0  0  0
 10 13  1  0  0  0  0
 11 17  1  0  0  0  0
 12 13  1  0  0  0  0
 12 15  1  0  0  0  0
 13 17  1  0  0  0  0
  2 19  1  0  0  0  0
  2 20  1  0  0  0  0
  3 21  1  0  0  0  0
  3 22  1  0  0  0  0
  4 23  1  0  0  0  0
  4 24  1  0  0  0  0
  5 25  1  0  0  0  0
  5 26  1  0  0  0  0
  6 27  1  0  0  0  0
  6 28  1  0  0  0  0
  7 29  1  0  0  0  0
  8 30  1  0  0  0  0
  9 31  1  0  0  0  0
  9 32  1  0  0  0  0
  9 33  1  0  0  0  0
 10 34  1  0  0  0  0
 10 35  1  0  0  0  0
 10 36  1  0  0  0  0
 11 37  1  0  0  0  0
 11 38  1  0  0  0  0
 11 39  1  0  0  0  0
 12 40  1  0  0  0  0
 12 41  1  0  0  0  0
 16 42  1  0  0  0  0
 16 43  1  0  0  0  0
 17 44  1  0  0  0  0
M  END
> <FRED Chemgauss4 score>
-8.302490

$$$$
C69506331	P106964096
  -OEChem-05122015313D

 41 42  0     1  0  0  0  0  0999 V2000
  123.6375  105.4328  107.6144 C   0  0  0  0  0  0  0  0  0  0  0  0
  121.8402  106.8898  107.7317 C   0  0  0  0  0  0  0  0  0  0  0  0
  118.7204  103.8558  105.7567 C   0  0  0  0  0  0  0  0  0  0  0  0
  120.1344  103.8506  106.3424 C   0  0  0  0  0  0  0  0  0  0  0  0
  118.0616  105.1620  106.2126 C   0  0  0  0  0  0  0  0  0  0  0  0
  123.3435  106.8903  107.8523 C   0  0  1  0  0  0  0  0  0  0  0  0
  120.1817  105.0464  107.2898 C   0  0  2  0  0  0  0  0  0  0  0  0
  119.2138  106.0504  106.6679 C   0  0  1  0  0  0  0  0  0  0  0  0
  125.0071  103.3765  107.3814 C   0  0  0  0  0  0  0  0  0  0  0  0
  125.8869  105.5821  106.5571 C   0  0  0  0  0  0  0  0  0  0  0  0
  123.7865  107.3560  109.2244 C   0  0  0  0  0  0  0  0  0  0  0  0
  123.9352  108.8724  109.3197 C   0  0  0  0  0  0  0  0  0  0  0  0
  125.0243  104.8874  107.6118 C   0  0  0  0  0  0  0  0  0  0  0  0
  122.5801  104.7100  107.4127 N   0  0  0  0  0  0  0  0  0  0  0  0
  121.5077  105.5601  107.4773 N   0  0  0  0  0  0  0  0  0  0  0  0
  124.8920  109.3864  108.3793 N   0  0  0  0  0  0  0  0  0  0  0  0
  121.1077  107.8584  107.8459 O   0  0  0  0  0  0  0  0  0  0  0  0
  119.7843  106.7158  105.5452 O   0  0  0  0  0  0  0  0  0  0  0  0
  118.7515  103.8165  104.6611 H   0  0  0  0  0  0  0  0  0  0  0  0
  118.1546  102.9813  106.0980 H   0  0  0  0  0  0  0  0  0  0  0  0
  120.2835  102.9234  106.9113 H   0  0  0  0  0  0  0  0  0  0  0  0
  120.9001  103.8870  105.5593 H   0  0  0  0  0  0  0  0  0  0  0  0
  117.5048  105.6223  105.3881 H   0  0  0  0  0  0  0  0  0  0  0  0
  117.3426  104.9938  107.0208 H   0  0  0  0  0  0  0  0  0  0  0  0
  123.7798  107.4910  107.0491 H   0  0  0  0  0  0  0  0  0  0  0  0
  119.8335  104.7582  108.3178 H   0  0  0  0  0  0  0  0  0  0  0  0
  118.8774  106.7718  107.3831 H   0  0  0  0  0  0  0  0  0  0  0  0
  124.5673  103.1246  106.4098 H   0  0  0  0  0  0  0  0  0  0  0  0
  124.4214  102.8698  108.1566 H   0  0  0  0  0  0  0  0  0  0  0  0
  126.0216  102.9644  107.4084 H   0  0  0  0  0  0  0  0  0  0  0  0
  125.4811  105.4200  105.5523 H   0  0  0  0  0  0  0  0  0  0  0  0
  126.9160  105.2053  106.5687 H   0  0  0  0  0  0  0  0  0  0  0  0
  125.9228  106.6628  106.7314 H   0  0  0  0  0  0  0  0  0  0  0  0
  124.7543  106.8946  109.4630 H   0  0  0  0  0  0  0  0  0  0  0  0
  123.0704  107.0048  109.9801 H   0  0  0  0  0  0  0  0  0  0  0  0
  122.9799  109.3609  109.1035 H   0  0  0  0  0  0  0  0  0  0  0  0
  124.2539  109.1758  110.3219 H   0  0  0  0  0  0  0  0  0  0  0  0
  125.4734  105.0807  108.5958 H   0  0  0  0  0  0  0  0  0  0  0  0
  125.3496  110.2640  108.5718 H   0  0  0  0  0  0  0  0  0  0  0  0
  124.9449  108.9796  107.4581 H   0  0  0  0  0  0  0  0  0  0  0  0
  119.0810  107.2531  105.1405 H   0  0  0  0  0  0  0  0  0  0  0  0
  1  6  1  0  0  0  0
  1 13  1  0  0  0  0
  1 14  2  0  0  0  0
  2  6  1  0  0  0  0
  2 15  1  0  0  0  0
  2 17  2  0  0  0  0
  3  4  1  0  0  0  0
  3  5  1  0  0  0  0
  4  7  1  0  0  0  0
  5  8  1  0  0  0  0
  6 11  1  0  0  0  0
  7  8  1  0  0  0  0
  7 15  1  0  0  0  0
  8 18  1  0  0  0  0
  9 13  1  0  0  0  0
 10 13  1  0  0  0  0
 11 12  1  0  0  0  0
 12 16  1  0  0  0  0
 14 15  1  0  0  0  0
  3 19  1  0  0  0  0
  3 20  1  0  0  0  0
  4 21  1  0  0  0  0
  4 22  1  0  0  0  0
  5 23  1  0  0  0  0
  5 24  1  0  0  0  0
  6 25  1  0  0  0  0
  7 26  1  0  0  0  0
  8 27  1  0  0  0  0
  9 28  1  0  0  0  0
  9 29  1  0  0  0  0
  9 30  1  0  0  0  0
 10 31  1  0  0  0  0
 10 32  1  0  0  0  0
 10 33  1  0  0  0  0
 11 34  1  0  0  0  0
 11 35  1  0  0  0  0
 12 36  1  0  0  0  0
 12 37  1  0  0  0  0
 13 38  1  0  0  0  0
 16 39  1  0  0  0  0
 16 40  1  0  0  0  0
 18 41  1  0  0  0  0
M  END
> <FRED Chemgauss4 score>
-8.300838

$$$$
C82563966	P129028527
  -OEChem-05122015313D

 19 19  0     0  0  0  0  0  0999 V2000
  125.5868  106.7219  107.1961 C   0  0  0  0  0  0  0  0  0  0  0  0
  125.2732  108.7159  107.6491 C   0  0  0  0  0  0  0  0  0  0  0  0
  125.4470  105.2206  107.2132 C   0  0  0  0  0  0  0  0  0  0  0  0
  124.2244  104.7195  107.9932 C   0  0  0  0  0  0  0  0  0  0  0  0
  122.8712  105.1600  107.4433 C   0  0  0  0  0  0  0  0  0  0  0  0
  124.8247  107.5329  107.9857 N   0  0  0  0  0  0  0  0  0  0  0  0
  126.4671  107.3420  106.4048 N   0  0  0  0  0  0  0  0  0  0  0  0
  121.7703  104.6656  108.3025 N   0  3  0  0  0  0  0  0  0  0  0  0
  124.8423  109.7359  108.1388 O   0  5  0  0  0  0  0  0  0  0  0  0
  126.2556  108.6922  106.7106 O   0  0  0  0  0  0  0  0  0  0  0  0
  125.4333  104.8287  106.1893 H   0  0  0  0  0  0  0  0  0  0  0  0
  126.3535  104.8006  107.6692 H   0  0  0  0  0  0  0  0  0  0  0  0
  124.2946  105.0508  109.0368 H   0  0  0  0  0  0  0  0  0  0  0  0
  124.2591  103.6227  108.0177 H   0  0  0  0  0  0  0  0  0  0  0  0
  122.7949  106.2516  107.4393 H   0  0  0  0  0  0  0  0  0  0  0  0
  122.6839  104.7881  106.4323 H   0  0  0  0  0  0  0  0  0  0  0  0
  121.5272  103.6961  108.0694 H   0  0  0  0  0  0  0  0  0  0  0  0
  120.9263  105.2381  108.1858 H   0  0  0  0  0  0  0  0  0  0  0  0
  122.0348  104.6938  109.2939 H   0  0  0  0  0  0  0  0  0  0  0  0
  1  3  1  0  0  0  0
  1  6  1  0  0  0  0
  1  7  2  0  0  0  0
  2  6  2  0  0  0  0
  2  9  1  0  0  0  0
  2 10  1  0  0  0  0
  3  4  1  0  0  0  0
  4  5  1  0  0  0  0
  5  8  1  0  0  0  0
  7 10  1  0  0  0  0
  3 11  1  0  0  0  0
  3 12  1  0  0  0  0
  4 13  1  0  0  0  0
  4 14  1  0  0  0  0
  5 15  1  0  0  0  0
  5 16  1  0  0  0  0
  8 17  1  0  0  0  0
  8 18  1  0  0  0  0
  8 19  1  0  0  0  0
M  CHG  2   8   1   9  -1
M  END
> <FRED Chemgauss4 score>
-8.297113

$$$$
C01530418	P120022890
  -OEChem-05122015313D

 20 20  0     1  0  0  0  0  0999 V2000
  125.5121  108.6728  107.9461 C   0  0  0  0  0  0  0  0  0  0  0  0
  123.5024  104.9927  107.8751 C   0  0  0  0  0  0  0  0  0  0  0  0
  126.6569  108.2298  107.0800 C   0  0  1  0  0  0  0  0  0  0  0  0
  126.9077  106.8088  107.5431 C   0  0  2  0  0  0  0  0  0  0  0  0
  125.5901  106.3806  108.1649 C   0  0  2  0  0  0  0  0  0  0  0  0
  124.6429  105.7034  107.1843 C   0  0  2  0  0  0  0  0  0  0  0  0
  125.0879  109.8156  108.0283 O   0  0  0  0  0  0  0  0  0  0  0  0
  122.3178  105.2813  107.7401 O   0  0  0  0  0  0  0  0  0  0  0  0
  124.9870  107.6046  108.6178 O   0  0  0  0  0  0  0  0  0  0  0  0
  126.2021  108.2931  105.7455 O   0  0  0  0  0  0  0  0  0  0  0  0
  127.9178  106.8200  108.5526 O   0  0  0  0  0  0  0  0  0  0  0  0
  124.0706  106.6930  106.3468 O   0  0  0  0  0  0  0  0  0  0  0  0
  123.8029  104.1914  108.5728 H   0  0  0  0  0  0  0  0  0  0  0  0
  127.5016  108.8928  107.2101 H   0  0  0  0  0  0  0  0  0  0  0  0
  127.2388  106.1675  106.7303 H   0  0  0  0  0  0  0  0  0  0  0  0
  125.7349  105.7270  109.0321 H   0  0  0  0  0  0  0  0  0  0  0  0
  125.1864  104.9820  106.5671 H   0  0  0  0  0  0  0  0  0  0  0  0
  126.9358  108.0078  105.1694 H   0  0  0  0  0  0  0  0  0  0  0  0
  128.7179  107.2001  108.1515 H   0  0  0  0  0  0  0  0  0  0  0  0
  123.4963  106.2314  105.7127 H   0  0  0  0  0  0  0  0  0  0  0  0
  1  3  1  0  0  0  0
  1  7  2  0  0  0  0
  1  9  1  0  0  0  0
  2  6  1  0  0  0  0
  2  8  2  0  0  0  0
  3  4  1  0  0  0  0
  3 10  1  0  0  0  0
  4  5  1  0  0  0  0
  4 11  1  0  0  0  0
  5  6  1  0  0  0  0
  5  9  1  0  0  0  0
  6 12  1  0  0  0  0
  2 13  1  0  0  0  0
  3 14  1  0  0  0  0
  4 15  1  0  0  0  0
  5 16  1  0  0  0  0
  6 17  1  0  0  0  0
 10 18  1  0  0  0  0
 11 19  1  0  0  0  0
 12 20  1  0  0  0  0
M  END
> <FRED Chemgauss4 score>
-8.296761

$$$$
C40729842	P61849313
  -OEChem-05122015313D

 30 30  0     1  0  0  0  0  0999 V2000
  124.8448  104.6160  107.4408 C   0  0  0  0  0  0  0  0  0  0  0  0
  123.5919  105.2048  107.1850 C   0  0  0  0  0  0  0  0  0  0  0  0
  125.4795  105.5066  108.2717 C   0  0  0  0  0  0  0  0  0  0  0  0
  125.3623  103.3336  106.9329 C   0  0  0  0  0  0  0  0  0  0  0  0
  122.4996  104.6777  106.3482 C   0  0  0  0  0  0  0  0  0  0  0  0
  126.8162  105.4745  108.8949 C   0  0  0  0  0  0  0  0  0  0  0  0
  124.8127  107.7363  109.2649 C   0  0  0  0  0  0  0  0  0  0  0  0
  123.6478  109.3386  110.8703 C   0  0  0  0  0  0  0  0  0  0  0  0
  123.7463  107.8985  110.3553 C   0  0  1  0  0  0  0  0  0  0  0  0
  123.4380  106.3786  107.8035 N   0  0  0  0  0  0  0  0  0  0  0  0
  124.6024  106.5345  108.4562 N   0  0  0  0  0  0  0  0  0  0  0  0
  123.3381  110.2823  109.8047 N   0  0  0  0  0  0  0  0  0  0  0  0
  122.4790  107.5435  109.7972 O   0  0  0  0  0  0  0  0  0  0  0  0
  125.8969  103.4683  105.9771 H   0  0  0  0  0  0  0  0  0  0  0  0
  126.0626  102.8569  107.6414 H   0  0  0  0  0  0  0  0  0  0  0  0
  124.5567  102.5973  106.7627 H   0  0  0  0  0  0  0  0  0  0  0  0
  121.8094  104.0521  106.9392 H   0  0  0  0  0  0  0  0  0  0  0  0
  121.9041  105.4840  105.8845 H   0  0  0  0  0  0  0  0  0  0  0  0
  122.8758  104.0609  105.5128 H   0  0  0  0  0  0  0  0  0  0  0  0
  127.5700  105.9491  108.2450 H   0  0  0  0  0  0  0  0  0  0  0  0
  126.8338  105.9993  109.8658 H   0  0  0  0  0  0  0  0  0  0  0  0
  127.1532  104.4437  109.1006 H   0  0  0  0  0  0  0  0  0  0  0  0
  125.8157  107.6626  109.7028 H   0  0  0  0  0  0  0  0  0  0  0  0
  124.8166  108.5820  108.5677 H   0  0  0  0  0  0  0  0  0  0  0  0
  122.8744  109.4009  111.6451 H   0  0  0  0  0  0  0  0  0  0  0  0
  124.5875  109.6275  111.3555 H   0  0  0  0  0  0  0  0  0  0  0  0
  123.9403  107.2125  111.1890 H   0  0  0  0  0  0  0  0  0  0  0  0
  123.6152  111.2346  109.9212 H   0  0  0  0  0  0  0  0  0  0  0  0
  122.6910  110.0011  109.0978 H   0  0  0  0  0  0  0  0  0  0  0  0
  122.5574  106.6220  109.5093 H   0  0  0  0  0  0  0  0  0  0  0  0
  1  2  1  0  0  0  0
  1  3  2  0  0  0  0
  1  4  1  0  0  0  0
  2  5  1  0  0  0  0
  2 10  2  0  0  0  0
  3  6  1  0  0  0  0
  3 11  1  0  0  0  0
  7  9  1  0  0  0  0
  7 11  1  0  0  0  0
  8  9  1  0  0  0  0
  8 12  1  0  0  0  0
  9 13  1  0  0  0  0
 10 11  1  0  0  0  0
  4 14  1  0  0  0  0
  4 15  1  0  0  0  0
  4 16  1  0  0  0  0
  5 17  1  0  0  0  0
  5 18  1  0  0  0  0
  5 19  1  0  0  0  0
  6 20  1  0  0  0  0
  6 21  1  0  0  0  0
  6 22  1  0  0  0  0
  7 23  1  0  0  0  0
  7 24  1  0  0  0  0
  8 25  1  0  0  0  0
  8 26  1  0  0  0  0
  9 27  1  0  0  0  0
 12 28  1  0  0  0  0
 12 29  1  0  0  0  0
 13 30  1  0  0  0  0
M  END
> <FRED Chemgauss4 score>
-8.296133

$$$$
C97229240	P153967145
  -OEChem-05122015313D

 27 27  0     0  0  0  0  0  0999 V2000
  118.6111  104.4712  104.6992 C   0  0  0  0  0  0  0  0  0  0  0  0
  117.5279  105.0850  104.0802 C   0  0  0  0  0  0  0  0  0  0  0  0
  118.1289  105.7198  106.6651 C   0  0  0  0  0  0  0  0  0  0  0  0
  118.9240  104.7890  106.0161 C   0  0  0  0  0  0  0  0  0  0  0  0
  116.7951  106.0024  104.8160 C   0  0  0  0  0  0  0  0  0  0  0  0
  120.0841  104.1450  106.7107 C   0  0  0  0  0  0  0  0  0  0  0  0
  124.7361  104.1683  108.4336 C   0  0  0  0  0  0  0  0  0  0  0  0
  124.0860  104.6096  107.1331 C   0  0  0  0  0  0  0  0  0  0  0  0
  117.0687  106.3368  106.0970 N   0  0  0  0  0  0  0  0  0  0  0  0
  126.0304  104.7661  108.6235 N   0  0  0  0  0  0  0  0  0  0  0  0
  122.7512  104.0113  106.9521 N   0  0  0  0  0  0  0  0  0  0  0  0
  121.6646  104.4893  104.6531 O   0  0  0  0  0  0  0  0  0  0  0  0
  121.6012  106.2517  106.4549 O   0  0  0  0  0  0  0  0  0  0  0  0
  121.5737  104.8587  106.0521 S   0  0  0  0  0  0  0  0  0  0  0  0
  115.4428  106.8083  104.1345 Cl  0  0  0  0  0  0  0  0  0  0  0  0
  119.2053  103.7474  104.1483 H   0  0  0  0  0  0  0  0  0  0  0  0
  117.2761  104.8437  103.0529 H   0  0  0  0  0  0  0  0  0  0  0  0
  118.3240  106.0074  107.6938 H   0  0  0  0  0  0  0  0  0  0  0  0
  120.1177  103.0657  106.5375 H   0  0  0  0  0  0  0  0  0  0  0  0
  120.0676  104.3257  107.7892 H   0  0  0  0  0  0  0  0  0  0  0  0
  124.8696  103.0823  108.4650 H   0  0  0  0  0  0  0  0  0  0  0  0
  124.1161  104.4678  109.2843 H   0  0  0  0  0  0  0  0  0  0  0  0
  123.9549  105.6961  107.1246 H   0  0  0  0  0  0  0  0  0  0  0  0
  124.6936  104.3266  106.2674 H   0  0  0  0  0  0  0  0  0  0  0  0
  126.6453  104.8679  107.8320 H   0  0  0  0  0  0  0  0  0  0  0  0
  126.3834  104.8856  109.5596 H   0  0  0  0  0  0  0  0  0  0  0  0
  122.7624  102.9876  106.8554 H   0  0  0  0  0  0  0  0  0  0  0  0
  1  2  1  0  0  0  0
  1  4  2  0  0  0  0
  2  5  2  0  0  0  0
  3  4  1  0  0  0  0
  3  9  2  0  0  0  0
  4  6  1  0  0  0  0
  5  9  1  0  0  0  0
  5 15  1  0  0  0  0
  6 14  1  0  0  0  0
  7  8  1  0  0  0  0
  7 10  1  0  0  0  0
  8 11  1  0  0  0  0
 11 14  1  0  0  0  0
 12 14  2  0  0  0  0
 13 14  2  0  0  0  0
  1 16  1  0  0  0  0
  2 17  1  0  0  0  0
  3 18  1  0  0  0  0
  6 19  1  0  0  0  0
  6 20  1  0  0  0  0
  7 21  1  0  0  0  0
  7 22  1  0  0  0  0
  8 23  1  0  0  0  0
  8 24  1  0  0  0  0
 10 25  1  0  0  0  0
 10 26  1  0  0  0  0
 11 27  1  0  0  0  0
M  END
> <FRED Chemgauss4 score>
-8.295163

$$$$
C54526015	P82065671
  -OEChem-05122015313D

 32 32  0     1  0  0  0  0  0999 V2000
  121.4915  105.7353  104.9303 C   0  0  0  0  0  0  0  0  0  0  0  0
  122.4768  105.6421  106.8616 C   0  0  0  0  0  0  0  0  0  0  0  0
  124.9065  103.8395  107.3965 C   0  0  0  0  0  0  0  0  0  0  0  0
  125.1992  106.1914  108.1759 C   0  0  0  0  0  0  0  0  0  0  0  0
  117.3737  104.8588  106.0199 C   0  0  0  0  0  0  0  0  0  0  0  0
  120.8831  103.7618  106.3469 C   0  0  0  0  0  0  0  0  0  0  0  0
  119.4346  103.9993  106.7525 C   0  0  0  0  0  0  0  0  0  0  0  0
  122.8799  105.1461  108.2388 C   0  0  1  0  0  0  0  0  0  0  0  0
  124.4024  104.8963  108.3876 C   0  0  0  0  0  0  0  0  0  0  0  0
  122.2771  106.7844  105.0237 N   0  0  0  0  0  0  0  0  0  0  0  0
  122.9039  106.7251  106.2524 N   0  0  0  0  0  0  0  0  0  0  0  0
  121.5859  104.9886  106.0653 N   0  0  0  0  0  0  0  0  0  0  0  0
  122.3958  106.1045  109.2091 N   0  0  0  0  0  0  0  0  0  0  0  0
  118.7357  104.6286  105.6863 O   0  0  0  0  0  0  0  0  0  0  0  0
  120.8570  105.4777  104.0944 H   0  0  0  0  0  0  0  0  0  0  0  0
  124.7127  104.1426  106.3618 H   0  0  0  0  0  0  0  0  0  0  0  0
  125.9859  103.6879  107.5067 H   0  0  0  0  0  0  0  0  0  0  0  0
  124.4268  102.8702  107.5638 H   0  0  0  0  0  0  0  0  0  0  0  0
  125.0261  106.6043  107.1762 H   0  0  0  0  0  0  0  0  0  0  0  0
  126.2737  106.0081  108.2841 H   0  0  0  0  0  0  0  0  0  0  0  0
  124.9244  106.9536  108.9119 H   0  0  0  0  0  0  0  0  0  0  0  0
  116.8688  105.3422  105.1800 H   0  0  0  0  0  0  0  0  0  0  0  0
  117.3174  105.4942  106.9073 H   0  0  0  0  0  0  0  0  0  0  0  0
  116.8921  103.9007  106.2291 H   0  0  0  0  0  0  0  0  0  0  0  0
  120.9450  103.1325  105.4515 H   0  0  0  0  0  0  0  0  0  0  0  0
  121.4287  103.2560  107.1518 H   0  0  0  0  0  0  0  0  0  0  0  0
  118.9451  103.0416  106.9552 H   0  0  0  0  0  0  0  0  0  0  0  0
  119.3592  104.6307  107.6437 H   0  0  0  0  0  0  0  0  0  0  0  0
  122.3489  104.2123  108.4656 H   0  0  0  0  0  0  0  0  0  0  0  0
  124.6222  104.5409  109.4028 H   0  0  0  0  0  0  0  0  0  0  0  0
  122.8140  106.1208  110.1208 H   0  0  0  0  0  0  0  0  0  0  0  0
  121.5332  106.5828  109.0254 H   0  0  0  0  0  0  0  0  0  0  0  0
  1 10  2  0  0  0  0
  1 12  1  0  0  0  0
  2  8  1  0  0  0  0
  2 11  2  0  0  0  0
  2 12  1  0  0  0  0
  3  9  1  0  0  0  0
  4  9  1  0  0  0  0
  5 14  1  0  0  0  0
  6  7  1  0  0  0  0
  6 12  1  0  0  0  0
  7 14  1  0  0  0  0
  8  9  1  0  0  0  0
  8 13  1  0  0  0  0
 10 11  1  0  0  0  0
  1 15  1  0  0  0  0
  3 16  1  0  0  0  0
  3 17  1  0  0  0  0
  3 18  1  0  0  0  0
  4 19  1  0  0  0  0
  4 20  1  0  0  0  0
  4 21  1  0  0  0  0
  5 22  1  0  0  0  0
  5 23  1  0  0  0  0
  5 24  1  0  0  0  0
  6 25  1  0  0  0  0
  6 26  1  0  0  0  0
  7 27  1  0  0  0  0
  7 28  1  0  0  0  0
  8 29  1  0  0  0  0
  9 30  1  0  0  0  0
 13 31  1  0  0  0  0
 13 32  1  0  0  0  0
M  END
> <FRED Chemgauss4 score>
-8.290886

$$$$
C88474213	P138392897
  -OEChem-05122015313D

 37 37  0     1  0  0  0  0  0999 V2000
  119.6406  104.6866  104.0952 C   0  0  0  0  0  0  0  0  0  0  0  0
  120.8937  104.2427  104.8513 C   0  0  0  0  0  0  0  0  0  0  0  0
  118.3656  104.1089  104.6892 C   0  0  0  0  0  0  0  0  0  0  0  0
  119.7223  104.1163  107.1022 C   0  0  0  0  0  0  0  0  0  0  0  0
  120.8894  104.6969  106.3142 C   0  0  1  0  0  0  0  0  0  0  0  0
  125.3396  107.6684  108.0497 C   0  0  0  0  0  0  0  0  0  0  0  0
  124.9546  106.4529  108.8836 C   0  0  0  0  0  0  0  0  0  0  0  0
  122.4564  106.9479  108.7204 C   0  0  0  0  0  0  0  0  0  0  0  0
  123.5625  105.8965  108.5442 C   0  0  1  0  0  0  0  0  0  0  0  0
  122.3592  107.4150  110.0988 N   0  0  0  0  0  0  0  0  0  0  0  0
  122.1583  104.2624  106.9508 N   0  0  0  0  0  0  0  0  0  0  0  0
  118.0392  106.0253  106.4545 O   0  0  0  0  0  0  0  0  0  0  0  0
  117.1369  103.7273  106.9689 O   0  0  0  0  0  0  0  0  0  0  0  0
  123.2308  106.4153  106.0003 O   0  0  0  0  0  0  0  0  0  0  0  0
  124.6912  104.4730  106.6720 O   0  0  0  0  0  0  0  0  0  0  0  0
  118.1572  104.5815  106.3927 S   0  0  0  0  0  0  0  0  0  0  0  0
  123.5111  105.2918  106.8728 S   0  0  0  0  0  0  0  0  0  0  0  0
  119.5791  105.7814  104.1260 H   0  0  0  0  0  0  0  0  0  0  0  0
  119.7218  104.4110  103.0369 H   0  0  0  0  0  0  0  0  0  0  0  0
  120.9620  103.1559  104.8067 H   0  0  0  0  0  0  0  0  0  0  0  0
  121.7736  104.6504  104.3536 H   0  0  0  0  0  0  0  0  0  0  0  0
  117.4840  104.4581  104.1421 H   0  0  0  0  0  0  0  0  0  0  0  0
  118.3816  103.0154  104.6568 H   0  0  0  0  0  0  0  0  0  0  0  0
  119.7504  103.0307  107.1246 H   0  0  0  0  0  0  0  0  0  0  0  0
  119.7263  104.5007  108.1191 H   0  0  0  0  0  0  0  0  0  0  0  0
  120.8581  105.7643  106.3583 H   0  0  0  0  0  0  0  0  0  0  0  0
  124.6227  108.4853  108.1698 H   0  0  0  0  0  0  0  0  0  0  0  0
  126.3192  108.0425  108.3646 H   0  0  0  0  0  0  0  0  0  0  0  0
  125.4014  107.4129  106.9872 H   0  0  0  0  0  0  0  0  0  0  0  0
  125.7155  105.6830  108.7109 H   0  0  0  0  0  0  0  0  0  0  0  0
  125.0069  106.7188  109.9464 H   0  0  0  0  0  0  0  0  0  0  0  0
  122.6420  107.8051  108.0625 H   0  0  0  0  0  0  0  0  0  0  0  0
  121.4883  106.5255  108.4267 H   0  0  0  0  0  0  0  0  0  0  0  0
  123.3430  105.0260  109.1747 H   0  0  0  0  0  0  0  0  0  0  0  0
  121.4829  107.7732  110.4138 H   0  0  0  0  0  0  0  0  0  0  0  0
  123.2051  107.5511  110.6103 H   0  0  0  0  0  0  0  0  0  0  0  0
  122.0177  103.7277  107.8124 H   0  0  0  0  0  0  0  0  0  0  0  0
  1  2  1  0  0  0  0
  1  3  1  0  0  0  0
  2  5  1  0  0  0  0
  3 16  1  0  0  0  0
  4  5  1  0  0  0  0
  4 16  1  0  0  0  0
  5 11  1  0  0  0  0
  6  7  1  0  0  0  0
  7  9  1  0  0  0  0
  8  9  1  0  0  0  0
  8 10  1  0  0  0  0
  9 17  1  0  0  0  0
 11 17  1  0  0  0  0
 12 16  2  0  0  0  0
 13 16  2  0  0  0  0
 14 17  2  0  0  0  0
 15 17  2  0  0  0  0
  1 18  1  0  0  0  0
  1 19  1  0  0  0  0
  2 20  1  0  0  0  0
  2 21  1  0  0  0  0
  3 22  1  0  0  0  0
  3 23  1  0  0  0  0
  4 24  1  0  0  0  0
  4 25  1  0  0  0  0
  5 26  1  0  0  0  0
  6 27  1  0  0  0  0
  6 28  1  0  0  0  0
  6 29  1  0  0  0  0
  7 30  1  0  0  0  0
  7 31  1  0  0  0  0
  8 32  1  0  0  0  0
  8 33  1  0  0  0  0
  9 34  1  0  0  0  0
 10 35  1  0  0  0  0
 10 36  1  0  0  0  0
 11 37  1  0  0  0  0
M  END
> <FRED Chemgauss4 score>
-8.288296

$$$$
C86433852	P135331542
  -OEChem-05122015313D

 27 28  0     0  0  0  0  0  0999 V2000
  125.5713  107.5667  106.6992 C   0  0  0  0  0  0  0  0  0  0  0  0
  123.7459  106.7706  105.8190 C   0  0  0  0  0  0  0  0  0  0  0  0
  126.6782  107.3673  107.6469 C   0  0  0  0  0  0  0  0  0  0  0  0
  126.1569  106.1607  108.4767 C   0  0  0  0  0  0  0  0  0  0  0  0
  125.1043  105.4512  107.5982 C   0  0  0  0  0  0  0  0  0  0  0  0
  122.6314  105.8536  105.5389 C   0  0  0  0  0  0  0  0  0  0  0  0
  119.8892  105.0521  104.5534 C   0  0  0  0  0  0  0  0  0  0  0  0
  121.2012  105.1779  103.8008 C   0  0  0  0  0  0  0  0  0  0  0  0
  125.1486  108.4752  105.8597 N   0  0  0  0  0  0  0  0  0  0  0  0
  123.9755  107.9631  105.2935 N   0  0  0  0  0  0  0  0  0  0  0  0
  124.7281  106.5049  106.6866 N   0  0  0  0  0  0  0  0  0  0  0  0
  119.0827  103.9578  103.9661 N   0  0  0  0  0  0  0  0  0  0  0  0
  121.9547  106.2498  104.3436 O   0  0  0  0  0  0  0  0  0  0  0  0
  127.5979  107.1026  107.1161 H   0  0  0  0  0  0  0  0  0  0  0  0
  126.8603  108.2392  108.2801 H   0  0  0  0  0  0  0  0  0  0  0  0
  126.9624  105.4898  108.7906 H   0  0  0  0  0  0  0  0  0  0  0  0
  125.6706  106.5361  109.3868 H   0  0  0  0  0  0  0  0  0  0  0  0
  125.5365  104.6361  107.0111 H   0  0  0  0  0  0  0  0  0  0  0  0
  124.2319  105.1179  108.1646 H   0  0  0  0  0  0  0  0  0  0  0  0
  122.9686  104.8085  105.4032 H   0  0  0  0  0  0  0  0  0  0  0  0
  121.8880  105.8365  106.3583 H   0  0  0  0  0  0  0  0  0  0  0  0
  120.0584  104.8243  105.6105 H   0  0  0  0  0  0  0  0  0  0  0  0
  119.3144  105.9798  104.4744 H   0  0  0  0  0  0  0  0  0  0  0  0
  121.0088  105.4001  102.7466 H   0  0  0  0  0  0  0  0  0  0  0  0
  121.7944  104.2602  103.8697 H   0  0  0  0  0  0  0  0  0  0  0  0
  118.1041  104.0063  104.0887 H   0  0  0  0  0  0  0  0  0  0  0  0
  119.5694  103.1512  103.6699 H   0  0  0  0  0  0  0  0  0  0  0  0
  1  3  1  0  0  0  0
  1  9  2  0  0  0  0
  1 11  1  0  0  0  0
  2  6  1  0  0  0  0
  2 10  2  0  0  0  0
  2 11  1  0  0  0  0
  3  4  1  0  0  0  0
  4  5  1  0  0  0  0
  5 11  1  0  0  0  0
  6 13  1  0  0  0  0
  7  8  1  0  0  0  0
  7 12  1  0  0  0  0
  8 13  1  0  0  0  0
  9 10  1  0  0  0  0
  3 14  1  0  0  0  0
  3 15  1  0  0  0  0
  4 16  1  0  0  0  0
  4 17  1  0  0  0  0
  5 18  1  0  0  0  0
  5 19  1  0  0  0  0
  6 20  1  0  0  0  0
  6 21  1  0  0  0  0
  7 22  1  0  0  0  0
  7 23  1  0  0  0  0
  8 24  1  0  0  0  0
  8 25  1  0  0  0  0
 12 26  1  0  0  0  0
 12 27  1  0  0  0  0
M  END
> <FRED Chemgauss4 score>
-8.283897

$$$$
C83925146	P131294687
  -OEChem-05122015313D

 32 31  0     1  0  0  0  0  0999 V2000
  124.6788  107.3566  108.4220 C   0  0  0  0  0  0  0  0  0  0  0  0
  124.5342  104.9038  109.0170 C   0  0  0  0  0  0  0  0  0  0  0  0
  116.8549  104.7656  103.8400 C   0  0  0  0  0  0  0  0  0  0  0  0
  119.9920  103.9484  106.4096 C   0  0  0  0  0  0  0  0  0  0  0  0
  121.0610  105.0135  106.1937 C   0  0  0  0  0  0  0  0  0  0  0  0
  118.6111  104.4117  105.9657 C   0  0  0  0  0  0  0  0  0  0  0  0
  123.8938  106.0658  108.2699 C   0  0  2  0  0  0  0  0  0  0  0  0
  125.9784  107.3391  107.9929 N   0  0  0  0  0  0  0  0  0  0  0  0
  122.3611  104.5863  106.6324 N   0  0  0  0  0  0  0  0  0  0  0  0
  119.0549  106.1580  104.0720 O   0  0  0  0  0  0  0  0  0  0  0  0
  119.2205  103.6991  103.5258 O   0  0  0  0  0  0  0  0  0  0  0  0
  123.3027  106.8705  105.8505 O   0  0  0  0  0  0  0  0  0  0  0  0
  124.8900  104.9333  106.1414 O   0  0  0  0  0  0  0  0  0  0  0  0
  123.9960  108.7355  109.0813 S   0  0  0  0  0  0  0  0  0  0  0  0
  118.5868  104.7929  104.2422 S   0  0  0  0  0  0  0  0  0  0  0  0
  123.7054  105.6648  106.5477 S   0  0  0  0  0  0  0  0  0  0  0  0
  125.5592  104.7340  108.6710 H   0  0  0  0  0  0  0  0  0  0  0  0
  124.5693  105.0796  110.0974 H   0  0  0  0  0  0  0  0  0  0  0  0
  123.9635  103.9825  108.8577 H   0  0  0  0  0  0  0  0  0  0  0  0
  116.7441  104.9939  102.7788 H   0  0  0  0  0  0  0  0  0  0  0  0
  116.4661  103.7701  104.0596 H   0  0  0  0  0  0  0  0  0  0  0  0
  116.3484  105.5169  104.4477 H   0  0  0  0  0  0  0  0  0  0  0  0
  119.9614  103.6904  107.4753 H   0  0  0  0  0  0  0  0  0  0  0  0
  120.2635  103.0308  105.8729 H   0  0  0  0  0  0  0  0  0  0  0  0
  121.1376  105.2855  105.1362 H   0  0  0  0  0  0  0  0  0  0  0  0
  120.8131  105.9155  106.7620 H   0  0  0  0  0  0  0  0  0  0  0  0
  117.8593  103.6338  106.1289 H   0  0  0  0  0  0  0  0  0  0  0  0
  118.3006  105.3191  106.4919 H   0  0  0  0  0  0  0  0  0  0  0  0
  122.8724  106.2011  108.6456 H   0  0  0  0  0  0  0  0  0  0  0  0
  126.4125  106.5122  107.5968 H   0  0  0  0  0  0  0  0  0  0  0  0
  126.5637  108.1645  108.0695 H   0  0  0  0  0  0  0  0  0  0  0  0
  122.3743  103.9425  107.4539 H   0  0  0  0  0  0  0  0  0  0  0  0
  1  7  1  0  0  0  0
  1  8  1  0  0  0  0
  1 14  2  0  0  0  0
  2  7  1  0  0  0  0
  3 15  1  0  0  0  0
  4  5  1  0  0  0  0
  4  6  1  0  0  0  0
  5  9  1  0  0  0  0
  6 15  1  0  0  0  0
  7 16  1  0  0  0  0
  9 16  1  0  0  0  0
 10 15  2  0  0  0  0
 11 15  2  0  0  0  0
 12 16  2  0  0  0  0
 13 16  2  0  0  0  0
  2 17  1  0  0  0  0
  2 18  1  0  0  0  0
  2 19  1  0  0  0  0
  3 20  1  0  0  0  0
  3 21  1  0  0  0  0
  3 22  1  0  0  0  0
  4 23  1  0  0  0  0
  4 24  1  0  0  0  0
  5 25  1  0  0  0  0
  5 26  1  0  0  0  0
  6 27  1  0  0  0  0
  6 28  1  0  0  0  0
  7 29  1  0  0  0  0
  8 30  1  0  0  0  0
  8 31  1  0  0  0  0
  9 32  1  0  0  0  0
M  END
> <FRED Chemgauss4 score>
-8.281597

$$$$
C74189571	P115619256
  -OEChem-05122015313D

 30 31  0     1  0  0  0  0  0999 V2000
  117.4431  104.6172  104.4355 C   0  0  0  0  0  0  0  0  0  0  0  0
  119.8146  103.7213  106.3887 C   0  0  0  0  0  0  0  0  0  0  0  0
  118.0194  105.2743  105.4950 C   0  0  0  0  0  0  0  0  0  0  0  0
  119.2425  104.9565  106.1949 C   0  0  0  0  0  0  0  0  0  0  0  0
  117.1469  106.3467  105.7607 C   0  0  0  0  0  0  0  0  0  0  0  0
  121.0171  105.3204  107.3125 C   0  0  0  0  0  0  0  0  0  0  0  0
  117.2716  107.3847  106.8007 C   0  0  0  0  0  0  0  0  0  0  0  0
  123.5162  105.6866  107.4250 C   0  0  0  0  0  0  0  0  0  0  0  0
  115.3581  104.9980  103.0983 C   0  0  0  0  0  0  0  0  0  0  0  0
  122.1615  105.9446  108.0815 C   0  0  2  0  0  0  0  0  0  0  0  0
  119.9961  105.9478  106.7721 N   0  0  0  0  0  0  0  0  0  0  0  0
  116.0963  106.3730  104.9364 N   0  0  0  0  0  0  0  0  0  0  0  0
  120.9508  103.9706  107.1057 N   0  0  0  0  0  0  0  0  0  0  0  0
  116.3049  105.3091  104.1422 N   0  0  0  0  0  0  0  0  0  0  0  0
  122.1710  105.5034  109.4575 N   0  0  0  0  0  0  0  0  0  0  0  0
  117.7374  103.7373  103.8785 H   0  0  0  0  0  0  0  0  0  0  0  0
  119.5317  102.7204  106.0948 H   0  0  0  0  0  0  0  0  0  0  0  0
  117.8335  108.2572  106.4277 H   0  0  0  0  0  0  0  0  0  0  0  0
  116.2875  107.7449  107.1479 H   0  0  0  0  0  0  0  0  0  0  0  0
  117.7925  107.0113  107.6996 H   0  0  0  0  0  0  0  0  0  0  0  0
  123.7210  104.6129  107.3516 H   0  0  0  0  0  0  0  0  0  0  0  0
  123.5385  106.1062  106.4129 H   0  0  0  0  0  0  0  0  0  0  0  0
  124.3373  106.1498  107.9835 H   0  0  0  0  0  0  0  0  0  0  0  0
  114.6027  104.3277  103.5169 H   0  0  0  0  0  0  0  0  0  0  0  0
  114.8939  105.9213  102.7407 H   0  0  0  0  0  0  0  0  0  0  0  0
  115.8812  104.5153  102.2681 H   0  0  0  0  0  0  0  0  0  0  0  0
  122.0145  107.0307  108.1263 H   0  0  0  0  0  0  0  0  0  0  0  0
  121.6185  103.2809  107.4245 H   0  0  0  0  0  0  0  0  0  0  0  0
  121.2947  105.3366  109.9188 H   0  0  0  0  0  0  0  0  0  0  0  0
  123.0257  105.5683  109.9810 H   0  0  0  0  0  0  0  0  0  0  0  0
  1  3  2  0  0  0  0
  1 14  1  0  0  0  0
  2  4  2  0  0  0  0
  2 13  1  0  0  0  0
  3  4  1  0  0  0  0
  3  5  1  0  0  0  0
  4 11  1  0  0  0  0
  5  7  1  0  0  0  0
  5 12  2  0  0  0  0
  6 10  1  0  0  0  0
  6 11  2  0  0  0  0
  6 13  1  0  0  0  0
  8 10  1  0  0  0  0
  9 14  1  0  0  0  0
 10 15  1  0  0  0  0
 12 14  1  0  0  0  0
  1 16  1  0  0  0  0
  2 17  1  0  0  0  0
  7 18  1  0  0  0  0
  7 19  1  0  0  0  0
  7 20  1  0  0  0  0
  8 21  1  0  0  0  0
  8 22  1  0  0  0  0
  8 23  1  0  0  0  0
  9 24  1  0  0  0  0
  9 25  1  0  0  0  0
  9 26  1  0  0  0  0
 10 27  1  0  0  0  0
 13 28  1  0  0  0  0
 15 29  1  0  0  0  0
 15 30  1  0  0  0  0
M  END
> <FRED Chemgauss4 score>
-8.277827

$$$$
C41058832	P62326259
  -OEChem-05122015313D

 29 30  0     1  0  0  0  0  0999 V2000
  125.0594  108.0979  108.4556 C   0  0  0  0  0  0  0  0  0  0  0  0
  124.2808  109.2709  109.9968 C   0  0  0  0  0  0  0  0  0  0  0  0
  125.0680  104.5027  107.5325 C   0  0  0  0  0  0  0  0  0  0  0  0
  126.0829  104.6998  108.6443 C   0  0  0  0  0  0  0  0  0  0  0  0
  124.3875  105.8603  107.4437 C   0  0  0  0  0  0  0  0  0  0  0  0
  126.6483  106.0901  108.3773 C   0  0  0  0  0  0  0  0  0  0  0  0
  125.5135  106.8796  107.6935 C   0  0  0  0  0  0  0  0  0  0  0  0
  122.8807  111.1126  111.0251 C   0  0  0  0  0  0  0  0  0  0  0  0
  123.6991  109.8201  111.2321 C   0  0  1  0  0  0  0  0  0  0  0  0
  124.5361  108.0145  109.7141 N   0  0  0  0  0  0  0  0  0  0  0  0
  125.1440  109.3269  107.9418 N   0  0  0  0  0  0  0  0  0  0  0  0
  124.6396  110.0581  108.9474 N   0  0  0  0  0  0  0  0  0  0  0  0
  122.8489  108.8669  111.9407 N   0  0  0  0  0  0  0  0  0  0  0  0
  125.5757  104.2699  106.5891 H   0  0  0  0  0  0  0  0  0  0  0  0
  124.3613  103.6971  107.7509 H   0  0  0  0  0  0  0  0  0  0  0  0
  125.5832  104.6801  109.6202 H   0  0  0  0  0  0  0  0  0  0  0  0
  126.8595  103.9295  108.6435 H   0  0  0  0  0  0  0  0  0  0  0  0
  123.9090  106.0113  106.4704 H   0  0  0  0  0  0  0  0  0  0  0  0
  123.6047  105.9317  108.2098 H   0  0  0  0  0  0  0  0  0  0  0  0
  127.0220  106.5544  109.2963 H   0  0  0  0  0  0  0  0  0  0  0  0
  127.4954  106.0080  107.6847 H   0  0  0  0  0  0  0  0  0  0  0  0
  125.8905  107.2431  106.7092 H   0  0  0  0  0  0  0  0  0  0  0  0
  122.0747  110.9405  110.3033 H   0  0  0  0  0  0  0  0  0  0  0  0
  122.4299  111.4658  111.9594 H   0  0  0  0  0  0  0  0  0  0  0  0
  123.5083  111.9256  110.6432 H   0  0  0  0  0  0  0  0  0  0  0  0
  124.4904  110.0725  111.9705 H   0  0  0  0  0  0  0  0  0  0  0  0
  124.5747  111.0640  108.8439 H   0  0  0  0  0  0  0  0  0  0  0  0
  122.1471  109.2274  112.5499 H   0  0  0  0  0  0  0  0  0  0  0  0
  123.1262  107.9094  111.9514 H   0  0  0  0  0  0  0  0  0  0  0  0
  1  7  1  0  0  0  0
  1 10  1  0  0  0  0
  1 11  2  0  0  0  0
  2  9  1  0  0  0  0
  2 10  2  0  0  0  0
  2 12  1  0  0  0  0
  3  4  1  0  0  0  0
  3  5  1  0  0  0  0
  4  6  1  0  0  0  0
  5  7  1  0  0  0  0
  6  7  1  0  0  0  0
  8  9  1  0  0  0  0
  9 13  1  0  0  0  0
 11 12  1  0  0  0  0
  3 14  1  0  0  0  0
  3 15  1  0  0  0  0
  4 16  1  0  0  0  0
  4 17  1  0  0  0  0
  5 18  1  0  0  0  0
  5 19  1  0  0  0  0
  6 20  1  0  0  0  0
  6 21  1  0  0  0  0
  7 22  1  0  0  0  0
  8 23  1  0  0  0  0
  8 24  1  0  0  0  0
  8 25  1  0  0  0  0
  9 26  1  0  0  0  0
 12 27  1  0  0  0  0
 13 28  1  0  0  0  0
 13 29  1  0  0  0  0
M  END
> <FRED Chemgauss4 score>
-8.275898

$$$$
C86313331	P135162295
  -OEChem-05122015313D

 32 31  0     1  0  0  0  0  0999 V2000
  123.8088  109.4117  110.0996 C   0  0  0  0  0  0  0  0  0  0  0  0
  126.4731  105.9435  108.0548 C   0  0  0  0  0  0  0  0  0  0  0  0
  125.6382  103.5887  107.7585 C   0  0  0  0  0  0  0  0  0  0  0  0
  122.7410  105.0588  107.3961 C   0  0  0  0  0  0  0  0  0  0  0  0
  123.1623  107.5810  106.1718 C   0  0  0  0  0  0  0  0  0  0  0  0
  124.1731  108.9427  108.7544 C   0  0  0  0  0  0  0  0  0  0  0  0
  123.7180  107.5082  108.5081 C   0  0  0  0  0  0  0  0  0  0  0  0
  125.2370  105.0365  108.0569 C   0  0  2  0  0  0  0  0  0  0  0  0
  124.1439  105.5998  107.1119 C   0  0  2  0  0  0  0  0  0  0  0  0
  123.5223  109.7838  111.1606 N   0  0  0  0  0  0  0  0  0  0  0  0
  128.2566  106.7235  109.4292 N   0  0  0  0  0  0  0  0  0  0  0  0
  127.1198  105.9562  109.2794 N   0  0  0  0  0  0  0  0  0  0  0  0
  124.0972  107.0640  107.1688 N   0  0  1  0  0  0  0  0  0  0  0  0
  126.8316  106.5728  107.0609 O   0  0  0  0  0  0  0  0  0  0  0  0
  126.0383  103.5071  106.7412 H   0  0  0  0  0  0  0  0  0  0  0  0
  126.4176  103.2298  108.4381 H   0  0  0  0  0  0  0  0  0  0  0  0
  124.7817  102.9116  107.8279 H   0  0  0  0  0  0  0  0  0  0  0  0
  122.4265  105.2932  108.4180 H   0  0  0  0  0  0  0  0  0  0  0  0
  122.0085  105.5130  106.7186 H   0  0  0  0  0  0  0  0  0  0  0  0
  122.6813  103.9735  107.2622 H   0  0  0  0  0  0  0  0  0  0  0  0
  123.4533  107.2441  105.1735 H   0  0  0  0  0  0  0  0  0  0  0  0
  123.1596  108.6743  106.1874 H   0  0  0  0  0  0  0  0  0  0  0  0
  122.1502  107.2250  106.3823 H   0  0  0  0  0  0  0  0  0  0  0  0
  125.2626  108.9933  108.6443 H   0  0  0  0  0  0  0  0  0  0  0  0
  123.7428  109.6131  108.0011 H   0  0  0  0  0  0  0  0  0  0  0  0
  124.1882  106.8437  109.2404 H   0  0  0  0  0  0  0  0  0  0  0  0
  122.6326  107.4171  108.6267 H   0  0  0  0  0  0  0  0  0  0  0  0
  124.8457  105.0538  109.0848 H   0  0  0  0  0  0  0  0  0  0  0  0
  124.3926  105.3307  106.0785 H   0  0  0  0  0  0  0  0  0  0  0  0
  128.2574  107.0664  110.3890 H   0  0  0  0  0  0  0  0  0  0  0  0
  128.1393  107.5449  108.8371 H   0  0  0  0  0  0  0  0  0  0  0  0
  126.7899  105.4271  110.0804 H   0  0  0  0  0  0  0  0  0  0  0  0
  1  6  1  0  0  0  0
  1 10  3  0  0  0  0
  2  8  1  0  0  0  0
  2 12  1  0  0  0  0
  2 14  2  0  0  0  0
  3  8  1  0  0  0  0
  4  9  1  0  0  0  0
  5 13  1  0  0  0  0
  6  7  1  0  0  0  0
  7 13  1  0  0  0  0
  8  9  1  0  0  0  0
  9 13  1  0  0  0  0
 11 12  1  0  0  0  0
  3 15  1  0  0  0  0
  3 16  1  0  0  0  0
  3 17  1  0  0  0  0
  4 18  1  0  0  0  0
  4 19  1  0  0  0  0
  4 20  1  0  0  0  0
  5 21  1  0  0  0  0
  5 22  1  0  0  0  0
  5 23  1  0  0  0  0
  6 24  1  0  0  0  0
  6 25  1  0  0  0  0
  7 26  1  0  0  0  0
  7 27  1  0  0  0  0
  8 28  1  0  0  0  0
  9 29  1  0  0  0  0
 11 30  1  0  0  0  0
 11 31  1  0  0  0  0
 12 32  1  0  0  0  0
M  END
> <FRED Chemgauss4 score>
-8.274622

$$$$
C53134864	P79655074
  -OEChem-05122015313D

 27 28  0     1  0  0  0  0  0999 V2000
  122.4797  104.8535  106.6786 C   0  0  0  0  0  0  0  0  0  0  0  0
  122.4991  107.2464  106.4375 C   0  0  0  0  0  0  0  0  0  0  0  0
  121.1102  104.8979  106.4734 C   0  0  0  0  0  0  0  0  0  0  0  0
  121.1286  107.1837  106.2429 C   0  0  0  0  0  0  0  0  0  0  0  0
  123.7167  107.4889  110.0886 C   0  0  0  0  0  0  0  0  0  0  0  0
  124.9156  108.7395  108.5218 C   0  0  0  0  0  0  0  0  0  0  0  0
  123.6631  109.7611  110.1202 C   0  0  0  0  0  0  0  0  0  0  0  0
  123.1801  106.0545  106.6588 C   0  0  0  0  0  0  0  0  0  0  0  0
  124.5623  107.4935  108.9981 C   0  0  0  0  0  0  0  0  0  0  0  0
  124.6553  106.0644  106.8747 C   0  0  0  0  0  0  0  0  0  0  0  0
  125.0724  106.2107  108.3638 C   0  0  1  0  0  0  0  0  0  0  0  0
  120.4141  106.0361  106.2553 N   0  0  0  0  0  0  0  0  0  0  0  0
  123.2461  108.6081  110.6770 N   0  0  0  0  0  0  0  0  0  0  0  0
  124.4828  109.8983  109.0605 N   0  0  0  0  0  0  0  0  0  0  0  0
  126.5320  106.1055  108.4941 N   0  0  0  0  0  0  0  0  0  0  0  0
  122.9814  103.9070  106.8495 H   0  0  0  0  0  0  0  0  0  0  0  0
  123.0174  108.1989  106.4160 H   0  0  0  0  0  0  0  0  0  0  0  0
  120.5178  103.9887  106.4805 H   0  0  0  0  0  0  0  0  0  0  0  0
  120.5514  108.0852  106.0663 H   0  0  0  0  0  0  0  0  0  0  0  0
  123.3804  106.5598  110.5383 H   0  0  0  0  0  0  0  0  0  0  0  0
  125.5761  108.8510  107.6676 H   0  0  0  0  0  0  0  0  0  0  0  0
  123.2993  110.6754  110.5727 H   0  0  0  0  0  0  0  0  0  0  0  0
  125.0905  106.9009  106.2976 H   0  0  0  0  0  0  0  0  0  0  0  0
  125.1185  105.1601  106.4398 H   0  0  0  0  0  0  0  0  0  0  0  0
  124.6538  105.3615  108.9190 H   0  0  0  0  0  0  0  0  0  0  0  0
  127.0075  105.4997  107.8676 H   0  0  0  0  0  0  0  0  0  0  0  0
  126.9484  106.4757  109.3160 H   0  0  0  0  0  0  0  0  0  0  0  0
  1  3  1  0  0  0  0
  1  8  2  0  0  0  0
  2  4  2  0  0  0  0
  2  8  1  0  0  0  0
  3 12  2  0  0  0  0
  4 12  1  0  0  0  0
  5  9  1  0  0  0  0
  5 13  2  0  0  0  0
  6  9  2  0  0  0  0
  6 14  1  0  0  0  0
  7 13  1  0  0  0  0
  7 14  2  0  0  0  0
  8 10  1  0  0  0  0
  9 11  1  0  0  0  0
 10 11  1  0  0  0  0
 11 15  1  0  0  0  0
  1 16  1  0  0  0  0
  2 17  1  0  0  0  0
  3 18  1  0  0  0  0
  4 19  1  0  0  0  0
  5 20  1  0  0  0  0
  6 21  1  0  0  0  0
  7 22  1  0  0  0  0
 10 23  1  0  0  0  0
 10 24  1  0  0  0  0
 11 25  1  0  0  0  0
 15 26  1  0  0  0  0
 15 27  1  0  0  0  0
M  END
> <FRED Chemgauss4 score>
-8.270566

$$$$
C61843867	P94755243
  -OEChem-05122015313D

 20 20  0     0  0  0  0  0  0999 V2000
  123.3750  106.6396  105.8360 C   0  0  0  0  0  0  0  0  0  0  0  0
  125.2388  107.2946  106.6071 C   0  0  0  0  0  0  0  0  0  0  0  0
  120.7885  105.0929  103.8064 C   0  0  0  0  0  0  0  0  0  0  0  0
  122.1442  105.8194  105.5833 C   0  0  0  0  0  0  0  0  0  0  0  0
  126.4827  107.3543  107.3717 C   0  0  0  0  0  0  0  0  0  0  0  0
  123.6403  107.8123  105.2276 N   0  5  0  0  0  0  0  0  0  0  0  0
  124.3470  106.2985  106.6926 N   0  0  0  0  0  0  0  0  0  0  0  0
  124.8470  108.2359  105.7261 N   0  0  0  0  0  0  0  0  0  0  0  0
  126.6040  108.5524  108.2680 N   0  3  0  0  0  0  0  0  0  0  0  0
  122.1016  105.4581  104.2094 O   0  0  0  0  0  0  0  0  0  0  0  0
  120.7935  104.8220  102.7478 H   0  0  0  0  0  0  0  0  0  0  0  0
  120.1081  105.9312  103.9758 H   0  0  0  0  0  0  0  0  0  0  0  0
  120.4608  104.2349  104.3982 H   0  0  0  0  0  0  0  0  0  0  0  0
  122.1484  104.9088  106.1921 H   0  0  0  0  0  0  0  0  0  0  0  0
  121.2417  106.3873  105.8335 H   0  0  0  0  0  0  0  0  0  0  0  0
  126.6231  106.4812  108.0427 H   0  0  0  0  0  0  0  0  0  0  0  0
  127.3869  107.3869  106.7286 H   0  0  0  0  0  0  0  0  0  0  0  0
  125.7097  108.7437  108.7183 H   0  0  0  0  0  0  0  0  0  0  0  0
  126.8811  109.3686  107.7234 H   0  0  0  0  0  0  0  0  0  0  0  0
  127.3061  108.3809  108.9870 H   0  0  0  0  0  0  0  0  0  0  0  0
  1  4  1  0  0  0  0
  1  6  1  0  0  0  0
  1  7  2  0  0  0  0
  2  5  1  0  0  0  0
  2  7  1  0  0  0  0
  2  8  2  0  0  0  0
  3 10  1  0  0  0  0
  4 10  1  0  0  0  0
  5  9  1  0  0  0  0
  6  8  1  0  0  0  0
  3 11  1  0  0  0  0
  3 12  1  0  0  0  0
  3 13  1  0  0  0  0
  4 14  1  0  0  0  0
  4 15  1  0  0  0  0
  5 16  1  0  0  0  0
  5 17  1  0  0  0  0
  9 18  1  0  0  0  0
  9 19  1  0  0  0  0
  9 20  1  0  0  0  0
M  CHG  2   6  -1   9   1
M  END
> <FRED Chemgauss4 score>
-8.269220

$$$$
C70588816	P108883946
  -OEChem-05122015313D

 24 25  0     1  0  0  0  0  0999 V2000
  127.7174  107.4352  107.4689 C   0  0  0  0  0  0  0  0  0  0  0  0
  125.8569  106.7871  106.7794 C   0  0  0  0  0  0  0  0  0  0  0  0
  122.2092  106.4957  105.6899 C   0  0  0  0  0  0  0  0  0  0  0  0
  120.7948  105.3913  107.4262 C   0  0  0  0  0  0  0  0  0  0  0  0
  121.9392  105.6040  108.3963 C   0  0  0  0  0  0  0  0  0  0  0  0
  123.3701  106.4827  106.6804 C   0  0  2  0  0  0  0  0  0  0  0  0
  124.7007  106.2814  105.9606 C   0  0  0  0  0  0  0  0  0  0  0  0
  127.0815  106.9823  106.3486 N   0  0  0  0  0  0  0  0  0  0  0  0
  125.7782  107.1121  108.0977 N   0  0  0  0  0  0  0  0  0  0  0  0
  126.9633  107.5325  108.5659 N   0  0  0  0  0  0  0  0  0  0  0  0
  120.9802  106.1052  106.1801 N   0  0  0  0  0  0  0  0  0  0  0  0
  123.1958  105.4215  107.6765 N   0  0  0  0  0  0  0  0  0  0  0  0
  122.3421  106.9259  104.5425 O   0  0  0  0  0  0  0  0  0  0  0  0
  128.7669  107.6990  107.4690 H   0  0  0  0  0  0  0  0  0  0  0  0
  120.6998  104.3303  107.1679 H   0  0  0  0  0  0  0  0  0  0  0  0
  119.8454  105.7179  107.8618 H   0  0  0  0  0  0  0  0  0  0  0  0
  121.8940  106.6031  108.8465 H   0  0  0  0  0  0  0  0  0  0  0  0
  121.8684  104.8777  109.2128 H   0  0  0  0  0  0  0  0  0  0  0  0
  123.3876  107.4613  107.1770 H   0  0  0  0  0  0  0  0  0  0  0  0
  124.6746  106.7961  104.9944 H   0  0  0  0  0  0  0  0  0  0  0  0
  124.8383  105.2181  105.7378 H   0  0  0  0  0  0  0  0  0  0  0  0
  127.1083  107.8210  109.5295 H   0  0  0  0  0  0  0  0  0  0  0  0
  120.1551  106.3322  105.6336 H   0  0  0  0  0  0  0  0  0  0  0  0
  123.9693  105.4541  108.3405 H   0  0  0  0  0  0  0  0  0  0  0  0
  1  8  2  0  0  0  0
  1 10  1  0  0  0  0
  2  7  1  0  0  0  0
  2  8  1  0  0  0  0
  2  9  2  0  0  0  0
  3  6  1  0  0  0  0
  3 11  1  0  0  0  0
  3 13  2  0  0  0  0
  4  5  1  0  0  0  0
  4 11  1  0  0  0  0
  5 12  1  0  0  0  0
  6  7  1  0  0  0  0
  6 12  1  0  0  0  0
  9 10  1  0  0  0  0
  1 14  1  0  0  0  0
  4 15  1  0  0  0  0
  4 16  1  0  0  0  0
  5 17  1  0  0  0  0
  5 18  1  0  0  0  0
  6 19  1  0  0  0  0
  7 20  1  0  0  0  0
  7 21  1  0  0  0  0
 10 22  1  0  0  0  0
 11 23  1  0  0  0  0
 12 24  1  0  0  0  0
M  END
> <FRED Chemgauss4 score>
-8.265009

$$$$
C82515433	P128953608
  -OEChem-05122015313D

 31 32  0     1  0  0  0  0  0999 V2000
  119.0462  106.6424  104.6098 C   0  0  0  0  0  0  0  0  0  0  0  0
  118.0291  106.5645  103.6151 C   0  0  0  0  0  0  0  0  0  0  0  0
  119.1675  105.4677  105.3190 C   0  0  0  0  0  0  0  0  0  0  0  0
  117.4117  105.3330  103.6018 C   0  0  0  0  0  0  0  0  0  0  0  0
  124.0170  107.7241  106.2945 C   0  0  0  0  0  0  0  0  0  0  0  0
  124.3612  106.2942  105.9287 C   0  0  0  0  0  0  0  0  0  0  0  0
  123.8133  105.2401  106.8810 C   0  0  0  0  0  0  0  0  0  0  0  0
  122.2137  106.8823  107.8335 C   0  0  0  0  0  0  0  0  0  0  0  0
  122.3488  105.4982  107.2161 C   0  0  1  0  0  0  0  0  0  0  0  0
  119.9359  103.7248  106.9837 C   0  0  0  0  0  0  0  0  0  0  0  0
  120.1206  105.1436  106.4491 C   0  0  1  0  0  0  0  0  0  0  0  0
  122.9120  107.9174  107.0919 N   0  0  0  0  0  0  0  0  0  0  0  0
  121.5040  105.3524  106.0542 N   0  0  0  0  0  0  0  0  0  0  0  0
  124.6623  108.6626  105.8233 O   0  0  0  0  0  0  0  0  0  0  0  0
  118.0580  104.2775  104.7852 S   0  0  0  0  0  0  0  0  0  0  0  0
  116.1438  104.8044  102.5770 Cl  0  0  0  0  0  0  0  0  0  0  0  0
  119.6560  107.5181  104.7926 H   0  0  0  0  0  0  0  0  0  0  0  0
  117.7683  107.3748  102.9459 H   0  0  0  0  0  0  0  0  0  0  0  0
  123.9865  106.1199  104.9133 H   0  0  0  0  0  0  0  0  0  0  0  0
  125.4533  106.2074  105.8901 H   0  0  0  0  0  0  0  0  0  0  0  0
  123.9424  104.2428  106.4436 H   0  0  0  0  0  0  0  0  0  0  0  0
  124.3999  105.2541  107.8089 H   0  0  0  0  0  0  0  0  0  0  0  0
  121.1662  107.1885  107.9302 H   0  0  0  0  0  0  0  0  0  0  0  0
  122.6456  106.8848  108.8413 H   0  0  0  0  0  0  0  0  0  0  0  0
  122.0242  104.7525  107.9556 H   0  0  0  0  0  0  0  0  0  0  0  0
  120.1000  102.9818  106.1956 H   0  0  0  0  0  0  0  0  0  0  0  0
  120.6469  103.5238  107.7929 H   0  0  0  0  0  0  0  0  0  0  0  0
  118.9311  103.5681  107.3919 H   0  0  0  0  0  0  0  0  0  0  0  0
  119.9446  105.8394  107.2786 H   0  0  0  0  0  0  0  0  0  0  0  0
  122.5544  108.8646  107.1681 H   0  0  0  0  0  0  0  0  0  0  0  0
  121.8279  104.5553  105.5120 H   0  0  0  0  0  0  0  0  0  0  0  0
  1  2  1  0  0  0  0
  1  3  2  0  0  0  0
  2  4  2  0  0  0  0
  3 11  1  0  0  0  0
  3 15  1  0  0  0  0
  4 15  1  0  0  0  0
  4 16  1  0  0  0  0
  5  6  1  0  0  0  0
  5 12  1  0  0  0  0
  5 14  2  0  0  0  0
  6  7  1  0  0  0  0
  7  9  1  0  0  0  0
  8  9  1  0  0  0  0
  8 12  1  0  0  0  0
  9 13  1  0  0  0  0
 10 11  1  0  0  0  0
 11 13  1  0  0  0  0
  1 17  1  0  0  0  0
  2 18  1  0  0  0  0
  6 19  1  0  0  0  0
  6 20  1  0  0  0  0
  7 21  1  0  0  0  0
  7 22  1  0  0  0  0
  8 23  1  0  0  0  0
  8 24  1  0  0  0  0
  9 25  1  0  0  0  0
 10 26  1  0  0  0  0
 10 27  1  0  0  0  0
 10 28  1  0  0  0  0
 11 29  1  0  0  0  0
 12 30  1  0  0  0  0
 13 31  1  0  0  0  0
M  END
> <FRED Chemgauss4 score>
-8.262586

$$$$
C86491376	P135426479
  -OEChem-05122015313D

 23 24  0     0  0  0  0  0  0999 V2000
  122.2839  106.8270  104.6741 C   0  0  0  0  0  0  0  0  0  0  0  0
  125.0295  107.3945  107.9906 C   0  0  0  0  0  0  0  0  0  0  0  0
  121.1968  105.0259  104.3504 C   0  0  0  0  0  0  0  0  0  0  0  0
  122.2152  106.2134  105.9026 C   0  0  0  0  0  0  0  0  0  0  0  0
  125.8995  108.2992  107.4360 C   0  0  0  0  0  0  0  0  0  0  0  0
  121.1686  104.0549  106.6551 C   0  0  0  0  0  0  0  0  0  0  0  0
  122.7347  106.6068  107.2236 C   0  0  0  0  0  0  0  0  0  0  0  0
  121.6478  106.0829  103.7122 N   0  0  0  0  0  0  0  0  0  0  0  0
  125.3614  108.8094  106.2873 N   0  0  0  0  0  0  0  0  0  0  0  0
  124.1717  108.2456  106.1084 N   0  0  0  0  0  0  0  0  0  0  0  0
  123.9746  107.3977  107.1309 N   0  0  0  0  0  0  0  0  0  0  0  0
  121.5155  105.0611  105.6795 N   0  0  0  0  0  0  0  0  0  0  0  0
  127.1077  108.6520  107.9191 N   0  0  0  0  0  0  0  0  0  0  0  0
  122.7585  107.7668  104.4308 H   0  0  0  0  0  0  0  0  0  0  0  0
  125.0653  106.7762  108.8768 H   0  0  0  0  0  0  0  0  0  0  0  0
  120.6390  104.2117  103.9081 H   0  0  0  0  0  0  0  0  0  0  0  0
  121.9768  103.3194  106.6830 H   0  0  0  0  0  0  0  0  0  0  0  0
  121.0454  104.5249  107.6348 H   0  0  0  0  0  0  0  0  0  0  0  0
  120.2274  103.5796  106.3650 H   0  0  0  0  0  0  0  0  0  0  0  0
  122.0112  107.2137  107.8045 H   0  0  0  0  0  0  0  0  0  0  0  0
  122.9596  105.7358  107.8718 H   0  0  0  0  0  0  0  0  0  0  0  0
  127.4719  108.2846  108.8117 H   0  0  0  0  0  0  0  0  0  0  0  0
  127.6887  109.3773  107.4708 H   0  0  0  0  0  0  0  0  0  0  0  0
  1  4  2  0  0  0  0
  1  8  1  0  0  0  0
  2  5  2  0  0  0  0
  2 11  1  0  0  0  0
  3  8  2  0  0  0  0
  3 12  1  0  0  0  0
  4  7  1  0  0  0  0
  4 12  1  0  0  0  0
  5  9  1  0  0  0  0
  5 13  1  0  0  0  0
  6 12  1  0  0  0  0
  7 11  1  0  0  0  0
  9 10  2  0  0  0  0
 10 11  1  0  0  0  0
  1 14  1  0  0  0  0
  2 15  1  0  0  0  0
  3 16  1  0  0  0  0
  6 17  1  0  0  0  0
  6 18  1  0  0  0  0
  6 19  1  0  0  0  0
  7 20  1  0  0  0  0
  7 21  1  0  0  0  0
 13 22  1  0  0  0  0
 13 23  1  0  0  0  0
M  END
> <FRED Chemgauss4 score>
-8.252178

$$$$
C26895734	P39655131
  -OEChem-05122015313D

 23 23  0     1  0  0  0  0  0999 V2000
  125.1348  106.2839  107.2745 C   0  0  0  0  0  0  0  0  0  0  0  0
  124.9078  106.9952  108.4474 C   0  0  0  0  0  0  0  0  0  0  0  0
  124.7455  106.8645  106.0782 C   0  0  0  0  0  0  0  0  0  0  0  0
  123.9550  108.7406  107.1427 C   0  0  0  0  0  0  0  0  0  0  0  0
  124.3070  108.2478  108.3890 C   0  0  0  0  0  0  0  0  0  0  0  0
  123.1108  108.3427  110.6429 C   0  0  0  0  0  0  0  0  0  0  0  0
  123.2452  108.8646  112.0697 C   0  0  0  0  0  0  0  0  0  0  0  0
  124.0469  109.0478  109.6482 C   0  0  2  0  0  0  0  0  0  0  0  0
  124.1593  108.0788  105.9817 N   0  0  0  0  0  0  0  0  0  0  0  0
  123.5288  110.3569  109.3130 N   0  0  0  0  0  0  0  0  0  0  0  0
  122.3566  108.1365  112.9075 O   0  0  0  0  0  0  0  0  0  0  0  0
  125.6018  105.3059  107.2960 H   0  0  0  0  0  0  0  0  0  0  0  0
  125.2022  106.5664  109.4014 H   0  0  0  0  0  0  0  0  0  0  0  0
  124.9003  106.3498  105.1355 H   0  0  0  0  0  0  0  0  0  0  0  0
  123.4831  109.7123  107.0347 H   0  0  0  0  0  0  0  0  0  0  0  0
  122.0688  108.4759  110.3203 H   0  0  0  0  0  0  0  0  0  0  0  0
  123.2674  107.2559  110.6360 H   0  0  0  0  0  0  0  0  0  0  0  0
  124.2616  108.7290  112.4511 H   0  0  0  0  0  0  0  0  0  0  0  0
  122.9813  109.9255  112.1232 H   0  0  0  0  0  0  0  0  0  0  0  0
  124.9984  109.2439  110.1582 H   0  0  0  0  0  0  0  0  0  0  0  0
  123.8561  110.8056  108.4776 H   0  0  0  0  0  0  0  0  0  0  0  0
  123.0211  110.8677  110.0115 H   0  0  0  0  0  0  0  0  0  0  0  0
  122.4653  108.4905  113.8048 H   0  0  0  0  0  0  0  0  0  0  0  0
  1  2  1  0  0  0  0
  1  3  2  0  0  0  0
  2  5  2  0  0  0  0
  3  9  1  0  0  0  0
  4  5  1  0  0  0  0
  4  9  2  0  0  0  0
  5  8  1  0  0  0  0
  6  7  1  0  0  0  0
  6  8  1  0  0  0  0
  7 11  1  0  0  0  0
  8 10  1  0  0  0  0
  1 12  1  0  0  0  0
  2 13  1  0  0  0  0
  3 14  1  0  0  0  0
  4 15  1  0  0  0  0
  6 16  1  0  0  0  0
  6 17  1  0  0  0  0
  7 18  1  0  0  0  0
  7 19  1  0  0  0  0
  8 20  1  0  0  0  0
 10 21  1  0  0  0  0
 10 22  1  0  0  0  0
 11 23  1  0  0  0  0
M  END
> <FRED Chemgauss4 score>
-8.251210

$$$$
C54435940	P81924864
  -OEChem-05122015313D

 31 31  0     1  0  0  0  0  0999 V2000
  125.4361  107.8223  107.1697 C   0  0  0  0  0  0  0  0  0  0  0  0
  124.2986  108.9107  108.5616 C   0  0  0  0  0  0  0  0  0  0  0  0
  120.4774  103.7455  106.0880 C   0  0  0  0  0  0  0  0  0  0  0  0
  123.6158  108.3407  110.9322 C   0  0  0  0  0  0  0  0  0  0  0  0
  125.9100  106.5996  106.4371 C   0  0  0  0  0  0  0  0  0  0  0  0
  121.4605  104.8846  105.8866 C   0  0  0  0  0  0  0  0  0  0  0  0
  125.0209  105.3833  106.6790 C   0  0  0  0  0  0  0  0  0  0  0  0
  122.8447  104.5370  106.4127 C   0  0  0  0  0  0  0  0  0  0  0  0
  123.3086  109.1096  109.6275 C   0  0  1  0  0  0  0  0  0  0  0  0
  125.8025  109.0751  107.0323 N   0  0  0  0  0  0  0  0  0  0  0  0
  125.0543  109.7911  107.9480 N   0  0  0  0  0  0  0  0  0  0  0  0
  123.1149  110.5144  109.9830 N   0  0  0  0  0  0  0  0  0  0  0  0
  124.4829  107.6353  108.1232 O   0  0  0  0  0  0  0  0  0  0  0  0
  123.7068  105.6474  106.2060 O   0  0  0  0  0  0  0  0  0  0  0  0
  120.8274  102.8336  105.5937 H   0  0  0  0  0  0  0  0  0  0  0  0
  120.3595  103.5297  107.1545 H   0  0  0  0  0  0  0  0  0  0  0  0
  119.4932  104.0005  105.6822 H   0  0  0  0  0  0  0  0  0  0  0  0
  124.6049  108.6190  111.3121 H   0  0  0  0  0  0  0  0  0  0  0  0
  122.8797  108.5505  111.7164 H   0  0  0  0  0  0  0  0  0  0  0  0
  123.6099  107.2574  110.7669 H   0  0  0  0  0  0  0  0  0  0  0  0
  125.9590  106.8119  105.3614 H   0  0  0  0  0  0  0  0  0  0  0  0
  126.9327  106.3637  106.7574 H   0  0  0  0  0  0  0  0  0  0  0  0
  121.0922  105.7873  106.3885 H   0  0  0  0  0  0  0  0  0  0  0  0
  121.5246  105.1374  104.8215 H   0  0  0  0  0  0  0  0  0  0  0  0
  125.4103  104.5238  106.1238 H   0  0  0  0  0  0  0  0  0  0  0  0
  124.9680  105.1217  107.7409 H   0  0  0  0  0  0  0  0  0  0  0  0
  122.8115  104.3164  107.4845 H   0  0  0  0  0  0  0  0  0  0  0  0
  123.2578  103.6721  105.8839 H   0  0  0  0  0  0  0  0  0  0  0  0
  122.2968  108.7753  109.3077 H   0  0  0  0  0  0  0  0  0  0  0  0
  122.7706  110.7227  110.8943 H   0  0  0  0  0  0  0  0  0  0  0  0
  123.1363  111.1890  109.2503 H   0  0  0  0  0  0  0  0  0  0  0  0
  1  5  1  0  0  0  0
  1 10  2  0  0  0  0
  1 13  1  0  0  0  0
  2  9  1  0  0  0  0
  2 11  2  0  0  0  0
  2 13  1  0  0  0  0
  3  6  1  0  0  0  0
  4  9  1  0  0  0  0
  5  7  1  0  0  0  0
  6  8  1  0  0  0  0
  7 14  1  0  0  0  0
  8 14  1  0  0  0  0
  9 12  1  0  0  0  0
 10 11  1  0  0  0  0
  3 15  1  0  0  0  0
  3 16  1  0  0  0  0
  3 17  1  0  0  0  0
  4 18  1  0  0  0  0
  4 19  1  0  0  0  0
  4 20  1  0  0  0  0
  5 21  1  0  0  0  0
  5 22  1  0  0  0  0
  6 23  1  0  0  0  0
  6 24  1  0  0  0  0
  7 25  1  0  0  0  0
  7 26  1  0  0  0  0
  8 27  1  0  0  0  0
  8 28  1  0  0  0  0
  9 29  1  0  0  0  0
 12 30  1  0  0  0  0
 12 31  1  0  0  0  0
M  END
> <FRED Chemgauss4 score>
-8.244248

$$$$
C35202844	P52236352
  -OEChem-05122015313D

 25 25  0     0  0  0  0  0  0999 V2000
  118.4904  104.5436  103.2765 C   0  0  0  0  0  0  0  0  0  0  0  0
  120.4342  104.4016  104.0240 C   0  0  0  0  0  0  0  0  0  0  0  0
  120.6307  105.0347  107.0887 C   0  0  0  0  0  0  0  0  0  0  0  0
  119.8055  103.9467  106.4355 C   0  0  0  0  0  0  0  0  0  0  0  0
  124.1520  105.3784  107.5268 C   0  0  0  0  0  0  0  0  0  0  0  0
  122.8088  105.3621  108.2444 C   0  0  0  0  0  0  0  0  0  0  0  0
  124.0583  105.9321  106.1102 C   0  0  0  0  0  0  0  0  0  0  0  0
  119.7995  104.6158  102.8949 N   0  0  0  0  0  0  0  0  0  0  0  0
  118.2751  104.2983  104.5707 N   0  0  0  0  0  0  0  0  0  0  0  0
  119.5343  104.2119  105.0260 N   0  0  0  0  0  0  0  0  0  0  0  0
  121.8370  104.5411  107.5753 N   0  0  0  0  0  0  0  0  0  0  0  0
  120.2645  106.2038  107.1726 O   0  0  0  0  0  0  0  0  0  0  0  0
  123.5889  107.2723  106.1730 O   0  0  0  0  0  0  0  0  0  0  0  0
  117.6671  104.6721  102.5899 H   0  0  0  0  0  0  0  0  0  0  0  0
  121.5051  104.3717  104.1669 H   0  0  0  0  0  0  0  0  0  0  0  0
  118.8453  103.8479  106.9543 H   0  0  0  0  0  0  0  0  0  0  0  0
  120.3318  102.9881  106.5052 H   0  0  0  0  0  0  0  0  0  0  0  0
  124.8615  105.9879  108.1003 H   0  0  0  0  0  0  0  0  0  0  0  0
  124.5815  104.3691  107.4948 H   0  0  0  0  0  0  0  0  0  0  0  0
  122.9268  104.9576  109.2545 H   0  0  0  0  0  0  0  0  0  0  0  0
  122.3941  106.3719  108.3265 H   0  0  0  0  0  0  0  0  0  0  0  0
  125.0361  105.9323  105.6186 H   0  0  0  0  0  0  0  0  0  0  0  0
  123.3564  105.3461  105.5083 H   0  0  0  0  0  0  0  0  0  0  0  0
  122.0304  103.5445  107.4850 H   0  0  0  0  0  0  0  0  0  0  0  0
  123.5404  107.5951  105.2587 H   0  0  0  0  0  0  0  0  0  0  0  0
  1  8  1  0  0  0  0
  1  9  2  0  0  0  0
  2  8  2  0  0  0  0
  2 10  1  0  0  0  0
  3  4  1  0  0  0  0
  3 11  1  0  0  0  0
  3 12  2  0  0  0  0
  4 10  1  0  0  0  0
  5  6  1  0  0  0  0
  5  7  1  0  0  0  0
  6 11  1  0  0  0  0
  7 13  1  0  0  0  0
  9 10  1  0  0  0  0
  1 14  1  0  0  0  0
  2 15  1  0  0  0  0
  4 16  1  0  0  0  0
  4 17  1  0  0  0  0
  5 18  1  0  0  0  0
  5 19  1  0  0  0  0
  6 20  1  0  0  0  0
  6 21  1  0  0  0  0
  7 22  1  0  0  0  0
  7 23  1  0  0  0  0
 11 24  1  0  0  0  0
 13 25  1  0  0  0  0
M  END
> <FRED Chemgauss4 score>
-8.243858

$$$$
C94238416	P147693620
  -OEChem-05122015313D

 34 34  0     1  0  0  0  0  0999 V2000
  125.6795  107.3779  107.5875 C   0  0  0  0  0  0  0  0  0  0  0  0
  122.1131  106.9020  106.5077 C   0  0  0  0  0  0  0  0  0  0  0  0
  124.8170  104.3786  107.0433 C   0  0  0  0  0  0  0  0  0  0  0  0
  124.0541  107.3577  109.4802 C   0  0  0  0  0  0  0  0  0  0  0  0
  123.2522  106.3395  108.7023 C   0  0  0  0  0  0  0  0  0  0  0  0
  124.5784  106.8470  106.6637 C   0  0  1  0  0  0  0  0  0  0  0  0
  120.7164  105.2441  107.7019 C   0  0  0  0  0  0  0  0  0  0  0  0
  125.0169  105.5070  106.0703 C   0  0  0  0  0  0  0  0  0  0  0  0
  120.7850  106.6788  107.1855 C   0  0  2  0  0  0  0  0  0  0  0  0
  119.6540  106.9733  106.2119 C   0  0  0  0  0  0  0  0  0  0  0  0
  125.3803  107.5096  108.9242 N   0  0  0  0  0  0  0  0  0  0  0  0
  123.2567  106.7241  107.2909 N   0  0  0  0  0  0  0  0  0  0  0  0
  120.7318  107.6115  108.3070 N   0  0  0  0  0  0  0  0  0  0  0  0
  126.8061  107.6202  107.1469 O   0  0  0  0  0  0  0  0  0  0  0  0
  122.1363  107.2269  105.3174 O   0  0  0  0  0  0  0  0  0  0  0  0
  125.6247  103.9756  107.8667 O   0  0  0  0  0  0  0  0  0  0  0  0
  123.5773  103.8491  106.8802 O   0  0  0  0  0  0  0  0  0  0  0  0
  119.7208  106.1687  105.1265 F   0  0  0  0  0  0  0  0  0  0  0  0
  119.6869  108.2512  105.7713 F   0  0  0  0  0  0  0  0  0  0  0  0
  118.4459  106.7735  106.7866 F   0  0  0  0  0  0  0  0  0  0  0  0
  123.5769  108.3430  109.4457 H   0  0  0  0  0  0  0  0  0  0  0  0
  124.1595  107.0599  110.5276 H   0  0  0  0  0  0  0  0  0  0  0  0
  123.7050  105.3436  108.7738 H   0  0  0  0  0  0  0  0  0  0  0  0
  122.2442  106.2693  109.1137 H   0  0  0  0  0  0  0  0  0  0  0  0
  124.4944  107.5719  105.8444 H   0  0  0  0  0  0  0  0  0  0  0  0
  119.7597  105.0506  108.2012 H   0  0  0  0  0  0  0  0  0  0  0  0
  120.8209  104.5209  106.8851 H   0  0  0  0  0  0  0  0  0  0  0  0
  121.5060  105.0381  108.4349 H   0  0  0  0  0  0  0  0  0  0  0  0
  124.4280  105.3101  105.1727 H   0  0  0  0  0  0  0  0  0  0  0  0
  126.0751  105.5672  105.8097 H   0  0  0  0  0  0  0  0  0  0  0  0
  126.1401  107.7276  109.5616 H   0  0  0  0  0  0  0  0  0  0  0  0
  120.4426  108.5485  108.1254 H   0  0  0  0  0  0  0  0  0  0  0  0
  121.1733  107.3452  109.1607 H   0  0  0  0  0  0  0  0  0  0  0  0
  123.4117  103.1080  107.5013 H   0  0  0  0  0  0  0  0  0  0  0  0
  1  6  1  0  0  0  0
  1 11  1  0  0  0  0
  1 14  2  0  0  0  0
  2  9  1  0  0  0  0
  2 12  1  0  0  0  0
  2 15  2  0  0  0  0
  3  8  1  0  0  0  0
  3 16  2  0  0  0  0
  3 17  1  0  0  0  0
  4  5  1  0  0  0  0
  4 11  1  0  0  0  0
  5 12  1  0  0  0  0
  6  8  1  0  0  0  0
  6 12  1  0  0  0  0
  7  9  1  0  0  0  0
  9 10  1  0  0  0  0
  9 13  1  0  0  0  0
 10 18  1  0  0  0  0
 10 19  1  0  0  0  0
 10 20  1  0  0  0  0
  4 21  1  0  0  0  0
  4 22  1  0  0  0  0
  5 23  1  0  0  0  0
  5 24  1  0  0  0  0
  6 25  1  0  0  0  0
  7 26  1  0  0  0  0
  7 27  1  0  0  0  0
  7 28  1  0  0  0  0
  8 29  1  0  0  0  0
  8 30  1  0  0  0  0
 11 31  1  0  0  0  0
 13 32  1  0  0  0  0
 13 33  1  0  0  0  0
 17 34  1  0  0  0  0
M  END
> <FRED Chemgauss4 score>
-8.241441

$$$$
C82263403	P128500246
  -OEChem-05122015313D

 31 31  0     1  0  0  0  0  0999 V2000
  122.5093  105.2220  106.7727 C   0  0  0  0  0  0  0  0  0  0  0  0
  116.9014  103.5333  104.8821 C   0  0  0  0  0  0  0  0  0  0  0  0
  117.6736  103.8440  106.1396 C   0  0  0  0  0  0  0  0  0  0  0  0
  117.7299  104.2324  103.8253 C   0  0  0  0  0  0  0  0  0  0  0  0
  119.1067  103.7553  105.6442 C   0  0  2  0  0  0  0  0  0  0  0  0
  121.5109  104.4274  105.9502 C   0  0  0  0  0  0  0  0  0  0  0  0
  120.0811  104.5828  106.4598 C   0  0  0  0  0  0  0  0  0  0  0  0
  125.4080  104.7554  108.2969 C   0  0  0  0  0  0  0  0  0  0  0  0
  123.9816  105.0072  108.7561 C   0  0  0  0  0  0  0  0  0  0  0  0
  126.3765  105.2665  109.2293 N   0  0  0  0  0  0  0  0  0  0  0  0
  123.0126  104.4749  107.8277 N   0  0  0  0  0  0  0  0  0  0  0  0
  122.8213  106.3823  106.5184 O   0  0  0  0  0  0  0  0  0  0  0  0
  119.0899  104.2210  104.2843 O   0  0  0  0  0  0  0  0  0  0  0  0
  116.9016  102.4515  104.7030 H   0  0  0  0  0  0  0  0  0  0  0  0
  115.8635  103.8753  104.9064 H   0  0  0  0  0  0  0  0  0  0  0  0
  117.4349  104.8603  106.4759 H   0  0  0  0  0  0  0  0  0  0  0  0
  117.4638  103.1527  106.9604 H   0  0  0  0  0  0  0  0  0  0  0  0
  117.6658  103.7426  102.8496 H   0  0  0  0  0  0  0  0  0  0  0  0
  117.4261  105.2784  103.7119 H   0  0  0  0  0  0  0  0  0  0  0  0
  119.4359  102.7091  105.6231 H   0  0  0  0  0  0  0  0  0  0  0  0
  121.5765  104.7676  104.9097 H   0  0  0  0  0  0  0  0  0  0  0  0
  121.8064  103.3718  105.9792 H   0  0  0  0  0  0  0  0  0  0  0  0
  119.7824  105.6372  106.4194 H   0  0  0  0  0  0  0  0  0  0  0  0
  120.0233  104.2771  107.5113 H   0  0  0  0  0  0  0  0  0  0  0  0
  125.6052  105.2272  107.3290 H   0  0  0  0  0  0  0  0  0  0  0  0
  125.5885  103.6800  108.2035 H   0  0  0  0  0  0  0  0  0  0  0  0
  123.8029  104.5220  109.7205 H   0  0  0  0  0  0  0  0  0  0  0  0
  123.7805  106.0780  108.8637 H   0  0  0  0  0  0  0  0  0  0  0  0
  126.2049  106.1508  109.6805 H   0  0  0  0  0  0  0  0  0  0  0  0
  127.2917  104.8466  109.2662 H   0  0  0  0  0  0  0  0  0  0  0  0
  122.6882  103.5202  107.9512 H   0  0  0  0  0  0  0  0  0  0  0  0
  1  6  1  0  0  0  0
  1 11  1  0  0  0  0
  1 12  2  0  0  0  0
  2  3  1  0  0  0  0
  2  4  1  0  0  0  0
  3  5  1  0  0  0  0
  4 13  1  0  0  0  0
  5  7  1  0  0  0  0
  5 13  1  0  0  0  0
  6  7  1  0  0  0  0
  8  9  1  0  0  0  0
  8 10  1  0  0  0  0
  9 11  1  0  0  0  0
  2 14  1  0  0  0  0
  2 15  1  0  0  0  0
  3 16  1  0  0  0  0
  3 17  1  0  0  0  0
  4 18  1  0  0  0  0
  4 19  1  0  0  0  0
  5 20  1  0  0  0  0
  6 21  1  0  0  0  0
  6 22  1  0  0  0  0
  7 23  1  0  0  0  0
  7 24  1  0  0  0  0
  8 25  1  0  0  0  0
  8 26  1  0  0  0  0
  9 27  1  0  0  0  0
  9 28  1  0  0  0  0
 10 29  1  0  0  0  0
 10 30  1  0  0  0  0
 11 31  1  0  0  0  0
M  END
> <FRED Chemgauss4 score>
-8.240234

$$$$
C71372386	P110391236
  -OEChem-05122015313D

 20 20  0     0  0  0  0  0  0999 V2000
  124.6834  107.5687  107.1330 C   0  0  0  0  0  0  0  0  0  0  0  0
  124.7285  105.4068  106.9499 C   0  0  0  0  0  0  0  0  0  0  0  0
  124.9238  108.9238  107.6618 C   0  0  0  0  0  0  0  0  0  0  0  0
  125.9537  106.3916  108.9497 C   0  0  0  0  0  0  0  0  0  0  0  0
  127.4329  106.1251  108.7041 C   0  0  0  0  0  0  0  0  0  0  0  0
  124.0060  107.2498  106.0533 N   0  0  0  0  0  0  0  0  0  0  0  0
  124.0347  105.8744  105.9368 N   0  0  0  0  0  0  0  0  0  0  0  0
  125.1562  106.4389  107.7288 N   0  0  0  0  0  0  0  0  0  0  0  0
  128.1600  106.0331  109.9939 N   0  3  0  0  0  0  0  0  0  0  0  0
  125.0539  103.7710  107.2598 S   0  5  0  0  0  0  0  0  0  0  0  0
  124.1285  109.2250  108.3640 H   0  0  0  0  0  0  0  0  0  0  0  0
  125.8867  108.9962  108.1972 H   0  0  0  0  0  0  0  0  0  0  0  0
  124.9654  109.6814  106.8596 H   0  0  0  0  0  0  0  0  0  0  0  0
  125.5301  105.5933  109.5712 H   0  0  0  0  0  0  0  0  0  0  0  0
  125.8045  107.3310  109.4953 H   0  0  0  0  0  0  0  0  0  0  0  0
  127.5764  105.1648  108.2002 H   0  0  0  0  0  0  0  0  0  0  0  0
  127.9157  106.9166  108.1235 H   0  0  0  0  0  0  0  0  0  0  0  0
  129.0329  106.5706  109.9623 H   0  0  0  0  0  0  0  0  0  0  0  0
  128.3963  105.0592  110.2127 H   0  0  0  0  0  0  0  0  0  0  0  0
  127.5901  106.4007  110.7634 H   0  0  0  0  0  0  0  0  0  0  0  0
  1  3  1  0  0  0  0
  1  6  2  0  0  0  0
  1  8  1  0  0  0  0
  2  7  2  0  0  0  0
  2  8  1  0  0  0  0
  2 10  1  0  0  0  0
  4  5  1  0  0  0  0
  4  8  1  0  0  0  0
  5  9  1  0  0  0  0
  6  7  1  0  0  0  0
  3 11  1  0  0  0  0
  3 12  1  0  0  0  0
  3 13  1  0  0  0  0
  4 14  1  0  0  0  0
  4 15  1  0  0  0  0
  5 16  1  0  0  0  0
  5 17  1  0  0  0  0
  9 18  1  0  0  0  0
  9 19  1  0  0  0  0
  9 20  1  0  0  0  0
M  CHG  2   9   1  10  -1
M  END
> <FRED Chemgauss4 score>
-8.233274

$$$$
C51925824	P77777539
  -OEChem-05122015313D

 36 37  0     1  0  0  0  0  0999 V2000
  123.4831  104.8002  107.1849 C   0  0  0  0  0  0  0  0  0  0  0  0
  123.9039  106.0638  107.5992 C   0  0  0  0  0  0  0  0  0  0  0  0
  122.1456  104.5846  106.8527 C   0  0  0  0  0  0  0  0  0  0  0  0
  122.9872  107.1119  107.6816 C   0  0  0  0  0  0  0  0  0  0  0  0
  120.0899  106.8146  104.4658 C   0  0  0  0  0  0  0  0  0  0  0  0
  121.2289  105.6327  106.9351 C   0  0  0  0  0  0  0  0  0  0  0  0
  121.6496  106.8964  107.3495 C   0  0  0  0  0  0  0  0  0  0  0  0
  118.1575  107.6740  104.2259 C   0  0  0  0  0  0  0  0  0  0  0  0
  118.0671  106.8710  105.3384 C   0  0  0  0  0  0  0  0  0  0  0  0
  117.1114  108.5051  103.6093 C   0  0  0  0  0  0  0  0  0  0  0  0
  116.9484  106.5801  106.2527 C   0  0  0  0  0  0  0  0  0  0  0  0
  117.9640  103.5428  106.3355 C   0  0  0  0  0  0  0  0  0  0  0  0
  119.7719  105.3538  106.5641 C   0  0  2  0  0  0  0  0  0  0  0  0
  119.4627  103.8564  106.2400 C   0  0  2  0  0  0  0  0  0  0  0  0
  119.4191  107.6343  103.6872 N   0  0  0  0  0  0  0  0  0  0  0  0
  119.3126  106.3268  105.4792 N   0  0  0  0  0  0  0  0  0  0  0  0
  119.8863  103.5261  104.8716 N   0  0  0  0  0  0  0  0  0  0  0  0
  120.5445  108.2173  107.4634 Cl  0  0  0  0  0  0  0  0  0  0  0  0
  124.1973  103.9843  107.1200 H   0  0  0  0  0  0  0  0  0  0  0  0
  124.9456  106.2316  107.8566 H   0  0  0  0  0  0  0  0  0  0  0  0
  121.8283  103.5962  106.5306 H   0  0  0  0  0  0  0  0  0  0  0  0
  123.3315  108.0909  108.0051 H   0  0  0  0  0  0  0  0  0  0  0  0
  121.1289  106.5391  104.3468 H   0  0  0  0  0  0  0  0  0  0  0  0
  117.1045  109.5237  104.0349 H   0  0  0  0  0  0  0  0  0  0  0  0
  117.2451  108.6036  102.5167 H   0  0  0  0  0  0  0  0  0  0  0  0
  116.1012  108.0797  103.7514 H   0  0  0  0  0  0  0  0  0  0  0  0
  116.3655  105.7099  105.9067 H   0  0  0  0  0  0  0  0  0  0  0  0
  117.2951  106.3625  107.2783 H   0  0  0  0  0  0  0  0  0  0  0  0
  116.2525  107.4329  106.3431 H   0  0  0  0  0  0  0  0  0  0  0  0
  117.3769  104.1812  105.6683 H   0  0  0  0  0  0  0  0  0  0  0  0
  117.7601  102.5061  106.0425 H   0  0  0  0  0  0  0  0  0  0  0  0
  117.5888  103.6833  107.3556 H   0  0  0  0  0  0  0  0  0  0  0  0
  119.1726  105.5754  107.4615 H   0  0  0  0  0  0  0  0  0  0  0  0
  119.9944  103.1886  106.9272 H   0  0  0  0  0  0  0  0  0  0  0  0
  119.4306  102.7692  104.4197 H   0  0  0  0  0  0  0  0  0  0  0  0
  120.7307  103.9304  104.5421 H   0  0  0  0  0  0  0  0  0  0  0  0
  1  2  1  0  0  0  0
  1  3  2  0  0  0  0
  2  4  2  0  0  0  0
  3  6  1  0  0  0  0
  4  7  1  0  0  0  0
  5 15  2  0  0  0  0
  5 16  1  0  0  0  0
  6  7  2  0  0  0  0
  6 13  1  0  0  0  0
  7 18  1  0  0  0  0
  8  9  2  0  0  0  0
  8 10  1  0  0  0  0
  8 15  1  0  0  0  0
  9 11  1  0  0  0  0
  9 16  1  0  0  0  0
 12 14  1  0  0  0  0
 13 14  1  0  0  0  0
 13 16  1  0  0  0  0
 14 17  1  0  0  0  0
  1 19  1  0  0  0  0
  2 20  1  0  0  0  0
  3 21  1  0  0  0  0
  4 22  1  0  0  0  0
  5 23  1  0  0  0  0
 10 24  1  0  0  0  0
 10 25  1  0  0  0  0
 10 26  1  0  0  0  0
 11 27  1  0  0  0  0
 11 28  1  0  0  0  0
 11 29  1  0  0  0  0
 12 30  1  0  0  0  0
 12 31  1  0  0  0  0
 12 32  1  0  0  0  0
 13 33  1  0  0  0  0
 14 34  1  0  0  0  0
 17 35  1  0  0  0  0
 17 36  1  0  0  0  0
M  END
> <FRED Chemgauss4 score>
-8.231769

$$$$
C00162126	P05572008
  -OEChem-05122015313D

 28 28  0     1  0  0  0  0  0999 V2000
  123.3856  106.4305  108.8564 C   0  0  0  0  0  0  0  0  0  0  0  0
  123.6165  109.1141  109.8640 C   0  0  0  0  0  0  0  0  0  0  0  0
  124.5316  107.3245  108.4026 C   0  0  2  0  0  0  0  0  0  0  0  0
  122.2717  108.5895  109.3794 C   0  0  2  0  0  0  0  0  0  0  0  0
  125.8202  106.5419  108.2081 C   0  0  0  0  0  0  0  0  0  0  0  0
  121.1199  109.1185  110.2186 C   0  0  0  0  0  0  0  0  0  0  0  0
  126.8207  107.3060  107.3559 C   0  0  0  0  0  0  0  0  0  0  0  0
  119.7868  108.9720  109.5026 C   0  0  0  0  0  0  0  0  0  0  0  0
  124.6883  108.3564  109.4171 N   0  0  0  0  0  0  0  0  0  0  0  0
  122.3415  107.1367  109.4342 N   0  0  0  0  0  0  0  0  0  0  0  0
  123.3379  105.2239  108.6302 O   0  0  0  0  0  0  0  0  0  0  0  0
  123.7486  110.1643  110.4879 O   0  0  0  0  0  0  0  0  0  0  0  0
  127.1387  108.5276  108.0082 O   0  0  0  0  0  0  0  0  0  0  0  0
  119.8427  109.6927  108.2794 O   0  0  0  0  0  0  0  0  0  0  0  0
  124.2406  107.8127  107.4652 H   0  0  0  0  0  0  0  0  0  0  0  0
  122.1424  108.8834  108.3314 H   0  0  0  0  0  0  0  0  0  0  0  0
  125.5994  105.5754  107.7412 H   0  0  0  0  0  0  0  0  0  0  0  0
  126.2648  106.3123  109.1831 H   0  0  0  0  0  0  0  0  0  0  0  0
  121.2937  110.1725  110.4635 H   0  0  0  0  0  0  0  0  0  0  0  0
  121.0849  108.5872  111.1765 H   0  0  0  0  0  0  0  0  0  0  0  0
  127.7429  106.7310  107.2245 H   0  0  0  0  0  0  0  0  0  0  0  0
  126.4012  107.5359  106.3713 H   0  0  0  0  0  0  0  0  0  0  0  0
  119.5760  107.9213  109.2787 H   0  0  0  0  0  0  0  0  0  0  0  0
  118.9704  109.3774  110.1088 H   0  0  0  0  0  0  0  0  0  0  0  0
  125.6098  108.5264  109.8091 H   0  0  0  0  0  0  0  0  0  0  0  0
  121.6038  106.6252  109.9095 H   0  0  0  0  0  0  0  0  0  0  0  0
  127.7769  108.9905  107.4414 H   0  0  0  0  0  0  0  0  0  0  0  0
  118.9802  109.5799  107.8477 H   0  0  0  0  0  0  0  0  0  0  0  0
  1  3  1  0  0  0  0
  1 10  1  0  0  0  0
  1 11  2  0  0  0  0
  2  4  1  0  0  0  0
  2  9  1  0  0  0  0
  2 12  2  0  0  0  0
  3  5  1  0  0  0  0
  3  9  1  0  0  0  0
  4  6  1  0  0  0  0
  4 10  1  0  0  0  0
  5  7  1  0  0  0  0
  6  8  1  0  0  0  0
  7 13  1  0  0  0  0
  8 14  1  0  0  0  0
  3 15  1  0  0  0  0
  4 16  1  0  0  0  0
  5 17  1  0  0  0  0
  5 18  1  0  0  0  0
  6 19  1  0  0  0  0
  6 20  1  0  0  0  0
  7 21  1  0  0  0  0
  7 22  1  0  0  0  0
  8 23  1  0  0  0  0
  8 24  1  0  0  0  0
  9 25  1  0  0  0  0
 10 26  1  0  0  0  0
 13 27  1  0  0  0  0
 14 28  1  0  0  0  0
M  END
> <FRED Chemgauss4 score>
-8.229348

$$$$
C85187277	P133297783
  -OEChem-05122015313D

 27 27  0     1  0  0  0  0  0999 V2000
  125.1050  109.2078  107.8655 C   0  0  0  0  0  0  0  0  0  0  0  0
  126.4132  107.7803  106.9816 C   0  0  0  0  0  0  0  0  0  0  0  0
  124.8119  108.0122  108.4778 C   0  0  0  0  0  0  0  0  0  0  0  0
  125.1636  103.3615  107.4648 C   0  0  0  0  0  0  0  0  0  0  0  0
  125.0662  104.8412  107.1320 C   0  0  0  0  0  0  0  0  0  0  0  0
  125.7501  105.6968  108.1959 C   0  0  0  0  0  0  0  0  0  0  0  0
  123.5252  108.8188  110.5024 C   0  0  0  0  0  0  0  0  0  0  0  0
  123.8093  107.6519  109.5529 C   0  0  1  0  0  0  0  0  0  0  0  0
  126.1025  109.0567  106.9350 N   0  0  0  0  0  0  0  0  0  0  0  0
  125.6575  107.1071  107.9009 N   0  0  0  0  0  0  0  0  0  0  0  0
  122.5813  107.1603  108.9656 N   0  0  0  0  0  0  0  0  0  0  0  0
  122.6053  108.3957  111.5036 O   0  0  0  0  0  0  0  0  0  0  0  0
  124.6500  110.1712  108.0456 H   0  0  0  0  0  0  0  0  0  0  0  0
  127.1680  107.2920  106.3804 H   0  0  0  0  0  0  0  0  0  0  0  0
  124.7142  103.1486  108.4400 H   0  0  0  0  0  0  0  0  0  0  0  0
  126.2119  103.0485  107.4980 H   0  0  0  0  0  0  0  0  0  0  0  0
  124.6517  102.7554  106.7104 H   0  0  0  0  0  0  0  0  0  0  0  0
  125.5238  105.0219  106.1519 H   0  0  0  0  0  0  0  0  0  0  0  0
  124.0100  105.1231  107.0435 H   0  0  0  0  0  0  0  0  0  0  0  0
  126.8136  105.4435  108.2805 H   0  0  0  0  0  0  0  0  0  0  0  0
  125.2997  105.5328  109.1821 H   0  0  0  0  0  0  0  0  0  0  0  0
  124.4408  109.1426  111.0095 H   0  0  0  0  0  0  0  0  0  0  0  0
  123.0919  109.6776  109.9782 H   0  0  0  0  0  0  0  0  0  0  0  0
  124.1942  106.8111  110.1438 H   0  0  0  0  0  0  0  0  0  0  0  0
  121.7402  107.1902  109.5114 H   0  0  0  0  0  0  0  0  0  0  0  0
  122.6329  106.6216  108.1209 H   0  0  0  0  0  0  0  0  0  0  0  0
  122.4529  109.1601  112.0812 H   0  0  0  0  0  0  0  0  0  0  0  0
  1  3  2  0  0  0  0
  1  9  1  0  0  0  0
  2  9  2  0  0  0  0
  2 10  1  0  0  0  0
  3  8  1  0  0  0  0
  3 10  1  0  0  0  0
  4  5  1  0  0  0  0
  5  6  1  0  0  0  0
  6 10  1  0  0  0  0
  7  8  1  0  0  0  0
  7 12  1  0  0  0  0
  8 11  1  0  0  0  0
  1 13  1  0  0  0  0
  2 14  1  0  0  0  0
  4 15  1  0  0  0  0
  4 16  1  0  0  0  0
  4 17  1  0  0  0  0
  5 18  1  0  0  0  0
  5 19  1  0  0  0  0
  6 20  1  0  0  0  0
  6 21  1  0  0  0  0
  7 22  1  0  0  0  0
  7 23  1  0  0  0  0
  8 24  1  0  0  0  0
 11 25  1  0  0  0  0
 11 26  1  0  0  0  0
 12 27  1  0  0  0  0
M  END
> <FRED Chemgauss4 score>
-8.226584

$$$$
C70061876	P108003290
  -OEChem-05122015313D

 28 29  0     1  0  0  0  0  0999 V2000
  122.6198  109.7251  110.0569 C   0  0  0  0  0  0  0  0  0  0  0  0
  124.4028  109.5387  111.3302 C   0  0  0  0  0  0  0  0  0  0  0  0
  123.6832  108.8600  110.3772 C   0  0  0  0  0  0  0  0  0  0  0  0
  125.4326  108.6245  108.0900 C   0  0  0  0  0  0  0  0  0  0  0  0
  126.9939  106.8410  107.7638 C   0  0  0  0  0  0  0  0  0  0  0  0
  125.7755  106.3216  108.5043 C   0  0  0  0  0  0  0  0  0  0  0  0
  126.5286  108.1600  107.1534 C   0  0  1  0  0  0  0  0  0  0  0  0
  124.1334  111.7763  112.4253 C   0  0  0  0  0  0  0  0  0  0  0  0
  123.9676  107.4998  109.8088 C   0  0  0  0  0  0  0  0  0  0  0  0
  122.6565  110.8661  110.7502 N   0  0  0  0  0  0  0  0  0  0  0  0
  123.7518  110.7228  111.5157 N   0  0  0  0  0  0  0  0  0  0  0  0
  125.0649  107.5256  108.8659 N   0  0  0  0  0  0  0  0  0  0  0  0
  125.9391  108.0124  105.8527 N   0  0  0  0  0  0  0  0  0  0  0  0
  124.9237  109.7362  108.0744 O   0  0  0  0  0  0  0  0  0  0  0  0
  121.8179  109.5734  109.3482 H   0  0  0  0  0  0  0  0  0  0  0  0
  125.2996  109.2858  111.8794 H   0  0  0  0  0  0  0  0  0  0  0  0
  127.8693  106.9574  108.4160 H   0  0  0  0  0  0  0  0  0  0  0  0
  127.2710  106.1216  106.9772 H   0  0  0  0  0  0  0  0  0  0  0  0
  125.1527  105.6796  107.8732 H   0  0  0  0  0  0  0  0  0  0  0  0
  126.0482  105.7906  109.4230 H   0  0  0  0  0  0  0  0  0  0  0  0
  127.3148  108.9075  107.1510 H   0  0  0  0  0  0  0  0  0  0  0  0
  124.8010  112.4576  111.8913 H   0  0  0  0  0  0  0  0  0  0  0  0
  123.2389  112.3058  112.7651 H   0  0  0  0  0  0  0  0  0  0  0  0
  124.6417  111.3407  113.2900 H   0  0  0  0  0  0  0  0  0  0  0  0
  124.2247  106.7941  110.6062 H   0  0  0  0  0  0  0  0  0  0  0  0
  123.0901  107.0992  109.2904 H   0  0  0  0  0  0  0  0  0  0  0  0
  126.3929  107.4179  105.1876 H   0  0  0  0  0  0  0  0  0  0  0  0
  125.2200  108.6528  105.5792 H   0  0  0  0  0  0  0  0  0  0  0  0
  1  3  1  0  0  0  0
  1 10  2  0  0  0  0
  2  3  2  0  0  0  0
  2 11  1  0  0  0  0
  3  9  1  0  0  0  0
  4  7  1  0  0  0  0
  4 12  1  0  0  0  0
  4 14  2  0  0  0  0
  5  6  1  0  0  0  0
  5  7  1  0  0  0  0
  6 12  1  0  0  0  0
  7 13  1  0  0  0  0
  8 11  1  0  0  0  0
  9 12  1  0  0  0  0
 10 11  1  0  0  0  0
  1 15  1  0  0  0  0
  2 16  1  0  0  0  0
  5 17  1  0  0  0  0
  5 18  1  0  0  0  0
  6 19  1  0  0  0  0
  6 20  1  0  0  0  0
  7 21  1  0  0  0  0
  8 22  1  0  0  0  0
  8 23  1  0  0  0  0
  8 24  1  0  0  0  0
  9 25  1  0  0  0  0
  9 26  1  0  0  0  0
 13 27  1  0  0  0  0
 13 28  1  0  0  0  0
M  END
> <FRED Chemgauss4 score>
-8.216784

$$$$
C37810574	P56238309
  -OEChem-05122015313D

 39 39  0     1  0  0  0  0  0999 V2000
  123.4268  109.5279  109.9584 C   0  0  0  0  0  0  0  0  0  0  0  0
  123.0032  107.6511  107.2920 C   0  0  0  0  0  0  0  0  0  0  0  0
  121.6537  104.9258  107.0994 C   0  0  0  0  0  0  0  0  0  0  0  0
  120.5838  104.0954  106.4115 C   0  0  0  0  0  0  0  0  0  0  0  0
  121.4338  106.2652  105.0749 C   0  0  0  0  0  0  0  0  0  0  0  0
  122.4538  105.6035  105.9921 C   0  0  1  0  0  0  0  0  0  0  0  0
  125.4621  103.6928  108.6976 C   0  0  0  0  0  0  0  0  0  0  0  0
  122.8430  110.7917  110.5364 C   0  0  0  0  0  0  0  0  0  0  0  0
  124.1224  108.5598  107.7691 C   0  0  0  0  0  0  0  0  0  0  0  0
  124.7917  106.2973  106.1802 C   0  0  0  0  0  0  0  0  0  0  0  0
  125.2035  104.9412  106.7235 C   0  0  0  0  0  0  0  0  0  0  0  0
  123.9280  111.7137  110.9025 N   0  0  0  0  0  0  0  0  0  0  0  0
  123.5853  109.6171  108.5771 N   0  0  0  0  0  0  0  0  0  0  0  0
  123.3969  106.5554  106.5158 N   0  0  0  0  0  0  0  0  0  0  0  0
  123.7236  108.5484  110.6374 O   0  0  0  0  0  0  0  0  0  0  0  0
  121.8287  107.8875  107.5872 O   0  0  0  0  0  0  0  0  0  0  0  0
  125.0808  104.9429  108.1401 O   0  0  0  0  0  0  0  0  0  0  0  0
  120.0428  105.1016  105.0022 S   0  0  0  0  0  0  0  0  0  0  0  0
  121.2061  105.6450  107.7868 H   0  0  0  0  0  0  0  0  0  0  0  0
  122.3104  104.2720  107.6805 H   0  0  0  0  0  0  0  0  0  0  0  0
  120.9684  103.1291  106.0779 H   0  0  0  0  0  0  0  0  0  0  0  0
  119.7285  103.9244  107.0707 H   0  0  0  0  0  0  0  0  0  0  0  0
  121.1039  107.2417  105.4328 H   0  0  0  0  0  0  0  0  0  0  0  0
  121.8349  106.3711  104.0645 H   0  0  0  0  0  0  0  0  0  0  0  0
  123.0385  104.8643  105.4310 H   0  0  0  0  0  0  0  0  0  0  0  0
  125.3556  103.7300  109.7845 H   0  0  0  0  0  0  0  0  0  0  0  0
  126.4989  103.4744  108.4297 H   0  0  0  0  0  0  0  0  0  0  0  0
  124.8119  102.9116  108.2967 H   0  0  0  0  0  0  0  0  0  0  0  0
  122.1971  111.2718  109.7952 H   0  0  0  0  0  0  0  0  0  0  0  0
  122.2563  110.5549  111.4288 H   0  0  0  0  0  0  0  0  0  0  0  0
  124.8299  107.9994  108.3856 H   0  0  0  0  0  0  0  0  0  0  0  0
  124.6282  109.0211  106.9170 H   0  0  0  0  0  0  0  0  0  0  0  0
  125.4016  107.0986  106.6094 H   0  0  0  0  0  0  0  0  0  0  0  0
  124.8898  106.3169  105.0906 H   0  0  0  0  0  0  0  0  0  0  0  0
  126.2503  104.7402  106.4753 H   0  0  0  0  0  0  0  0  0  0  0  0
  124.5798  104.1384  106.3169 H   0  0  0  0  0  0  0  0  0  0  0  0
  123.7349  112.3985  111.5943 H   0  0  0  0  0  0  0  0  0  0  0  0
  124.7233  111.7452  110.3098 H   0  0  0  0  0  0  0  0  0  0  0  0
  123.3038  110.4822  108.1144 H   0  0  0  0  0  0  0  0  0  0  0  0
  1  8  1  0  0  0  0
  1 13  1  0  0  0  0
  1 15  2  0  0  0  0
  2  9  1  0  0  0  0
  2 14  1  0  0  0  0
  2 16  2  0  0  0  0
  3  4  1  0  0  0  0
  3  6  1  0  0  0  0
  4 18  1  0  0  0  0
  5  6  1  0  0  0  0
  5 18  1  0  0  0  0
  6 14  1  0  0  0  0
  7 17  1  0  0  0  0
  8 12  1  0  0  0  0
  9 13  1  0  0  0  0
 10 11  1  0  0  0  0
 10 14  1  0  0  0  0
 11 17  1  0  0  0  0
  3 19  1  0  0  0  0
  3 20  1  0  0  0  0
  4 21  1  0  0  0  0
  4 22  1  0  0  0  0
  5 23  1  0  0  0  0
  5 24  1  0  0  0  0
  6 25  1  0  0  0  0
  7 26  1  0  0  0  0
  7 27  1  0  0  0  0
  7 28  1  0  0  0  0
  8 29  1  0  0  0  0
  8 30  1  0  0  0  0
  9 31  1  0  0  0  0
  9 32  1  0  0  0  0
 10 33  1  0  0  0  0
 10 34  1  0  0  0  0
 11 35  1  0  0  0  0
 11 36  1  0  0  0  0
 12 37  1  0  0  0  0
 12 38  1  0  0  0  0
 13 39  1  0  0  0  0
M  END
> <FRED Chemgauss4 score>
-8.215197

$$$$
C62362185	P95703184
  -OEChem-05122015313D

 24 25  0     1  0  0  0  0  0999 V2000
  125.6657  105.4603  108.6405 C   0  0  0  0  0  0  0  0  0  0  0  0
  123.9444  104.4446  107.2959 C   0  0  0  0  0  0  0  0  0  0  0  0
  124.5093  106.1963  108.4884 C   0  0  0  0  0  0  0  0  0  0  0  0
  124.3275  107.5244  109.1071 C   0  0  0  0  0  0  0  0  0  0  0  0
  123.8434  109.0601  110.4574 C   0  0  0  0  0  0  0  0  0  0  0  0
  123.5240  111.5975  113.3872 C   0  0  0  0  0  0  0  0  0  0  0  0
  124.0325  110.9795  112.0905 C   0  0  0  0  0  0  0  0  0  0  0  0
  123.3208  109.6598  111.7471 C   0  0  2  0  0  0  0  0  0  0  0  0
  123.5213  105.6157  107.7174 N   0  0  0  0  0  0  0  0  0  0  0  0
  124.6598  108.6455  108.5107 N   0  0  0  0  0  0  0  0  0  0  0  0
  124.3414  109.6557  109.3991 N   0  0  0  0  0  0  0  0  0  0  0  0
  123.4253  108.7093  112.8317 N   0  0  0  0  0  0  0  0  0  0  0  0
  123.8010  107.7039  110.3494 O   0  0  0  0  0  0  0  0  0  0  0  0
  125.5205  103.9784  107.7894 S   0  0  0  0  0  0  0  0  0  0  0  0
  126.5635  105.7063  109.1907 H   0  0  0  0  0  0  0  0  0  0  0  0
  123.3358  103.8036  106.6730 H   0  0  0  0  0  0  0  0  0  0  0  0
  123.6311  110.8988  114.2230 H   0  0  0  0  0  0  0  0  0  0  0  0
  124.0978  112.4990  113.6244 H   0  0  0  0  0  0  0  0  0  0  0  0
  122.4703  111.8820  113.3078 H   0  0  0  0  0  0  0  0  0  0  0  0
  123.9073  111.7103  111.2817 H   0  0  0  0  0  0  0  0  0  0  0  0
  125.1107  110.8018  112.1930 H   0  0  0  0  0  0  0  0  0  0  0  0
  122.2478  109.8615  111.6382 H   0  0  0  0  0  0  0  0  0  0  0  0
  123.2923  107.7341  112.6345 H   0  0  0  0  0  0  0  0  0  0  0  0
  123.4240  109.0510  113.7757 H   0  0  0  0  0  0  0  0  0  0  0  0
  1  3  2  0  0  0  0
  1 14  1  0  0  0  0
  2  9  2  0  0  0  0
  2 14  1  0  0  0  0
  3  4  1  0  0  0  0
  3  9  1  0  0  0  0
  4 10  2  0  0  0  0
  4 13  1  0  0  0  0
  5  8  1  0  0  0  0
  5 11  2  0  0  0  0
  5 13  1  0  0  0  0
  6  7  1  0  0  0  0
  7  8  1  0  0  0  0
  8 12  1  0  0  0  0
 10 11  1  0  0  0  0
  1 15  1  0  0  0  0
  2 16  1  0  0  0  0
  6 17  1  0  0  0  0
  6 18  1  0  0  0  0
  6 19  1  0  0  0  0
  7 20  1  0  0  0  0
  7 21  1  0  0  0  0
  8 22  1  0  0  0  0
 12 23  1  0  0  0  0
 12 24  1  0  0  0  0
M  END
> <FRED Chemgauss4 score>
-8.211577

$$$$
C35904583	P53307746
  -OEChem-05122015313D

 22 22  0     0  0  0  0  0  0999 V2000
  124.6651  108.4154  109.3374 C   0  0  0  0  0  0  0  0  0  0  0  0
  124.8956  107.1021  109.2817 C   0  0  0  0  0  0  0  0  0  0  0  0
  125.0830  109.2701  108.2079 C   0  0  0  0  0  0  0  0  0  0  0  0
  125.9457  107.2147  107.0927 C   0  0  0  0  0  0  0  0  0  0  0  0
  125.0260  104.3112  107.1275 C   0  0  0  0  0  0  0  0  0  0  0  0
  125.7061  105.0432  108.2770 C   0  0  0  0  0  0  0  0  0  0  0  0
  123.5217  104.5507  107.0824 C   0  0  0  0  0  0  0  0  0  0  0  0
  125.6961  108.5917  107.1659 N   0  0  0  0  0  0  0  0  0  0  0  0
  125.5129  106.4871  108.2120 N   0  0  0  0  0  0  0  0  0  0  0  0
  124.8855  110.4811  108.2275 O   0  0  0  0  0  0  0  0  0  0  0  0
  126.5016  106.7196  106.1100 O   0  0  0  0  0  0  0  0  0  0  0  0
  122.9512  104.1080  108.3068 O   0  0  0  0  0  0  0  0  0  0  0  0
  124.1797  108.8768  110.1886 H   0  0  0  0  0  0  0  0  0  0  0  0
  124.5968  106.4560  110.1006 H   0  0  0  0  0  0  0  0  0  0  0  0
  125.4667  104.6396  106.1779 H   0  0  0  0  0  0  0  0  0  0  0  0
  125.2206  103.2332  107.1913 H   0  0  0  0  0  0  0  0  0  0  0  0
  125.2920  104.7088  109.2333 H   0  0  0  0  0  0  0  0  0  0  0  0
  126.7835  104.8497  108.2842 H   0  0  0  0  0  0  0  0  0  0  0  0
  123.2924  105.6137  106.9600 H   0  0  0  0  0  0  0  0  0  0  0  0
  123.0621  103.9898  106.2623 H   0  0  0  0  0  0  0  0  0  0  0  0
  125.9960  109.1497  106.3713 H   0  0  0  0  0  0  0  0  0  0  0  0
  121.9964  104.2735  108.2467 H   0  0  0  0  0  0  0  0  0  0  0  0
  1  2  2  0  0  0  0
  1  3  1  0  0  0  0
  2  9  1  0  0  0  0
  3  8  1  0  0  0  0
  3 10  2  0  0  0  0
  4  8  1  0  0  0  0
  4  9  1  0  0  0  0
  4 11  2  0  0  0  0
  5  6  1  0  0  0  0
  5  7  1  0  0  0  0
  6  9  1  0  0  0  0
  7 12  1  0  0  0  0
  1 13  1  0  0  0  0
  2 14  1  0  0  0  0
  5 15  1  0  0  0  0
  5 16  1  0  0  0  0
  6 17  1  0  0  0  0
  6 18  1  0  0  0  0
  7 19  1  0  0  0  0
  7 20  1  0  0  0  0
  8 21  1  0  0  0  0
 12 22  1  0  0  0  0
M  END
> <FRED Chemgauss4 score>
-8.208849

$$$$
C16951488	P25522321
  -OEChem-05122015313D

 31 31  0     1  0  0  0  0  0999 V2000
  124.5631  109.2853  107.8327 C   0  0  2  0  0  0  0  0  0  0  0  0
  124.2325  109.3950  109.3215 C   0  0  2  0  0  0  0  0  0  0  0  0
  125.7116  108.3005  107.6118 C   0  0  1  0  0  0  0  0  0  0  0  0
  124.0490  108.0081  109.9497 C   0  0  2  0  0  0  0  0  0  0  0  0
  125.4336  106.9529  108.2962 C   0  0  1  0  0  0  0  0  0  0  0  0
  124.0289  105.0693  108.2551 C   0  0  0  0  0  0  0  0  0  0  0  0
  123.8895  108.0835  111.4657 C   0  0  0  0  0  0  0  0  0  0  0  0
  126.6420  106.0191  108.2014 C   0  0  0  0  0  0  0  0  0  0  0  0
  125.1833  107.1735  109.6903 O   0  0  0  0  0  0  0  0  0  0  0  0
  124.9555  110.5774  107.3646 O   0  0  0  0  0  0  0  0  0  0  0  0
  123.0375  110.1607  109.4548 O   0  0  0  0  0  0  0  0  0  0  0  0
  125.8913  108.1326  106.2073 O   0  0  0  0  0  0  0  0  0  0  0  0
  122.7554  108.8782  111.7599 O   0  0  0  0  0  0  0  0  0  0  0  0
  127.8150  106.7867  108.3900 O   0  0  0  0  0  0  0  0  0  0  0  0
  124.3225  106.3198  107.6549 O   0  0  0  0  0  0  0  0  0  0  0  0
  123.6755  109.0020  107.2540 H   0  0  0  0  0  0  0  0  0  0  0  0
  125.0381  109.9451  109.8249 H   0  0  0  0  0  0  0  0  0  0  0  0
  126.6320  108.7487  108.0090 H   0  0  0  0  0  0  0  0  0  0  0  0
  123.1464  107.5270  109.5515 H   0  0  0  0  0  0  0  0  0  0  0  0
  123.1781  104.6105  107.7455 H   0  0  0  0  0  0  0  0  0  0  0  0
  123.7972  105.2172  109.3129 H   0  0  0  0  0  0  0  0  0  0  0  0
  124.9007  104.4173  108.1628 H   0  0  0  0  0  0  0  0  0  0  0  0
  124.7742  108.5389  111.9100 H   0  0  0  0  0  0  0  0  0  0  0  0
  123.7452  107.0835  111.8743 H   0  0  0  0  0  0  0  0  0  0  0  0
  126.6684  105.5508  107.2191 H   0  0  0  0  0  0  0  0  0  0  0  0
  126.5788  105.2561  108.9751 H   0  0  0  0  0  0  0  0  0  0  0  0
  125.7327  110.8307  107.8842 H   0  0  0  0  0  0  0  0  0  0  0  0
  122.3472  109.6811  108.9712 H   0  0  0  0  0  0  0  0  0  0  0  0
  126.1010  109.0090  105.8495 H   0  0  0  0  0  0  0  0  0  0  0  0
  122.6738  108.9120  112.7284 H   0  0  0  0  0  0  0  0  0  0  0  0
  128.5703  106.1768  108.3263 H   0  0  0  0  0  0  0  0  0  0  0  0
  1  2  1  0  0  0  0
  1  3  1  0  0  0  0
  1 10  1  0  0  0  0
  2  4  1  0  0  0  0
  2 11  1  0  0  0  0
  3  5  1  0  0  0  0
  3 12  1  0  0  0  0
  4  7  1  0  0  0  0
  4  9  1  0  0  0  0
  5  8  1  0  0  0  0
  5  9  1  0  0  0  0
  5 15  1  0  0  0  0
  6 15  1  0  0  0  0
  7 13  1  0  0  0  0
  8 14  1  0  0  0  0
  1 16  1  0  0  0  0
  2 17  1  0  0  0  0
  3 18  1  0  0  0  0
  4 19  1  0  0  0  0
  6 20  1  0  0  0  0
  6 21  1  0  0  0  0
  6 22  1  0  0  0  0
  7 23  1  0  0  0  0
  7 24  1  0  0  0  0
  8 25  1  0  0  0  0
  8 26  1  0  0  0  0
 10 27  1  0  0  0  0
 11 28  1  0  0  0  0
 12 29  1  0  0  0  0
 13 30  1  0  0  0  0
 14 31  1  0  0  0  0
M  END
> <FRED Chemgauss4 score>
-8.202091

$$$$
C54503976	P82019619
  -OEChem-05122015313D

 29 30  0     1  0  0  0  0  0999 V2000
  123.1992  106.4430  105.9510 C   0  0  0  0  0  0  0  0  0  0  0  0
  124.5084  107.3490  107.4255 C   0  0  0  0  0  0  0  0  0  0  0  0
  123.1306  108.0571  109.8624 C   0  0  0  0  0  0  0  0  0  0  0  0
  123.8849  109.3520  109.7445 C   0  0  0  0  0  0  0  0  0  0  0  0
  124.6342  108.0526  109.8507 C   0  0  0  0  0  0  0  0  0  0  0  0
  122.3572  105.4440  105.2692 C   0  0  0  0  0  0  0  0  0  0  0  0
  125.1148  104.1699  107.7017 C   0  0  0  0  0  0  0  0  0  0  0  0
  123.8375  104.9714  107.8847 C   0  0  0  0  0  0  0  0  0  0  0  0
  125.3732  107.5145  108.6749 C   0  0  2  0  0  0  0  0  0  0  0  0
  123.4462  107.6720  105.5574 N   0  0  0  0  0  0  0  0  0  0  0  0
  124.2791  108.2485  106.4956 N   0  0  0  0  0  0  0  0  0  0  0  0
  123.8480  106.1970  107.1229 N   0  0  0  0  0  0  0  0  0  0  0  0
  126.5496  108.3157  108.3555 N   0  0  0  0  0  0  0  0  0  0  0  0
  122.6181  107.8564  110.7952 H   0  0  0  0  0  0  0  0  0  0  0  0
  122.6188  107.6899  108.9813 H   0  0  0  0  0  0  0  0  0  0  0  0
  123.8785  109.8531  108.7843 H   0  0  0  0  0  0  0  0  0  0  0  0
  123.8777  110.0181  110.5984 H   0  0  0  0  0  0  0  0  0  0  0  0
  125.1437  107.8409  110.7830 H   0  0  0  0  0  0  0  0  0  0  0  0
  122.9483  104.8405  104.5598 H   0  0  0  0  0  0  0  0  0  0  0  0
  121.8785  104.7480  105.9805 H   0  0  0  0  0  0  0  0  0  0  0  0
  121.5328  105.9118  104.7024 H   0  0  0  0  0  0  0  0  0  0  0  0
  125.2691  103.9057  106.6501 H   0  0  0  0  0  0  0  0  0  0  0  0
  125.0681  103.2437  108.2829 H   0  0  0  0  0  0  0  0  0  0  0  0
  125.9896  104.7383  108.0347 H   0  0  0  0  0  0  0  0  0  0  0  0
  123.6919  105.2309  108.9394 H   0  0  0  0  0  0  0  0  0  0  0  0
  122.9659  104.3862  107.5704 H   0  0  0  0  0  0  0  0  0  0  0  0
  125.7917  106.5181  108.9238 H   0  0  0  0  0  0  0  0  0  0  0  0
  126.9235  108.2558  107.4324 H   0  0  0  0  0  0  0  0  0  0  0  0
  127.0554  108.7302  109.1091 H   0  0  0  0  0  0  0  0  0  0  0  0
  1  6  1  0  0  0  0
  1 10  2  0  0  0  0
  1 12  1  0  0  0  0
  2  9  1  0  0  0  0
  2 11  2  0  0  0  0
  2 12  1  0  0  0  0
  3  4  1  0  0  0  0
  3  5  1  0  0  0  0
  4  5  1  0  0  0  0
  5  9  1  0  0  0  0
  7  8  1  0  0  0  0
  8 12  1  0  0  0  0
  9 13  1  0  0  0  0
 10 11  1  0  0  0  0
  3 14  1  0  0  0  0
  3 15  1  0  0  0  0
  4 16  1  0  0  0  0
  4 17  1  0  0  0  0
  5 18  1  0  0  0  0
  6 19  1  0  0  0  0
  6 20  1  0  0  0  0
  6 21  1  0  0  0  0
  7 22  1  0  0  0  0
  7 23  1  0  0  0  0
  7 24  1  0  0  0  0
  8 25  1  0  0  0  0
  8 26  1  0  0  0  0
  9 27  1  0  0  0  0
 13 28  1  0  0  0  0
 13 29  1  0  0  0  0
M  END
> <FRED Chemgauss4 score>
-8.197811

$$$$
C03843087	P04506273
  -OEChem-05122015313D

 23 23  0     1  0  0  0  0  0999 V2000
  122.6855  106.5223  106.0673 C   0  0  0  0  0  0  0  0  0  0  0  0
  125.2041  105.4864  108.4284 C   0  0  0  0  0  0  0  0  0  0  0  0
  124.0908  106.4116  106.5635 C   0  0  1  0  0  0  0  0  0  0  0  0
  125.8615  106.8102  108.7944 C   0  0  2  0  0  0  0  0  0  0  0  0
  124.7025  107.7919  106.7814 C   0  0  1  0  0  0  0  0  0  0  0  0
  126.0183  107.6938  107.5571 C   0  0  1  0  0  0  0  0  0  0  0  0
  122.4239  105.8873  104.8848 N   0  0  0  0  0  0  0  0  0  0  0  0
  123.9496  105.7041  107.7917 O   0  0  0  0  0  0  0  0  0  0  0  0
  127.1350  106.5344  109.3664 O   0  0  0  0  0  0  0  0  0  0  0  0
  124.9544  108.3862  105.5090 O   0  0  0  0  0  0  0  0  0  0  0  0
  126.3958  109.0121  107.9563 O   0  0  0  0  0  0  0  0  0  0  0  0
  121.5170  107.3712  106.9063 S   0  0  0  0  0  0  0  0  0  0  0  0
  125.8512  104.8790  107.7828 H   0  0  0  0  0  0  0  0  0  0  0  0
  125.0309  104.8930  109.3330 H   0  0  0  0  0  0  0  0  0  0  0  0
  124.6567  105.8120  105.8402 H   0  0  0  0  0  0  0  0  0  0  0  0
  125.2598  107.3286  109.5498 H   0  0  0  0  0  0  0  0  0  0  0  0
  124.0055  108.4495  107.3186 H   0  0  0  0  0  0  0  0  0  0  0  0
  126.8221  107.3212  106.9100 H   0  0  0  0  0  0  0  0  0  0  0  0
  123.1516  105.3797  104.3927 H   0  0  0  0  0  0  0  0  0  0  0  0
  121.5054  105.8950  104.4529 H   0  0  0  0  0  0  0  0  0  0  0  0
  126.9746  105.9897  110.1533 H   0  0  0  0  0  0  0  0  0  0  0  0
  125.5702  107.7967  105.0477 H   0  0  0  0  0  0  0  0  0  0  0  0
  125.6846  109.3388  108.5276 H   0  0  0  0  0  0  0  0  0  0  0  0
  1  3  1  0  0  0  0
  1  7  1  0  0  0  0
  1 12  2  0  0  0  0
  2  4  1  0  0  0  0
  2  8  1  0  0  0  0
  3  5  1  0  0  0  0
  3  8  1  0  0  0  0
  4  6  1  0  0  0  0
  4  9  1  0  0  0  0
  5  6  1  0  0  0  0
  5 10  1  0  0  0  0
  6 11  1  0  0  0  0
  2 13  1  0  0  0  0
  2 14  1  0  0  0  0
  3 15  1  0  0  0  0
  4 16  1  0  0  0  0
  5 17  1  0  0  0  0
  6 18  1  0  0  0  0
  7 19  1  0  0  0  0
  7 20  1  0  0  0  0
  9 21  1  0  0  0  0
 10 22  1  0  0  0  0
 11 23  1  0  0  0  0
M  END
> <FRED Chemgauss4 score>
-8.196845

$$$$
C82924737	P129630013
  -OEChem-05122015313D

 28 28  0     0  0  0  0  0  0999 V2000
  117.9634  103.2796  105.5908 C   0  0  0  0  0  0  0  0  0  0  0  0
  124.8486  104.9965  107.7601 C   0  0  0  0  0  0  0  0  0  0  0  0
  123.2707  106.5199  107.9170 C   0  0  0  0  0  0  0  0  0  0  0  0
  123.5294  105.2891  107.3651 C   0  0  0  0  0  0  0  0  0  0  0  0
  118.8733  104.0845  106.4193 C   0  0  0  0  0  0  0  0  0  0  0  0
  122.6109  104.4480  106.5266 C   0  0  0  0  0  0  0  0  0  0  0  0
  124.6170  108.0958  109.3250 C   0  0  0  0  0  0  0  0  0  0  0  0
  120.3347  103.8555  106.0484 C   0  0  0  0  0  0  0  0  0  0  0  0
  124.9004  109.2875  108.4203 C   0  0  0  0  0  0  0  0  0  0  0  0
  117.2436  102.6453  104.9382 N   0  0  0  0  0  0  0  0  0  0  0  0
  125.3902  105.9637  108.5053 N   0  0  0  0  0  0  0  0  0  0  0  0
  124.4064  106.8760  108.5828 N   0  0  0  0  0  0  0  0  0  0  0  0
  121.2082  104.6518  106.8800 N   0  0  0  0  0  0  0  0  0  0  0  0
  126.0481  109.0223  107.6243 O   0  0  0  0  0  0  0  0  0  0  0  0
  125.4402  104.1201  107.5366 H   0  0  0  0  0  0  0  0  0  0  0  0
  122.3972  107.1574  107.8921 H   0  0  0  0  0  0  0  0  0  0  0  0
  118.7275  103.8139  107.4715 H   0  0  0  0  0  0  0  0  0  0  0  0
  118.6180  105.1463  106.3225 H   0  0  0  0  0  0  0  0  0  0  0  0
  122.7294  104.6881  105.4644 H   0  0  0  0  0  0  0  0  0  0  0  0
  122.8349  103.3827  106.6462 H   0  0  0  0  0  0  0  0  0  0  0  0
  123.7246  108.2679  109.9379 H   0  0  0  0  0  0  0  0  0  0  0  0
  125.4607  107.9190  110.0019 H   0  0  0  0  0  0  0  0  0  0  0  0
  120.5877  102.7997  106.1901 H   0  0  0  0  0  0  0  0  0  0  0  0
  120.5135  104.1008  104.9956 H   0  0  0  0  0  0  0  0  0  0  0  0
  124.0543  109.4493  107.7451 H   0  0  0  0  0  0  0  0  0  0  0  0
  125.0746  110.2030  108.9948 H   0  0  0  0  0  0  0  0  0  0  0  0
  121.0777  104.3981  107.8629 H   0  0  0  0  0  0  0  0  0  0  0  0
  126.1891  109.8049  107.0674 H   0  0  0  0  0  0  0  0  0  0  0  0
  1  5  1  0  0  0  0
  1 10  3  0  0  0  0
  2  4  1  0  0  0  0
  2 11  2  0  0  0  0
  3  4  2  0  0  0  0
  3 12  1  0  0  0  0
  4  6  1  0  0  0  0
  5  8  1  0  0  0  0
  6 13  1  0  0  0  0
  7  9  1  0  0  0  0
  7 12  1  0  0  0  0
  8 13  1  0  0  0  0
  9 14  1  0  0  0  0
 11 12  1  0  0  0  0
  2 15  1  0  0  0  0
  3 16  1  0  0  0  0
  5 17  1  0  0  0  0
  5 18  1  0  0  0  0
  6 19  1  0  0  0  0
  6 20  1  0  0  0  0
  7 21  1  0  0  0  0
  7 22  1  0  0  0  0
  8 23  1  0  0  0  0
  8 24  1  0  0  0  0
  9 25  1  0  0  0  0
  9 26  1  0  0  0  0
 13 27  1  0  0  0  0
 14 28  1  0  0  0  0
M  END
> <FRED Chemgauss4 score>
-8.192484

$$$$
C82583507	P129059864
  -OEChem-05122015313D

 29 30  0     1  0  0  0  0  0999 V2000
  123.4061  109.8069  112.7659 C   0  0  0  0  0  0  0  0  0  0  0  0
  123.8132  110.4417  111.5921 C   0  0  0  0  0  0  0  0  0  0  0  0
  123.2271  108.4271  112.7589 C   0  0  0  0  0  0  0  0  0  0  0  0
  124.0185  109.6352  110.4654 C   0  0  0  0  0  0  0  0  0  0  0  0
  123.8030  108.2705  110.5988 C   0  0  0  0  0  0  0  0  0  0  0  0
  124.4350  108.7848  108.5535 C   0  0  0  0  0  0  0  0  0  0  0  0
  122.6088  105.7722  109.2368 C   0  0  0  0  0  0  0  0  0  0  0  0
  123.9935  106.3501  109.0000 C   0  0  0  0  0  0  0  0  0  0  0  0
  126.0068  107.6375  106.9353 C   0  0  0  0  0  0  0  0  0  0  0  0
  124.8000  108.5812  107.1362 C   0  0  1  0  0  0  0  0  0  0  0  0
  123.4122  107.6044  111.6979 N   0  0  0  0  0  0  0  0  0  0  0  0
  124.4119  109.9395  109.1849 N   0  0  0  0  0  0  0  0  0  0  0  0
  124.0740  107.7446  109.3673 N   0  0  0  0  0  0  0  0  0  0  0  0
  123.6737  108.0956  106.3434 N   0  0  0  0  0  0  0  0  0  0  0  0
  127.2255  108.3276  107.1922 O   0  0  0  0  0  0  0  0  0  0  0  0
  123.2320  110.3811  113.6696 H   0  0  0  0  0  0  0  0  0  0  0  0
  123.9626  111.5150  111.5593 H   0  0  0  0  0  0  0  0  0  0  0  0
  122.9106  107.9211  113.6670 H   0  0  0  0  0  0  0  0  0  0  0  0
  122.3201  105.8551  110.2899 H   0  0  0  0  0  0  0  0  0  0  0  0
  122.5869  104.7138  108.9593 H   0  0  0  0  0  0  0  0  0  0  0  0
  121.8541  106.2971  108.6416 H   0  0  0  0  0  0  0  0  0  0  0  0
  124.2733  106.2625  107.9440 H   0  0  0  0  0  0  0  0  0  0  0  0
  124.7447  105.8039  109.5818 H   0  0  0  0  0  0  0  0  0  0  0  0
  125.9479  106.7971  107.6357 H   0  0  0  0  0  0  0  0  0  0  0  0
  126.0445  107.2416  105.9145 H   0  0  0  0  0  0  0  0  0  0  0  0
  125.0612  109.5427  106.6474 H   0  0  0  0  0  0  0  0  0  0  0  0
  123.8718  107.6035  105.4994 H   0  0  0  0  0  0  0  0  0  0  0  0
  122.7643  108.4429  106.5590 H   0  0  0  0  0  0  0  0  0  0  0  0
  127.9415  107.6885  107.0508 H   0  0  0  0  0  0  0  0  0  0  0  0
  1  2  1  0  0  0  0
  1  3  2  0  0  0  0
  2  4  2  0  0  0  0
  3 11  1  0  0  0  0
  4  5  1  0  0  0  0
  4 12  1  0  0  0  0
  5 11  2  0  0  0  0
  5 13  1  0  0  0  0
  6 10  1  0  0  0  0
  6 12  2  0  0  0  0
  6 13  1  0  0  0  0
  7  8  1  0  0  0  0
  8 13  1  0  0  0  0
  9 10  1  0  0  0  0
  9 15  1  0  0  0  0
 10 14  1  0  0  0  0
  1 16  1  0  0  0  0
  2 17  1  0  0  0  0
  3 18  1  0  0  0  0
  7 19  1  0  0  0  0
  7 20  1  0  0  0  0
  7 21  1  0  0  0  0
  8 22  1  0  0  0  0
  8 23  1  0  0  0  0
  9 24  1  0  0  0  0
  9 25  1  0  0  0  0
 10 26  1  0  0  0  0
 14 27  1  0  0  0  0
 14 28  1  0  0  0  0
 15 29  1  0  0  0  0
M  END
> <FRED Chemgauss4 score>
-8.191363

$$$$
C85248400	P133393697
  -OEChem-05122015313D

 25 25  0     1  0  0  0  0  0999 V2000
  123.8747  106.1089  106.4161 C   0  0  0  0  0  0  0  0  0  0  0  0
  125.4435  105.6253  107.8798 C   0  0  0  0  0  0  0  0  0  0  0  0
  124.7313  104.3136  107.7138 C   0  0  0  0  0  0  0  0  0  0  0  0
  123.4983  104.7289  106.9366 C   0  0  1  0  0  0  0  0  0  0  0  0
  121.0273  104.9953  107.1852 C   0  0  0  0  0  0  0  0  0  0  0  0
  119.3833  103.9104  105.5515 C   0  0  0  0  0  0  0  0  0  0  0  0
  120.7089  103.7963  106.2984 C   0  0  2  0  0  0  0  0  0  0  0  0
  124.9428  106.5646  107.0069 N   0  0  0  0  0  0  0  0  0  0  0  0
  122.3370  104.8237  107.8621 N   0  3  0  0  0  0  0  0  0  0  0  0
  123.1702  106.6514  105.5430 O   0  5  0  0  0  0  0  0  0  0  0  0
  126.3750  105.7936  108.6564 O   0  0  0  0  0  0  0  0  0  0  0  0
  118.3279  103.9923  106.5048 O   0  0  0  0  0  0  0  0  0  0  0  0
  120.6898  102.6225  107.1122 O   0  0  0  0  0  0  0  0  0  0  0  0
  125.3683  103.6507  107.1195 H   0  0  0  0  0  0  0  0  0  0  0  0
  124.5156  103.8564  108.6829 H   0  0  0  0  0  0  0  0  0  0  0  0
  123.2288  104.0224  106.1458 H   0  0  0  0  0  0  0  0  0  0  0  0
  121.0892  105.9233  106.6096 H   0  0  0  0  0  0  0  0  0  0  0  0
  120.2880  105.1041  107.9846 H   0  0  0  0  0  0  0  0  0  0  0  0
  119.1949  103.0305  104.9284 H   0  0  0  0  0  0  0  0  0  0  0  0
  119.3552  104.8142  104.9353 H   0  0  0  0  0  0  0  0  0  0  0  0
  121.5277  103.6636  105.5814 H   0  0  0  0  0  0  0  0  0  0  0  0
  122.3072  103.9785  108.4502 H   0  0  0  0  0  0  0  0  0  0  0  0
  122.4893  105.6088  108.5115 H   0  0  0  0  0  0  0  0  0  0  0  0
  117.5032  104.0635  105.9992 H   0  0  0  0  0  0  0  0  0  0  0  0
  121.5724  102.5481  107.5048 H   0  0  0  0  0  0  0  0  0  0  0  0
  1  4  1  0  0  0  0
  1  8  2  0  0  0  0
  1 10  1  0  0  0  0
  2  3  1  0  0  0  0
  2  8  1  0  0  0  0
  2 11  2  0  0  0  0
  3  4  1  0  0  0  0
  4  9  1  0  0  0  0
  5  7  1  0  0  0  0
  5  9  1  0  0  0  0
  6  7  1  0  0  0  0
  6 12  1  0  0  0  0
  7 13  1  0  0  0  0
  3 14  1  0  0  0  0
  3 15  1  0  0  0  0
  4 16  1  0  0  0  0
  5 17  1  0  0  0  0
  5 18  1  0  0  0  0
  6 19  1  0  0  0  0
  6 20  1  0  0  0  0
  7 21  1  0  0  0  0
  9 22  1  0  0  0  0
  9 23  1  0  0  0  0
 12 24  1  0  0  0  0
 13 25  1  0  0  0  0
M  CHG  2   9   1  10  -1
M  END
> <FRED Chemgauss4 score>
-8.181345

$$$$
C83804931	P131109815
  -OEChem-05122015313D

 29 30  0     1  0  0  0  0  0999 V2000
  123.9247  109.2271  109.0441 C   0  0  0  0  0  0  0  0  0  0  0  0
  124.4725  108.1494  107.3654 C   0  0  0  0  0  0  0  0  0  0  0  0
  122.2356  110.6872  110.4190 C   0  0  0  0  0  0  0  0  0  0  0  0
  123.2682  109.5825  110.3577 C   0  0  2  0  0  0  0  0  0  0  0  0
  123.5880  110.9010  111.0308 C   0  0  2  0  0  0  0  0  0  0  0  0
  123.7391  110.9665  112.5115 C   0  0  0  0  0  0  0  0  0  0  0  0
  125.3370  105.8360  106.7103 C   0  0  0  0  0  0  0  0  0  0  0  0
  126.7033  106.0081  107.3659 C   0  0  0  0  0  0  0  0  0  0  0  0
  124.7167  107.1625  106.2431 C   0  0  1  0  0  0  0  0  0  0  0  0
  123.7373  108.0178  108.4405 N   0  0  0  0  0  0  0  0  0  0  0  0
  124.7267  110.0799  108.3997 N   0  0  0  0  0  0  0  0  0  0  0  0
  123.4887  106.9020  105.5230 N   0  0  0  0  0  0  0  0  0  0  0  0
  125.0984  109.3512  107.2630 O   0  0  0  0  0  0  0  0  0  0  0  0
  126.5577  106.8335  108.5145 O   0  0  0  0  0  0  0  0  0  0  0  0
  122.0046  111.2315  109.5104 H   0  0  0  0  0  0  0  0  0  0  0  0
  121.3855  110.5489  111.0772 H   0  0  0  0  0  0  0  0  0  0  0  0
  123.0850  108.7231  111.0265 H   0  0  0  0  0  0  0  0  0  0  0  0
  124.2615  111.5858  110.5287 H   0  0  0  0  0  0  0  0  0  0  0  0
  123.0539  110.2699  113.0211 H   0  0  0  0  0  0  0  0  0  0  0  0
  123.5244  111.9760  112.8976 H   0  0  0  0  0  0  0  0  0  0  0  0
  124.7625  110.7070  112.8274 H   0  0  0  0  0  0  0  0  0  0  0  0
  124.6634  105.3524  107.4314 H   0  0  0  0  0  0  0  0  0  0  0  0
  125.4178  105.1199  105.8818 H   0  0  0  0  0  0  0  0  0  0  0  0
  127.1170  105.0474  107.6866 H   0  0  0  0  0  0  0  0  0  0  0  0
  127.4070  106.4897  106.6797 H   0  0  0  0  0  0  0  0  0  0  0  0
  125.3902  107.6122  105.5027 H   0  0  0  0  0  0  0  0  0  0  0  0
  123.4157  106.0598  104.9830 H   0  0  0  0  0  0  0  0  0  0  0  0
  122.8272  107.6482  105.4124 H   0  0  0  0  0  0  0  0  0  0  0  0
  127.4406  106.9236  108.9077 H   0  0  0  0  0  0  0  0  0  0  0  0
  1  4  1  0  0  0  0
  1 10  1  0  0  0  0
  1 11  2  0  0  0  0
  2  9  1  0  0  0  0
  2 10  2  0  0  0  0
  2 13  1  0  0  0  0
  3  4  1  0  0  0  0
  3  5  1  0  0  0  0
  4  5  1  0  0  0  0
  5  6  1  0  0  0  0
  7  8  1  0  0  0  0
  7  9  1  0  0  0  0
  8 14  1  0  0  0  0
  9 12  1  0  0  0  0
 11 13  1  0  0  0  0
  3 15  1  0  0  0  0
  3 16  1  0  0  0  0
  4 17  1  0  0  0  0
  5 18  1  0  0  0  0
  6 19  1  0  0  0  0
  6 20  1  0  0  0  0
  6 21  1  0  0  0  0
  7 22  1  0  0  0  0
  7 23  1  0  0  0  0
  8 24  1  0  0  0  0
  8 25  1  0  0  0  0
  9 26  1  0  0  0  0
 12 27  1  0  0  0  0
 12 28  1  0  0  0  0
 14 29  1  0  0  0  0
M  END
> <FRED Chemgauss4 score>
-8.180658

$$$$
C39050781	P151023628
  -OEChem-05122015313D

 17 17  0     0  0  0  0  0  0999 V2000
  125.9982  105.5783  108.1274 C   0  0  0  0  0  0  0  0  0  0  0  0
  124.6162  106.3963  106.3545 C   0  0  0  0  0  0  0  0  0  0  0  0
  126.3607  107.7402  107.1694 C   0  0  0  0  0  0  0  0  0  0  0  0
  124.9329  105.3871  107.2528 C   0  0  0  0  0  0  0  0  0  0  0  0
  126.7225  106.7660  108.0890 C   0  0  0  0  0  0  0  0  0  0  0  0
  124.1454  104.1241  107.2786 C   0  0  0  0  0  0  0  0  0  0  0  0
  125.3304  107.5300  106.3388 N   0  3  0  0  0  0  0  0  0  0  0  0
  125.0159  108.4495  105.4971 O   0  5  0  0  0  0  0  0  0  0  0  0
  127.7645  106.9697  108.9352 O   0  0  0  0  0  0  0  0  0  0  0  0
  122.8876  104.3609  107.9011 O   0  0  0  0  0  0  0  0  0  0  0  0
  126.2658  104.8033  108.8410 H   0  0  0  0  0  0  0  0  0  0  0  0
  123.8076  106.3369  105.6404 H   0  0  0  0  0  0  0  0  0  0  0  0
  126.8655  108.6901  107.0704 H   0  0  0  0  0  0  0  0  0  0  0  0
  123.9657  103.7396  106.2641 H   0  0  0  0  0  0  0  0  0  0  0  0
  124.6712  103.3367  107.8378 H   0  0  0  0  0  0  0  0  0  0  0  0
  127.8888  106.1984  109.5129 H   0  0  0  0  0  0  0  0  0  0  0  0
  122.4111  103.5157  107.8959 H   0  0  0  0  0  0  0  0  0  0  0  0
  1  4  1  0  0  0  0
  1  5  2  0  0  0  0
  2  4  2  0  0  0  0
  2  7  1  0  0  0  0
  3  5  1  0  0  0  0
  3  7  2  0  0  0  0
  4  6  1  0  0  0  0
  5  9  1  0  0  0  0
  6 10  1  0  0  0  0
  7  8  1  0  0  0  0
  1 11  1  0  0  0  0
  2 12  1  0  0  0  0
  3 13  1  0  0  0  0
  6 14  1  0  0  0  0
  6 15  1  0  0  0  0
  9 16  1  0  0  0  0
 10 17  1  0  0  0  0
M  CHG  2   7   1   8  -1
M  END
> <FRED Chemgauss4 score>
-8.180502

$$$$
C95869841	P150894217
  -OEChem-05122015313D

 32 33  0     1  0  0  0  0  0999 V2000
  123.6923  105.5220  107.5155 C   0  0  0  0  0  0  0  0  0  0  0  0
  124.7125  107.6832  106.8451 C   0  0  0  0  0  0  0  0  0  0  0  0
  125.5738  106.3792  108.5672 C   0  0  0  0  0  0  0  0  0  0  0  0
  121.8684  104.5902  106.0955 C   0  0  0  0  0  0  0  0  0  0  0  0
  123.4248  106.9066  106.9751 C   0  0  1  0  0  0  0  0  0  0  0  0
  121.5368  106.0434  105.7529 C   0  0  2  0  0  0  0  0  0  0  0  0
  118.5727  106.6616  105.5694 C   0  0  0  0  0  0  0  0  0  0  0  0
  120.7832  106.1270  104.4275 C   0  0  2  0  0  0  0  0  0  0  0  0
  119.3009  105.7619  104.5777 C   0  0  1  0  0  0  0  0  0  0  0  0
  124.7187  105.3300  108.2902 N   0  0  0  0  0  0  0  0  0  0  0  0
  125.5953  107.4927  107.8808 N   0  0  0  0  0  0  0  0  0  0  0  0
  122.8061  104.5158  107.1973 N   0  0  0  0  0  0  0  0  0  0  0  0
  122.7839  106.8146  105.6620 N   0  0  0  0  0  0  0  0  0  0  0  0
  126.4548  106.2128  109.6091 N   0  0  0  0  0  0  0  0  0  0  0  0
  124.9121  108.4847  105.9363 O   0  0  0  0  0  0  0  0  0  0  0  0
  121.4023  105.2417  103.4977 O   0  0  0  0  0  0  0  0  0  0  0  0
  119.1646  104.4100  105.0114 O   0  0  0  0  0  0  0  0  0  0  0  0
  120.9555  104.0447  106.3581 H   0  0  0  0  0  0  0  0  0  0  0  0
  122.3146  104.0822  105.2319 H   0  0  0  0  0  0  0  0  0  0  0  0
  122.7832  107.4428  107.6856 H   0  0  0  0  0  0  0  0  0  0  0  0
  120.8970  106.4727  106.5354 H   0  0  0  0  0  0  0  0  0  0  0  0
  119.0351  106.6157  106.5598 H   0  0  0  0  0  0  0  0  0  0  0  0
  118.5614  107.7040  105.2330 H   0  0  0  0  0  0  0  0  0  0  0  0
  117.5250  106.3545  105.6598 H   0  0  0  0  0  0  0  0  0  0  0  0
  120.8680  107.1428  104.0270 H   0  0  0  0  0  0  0  0  0  0  0  0
  118.8074  105.8373  103.6023 H   0  0  0  0  0  0  0  0  0  0  0  0
  122.9506  103.5967  107.6063 H   0  0  0  0  0  0  0  0  0  0  0  0
  122.5750  107.7549  105.3256 H   0  0  0  0  0  0  0  0  0  0  0  0
  126.4331  105.3549  110.1064 H   0  0  0  0  0  0  0  0  0  0  0  0
  127.0750  106.9576  109.8198 H   0  0  0  0  0  0  0  0  0  0  0  0
  122.3200  105.5402  103.4013 H   0  0  0  0  0  0  0  0  0  0  0  0
  118.2139  104.2211  105.0288 H   0  0  0  0  0  0  0  0  0  0  0  0
  1  5  1  0  0  0  0
  1 10  2  0  0  0  0
  1 12  1  0  0  0  0
  2  5  1  0  0  0  0
  2 11  1  0  0  0  0
  2 15  2  0  0  0  0
  3 10  1  0  0  0  0
  3 11  2  0  0  0  0
  3 14  1  0  0  0  0
  4  6  1  0  0  0  0
  4 12  1  0  0  0  0
  5 13  1  0  0  0  0
  6  8  1  0  0  0  0
  6 13  1  0  0  0  0
  7  9  1  0  0  0  0
  8  9  1  0  0  0  0
  8 16  1  0  0  0  0
  9 17  1  0  0  0  0
  4 18  1  0  0  0  0
  4 19  1  0  0  0  0
  5 20  1  0  0  0  0
  6 21  1  0  0  0  0
  7 22  1  0  0  0  0
  7 23  1  0  0  0  0
  7 24  1  0  0  0  0
  8 25  1  0  0  0  0
  9 26  1  0  0  0  0
 12 27  1  0  0  0  0
 13 28  1  0  0  0  0
 14 29  1  0  0  0  0
 14 30  1  0  0  0  0
 16 31  1  0  0  0  0
 17 32  1  0  0  0  0
M  END
> <FRED Chemgauss4 score>
-8.180363

$$$$
C83918821	P131301165
  -OEChem-05122015313D

 36 35  0     1  0  0  0  0  0999 V2000
  125.0856  103.9049  107.9920 C   0  0  0  0  0  0  0  0  0  0  0  0
  116.1938  104.2406  103.6440 C   0  0  0  0  0  0  0  0  0  0  0  0
  124.6113  104.3933  106.6291 C   0  0  0  0  0  0  0  0  0  0  0  0
  119.5114  104.2123  106.1642 C   0  0  0  0  0  0  0  0  0  0  0  0
  120.9974  104.0041  105.8955 C   0  0  0  0  0  0  0  0  0  0  0  0
  124.7475  106.8524  107.2995 C   0  0  0  0  0  0  0  0  0  0  0  0
  118.6752  104.1433  104.8935 C   0  0  0  0  0  0  0  0  0  0  0  0
  123.8790  105.7436  106.6861 C   0  0  2  0  0  0  0  0  0  0  0  0
  125.9905  107.0460  106.5612 N   0  0  0  0  0  0  0  0  0  0  0  0
  121.8113  104.0930  107.1212 N   0  0  0  0  0  0  0  0  0  0  0  0
  116.4910  103.3270  106.0750 O   0  0  0  0  0  0  0  0  0  0  0  0
  116.7993  105.7969  105.6548 O   0  0  0  0  0  0  0  0  0  0  0  0
  122.7447  105.5594  109.0376 O   0  0  0  0  0  0  0  0  0  0  0  0
  121.4719  106.6372  107.1469 O   0  0  0  0  0  0  0  0  0  0  0  0
  116.9650  104.4152  105.2367 S   0  0  0  0  0  0  0  0  0  0  0  0
  122.3770  105.6178  107.6378 S   0  0  0  0  0  0  0  0  0  0  0  0
  124.2549  103.7970  108.6949 H   0  0  0  0  0  0  0  0  0  0  0  0
  125.5608  102.9236  107.8925 H   0  0  0  0  0  0  0  0  0  0  0  0
  125.8193  104.5933  108.4231 H   0  0  0  0  0  0  0  0  0  0  0  0
  115.1201  104.3948  103.7625 H   0  0  0  0  0  0  0  0  0  0  0  0
  116.6160  104.9901  102.9730 H   0  0  0  0  0  0  0  0  0  0  0  0
  116.3970  103.2355  103.2714 H   0  0  0  0  0  0  0  0  0  0  0  0
  125.4946  104.4757  105.9852 H   0  0  0  0  0  0  0  0  0  0  0  0
  123.9626  103.6298  106.1828 H   0  0  0  0  0  0  0  0  0  0  0  0
  119.3723  105.1930  106.6356 H   0  0  0  0  0  0  0  0  0  0  0  0
  119.1522  103.4654  106.8832 H   0  0  0  0  0  0  0  0  0  0  0  0
  121.1819  103.0251  105.4419 H   0  0  0  0  0  0  0  0  0  0  0  0
  121.3670  104.7737  105.2107 H   0  0  0  0  0  0  0  0  0  0  0  0
  124.1924  107.7974  107.3229 H   0  0  0  0  0  0  0  0  0  0  0  0
  124.9946  106.6029  108.3381 H   0  0  0  0  0  0  0  0  0  0  0  0
  118.9800  104.9099  104.1749 H   0  0  0  0  0  0  0  0  0  0  0  0
  118.7468  103.1622  104.4152 H   0  0  0  0  0  0  0  0  0  0  0  0
  123.5632  106.0414  105.6785 H   0  0  0  0  0  0  0  0  0  0  0  0
  126.7732  107.4272  107.0487 H   0  0  0  0  0  0  0  0  0  0  0  0
  125.9608  106.9867  105.5656 H   0  0  0  0  0  0  0  0  0  0  0  0
  121.5364  103.4259  107.8539 H   0  0  0  0  0  0  0  0  0  0  0  0
  1  3  1  0  0  0  0
  2 15  1  0  0  0  0
  3  8  1  0  0  0  0
  4  5  1  0  0  0  0
  4  7  1  0  0  0  0
  5 10  1  0  0  0  0
  6  8  1  0  0  0  0
  6  9  1  0  0  0  0
  7 15  1  0  0  0  0
  8 16  1  0  0  0  0
 10 16  1  0  0  0  0
 11 15  2  0  0  0  0
 12 15  2  0  0  0  0
 13 16  2  0  0  0  0
 14 16  2  0  0  0  0
  1 17  1  0  0  0  0
  1 18  1  0  0  0  0
  1 19  1  0  0  0  0
  2 20  1  0  0  0  0
  2 21  1  0  0  0  0
  2 22  1  0  0  0  0
  3 23  1  0  0  0  0
  3 24  1  0  0  0  0
  4 25  1  0  0  0  0
  4 26  1  0  0  0  0
  5 27  1  0  0  0  0
  5 28  1  0  0  0  0
  6 29  1  0  0  0  0
  6 30  1  0  0  0  0
  7 31  1  0  0  0  0
  7 32  1  0  0  0  0
  8 33  1  0  0  0  0
  9 34  1  0  0  0  0
  9 35  1  0  0  0  0
 10 36  1  0  0  0  0
M  END
> <FRED Chemgauss4 score>
-8.180291

$$$$
C52815753	P79155819
  -OEChem-05122015313D

 20 20  0     0  0  0  0  0  0999 V2000
  125.7132  106.2868  108.3780 C   0  0  0  0  0  0  0  0  0  0  0  0
  125.0528  107.3764  108.9178 C   0  0  0  0  0  0  0  0  0  0  0  0
  126.2757  106.4278  107.1253 C   0  0  0  0  0  0  0  0  0  0  0  0
  124.9989  108.5351  108.1694 C   0  0  0  0  0  0  0  0  0  0  0  0
  122.2574  109.1622  109.9271 C   0  0  0  0  0  0  0  0  0  0  0  0
  123.7031  109.6238  110.0028 C   0  0  0  0  0  0  0  0  0  0  0  0
  126.2076  107.5739  106.4153 N   0  0  0  0  0  0  0  0  0  0  0  0
  125.5588  108.6449  106.9461 N   0  0  0  0  0  0  0  0  0  0  0  0
  121.4659  109.9963  109.0631 N   0  0  0  0  0  0  0  0  0  0  0  0
  124.3354  109.6284  108.7114 N   0  0  0  0  0  0  0  0  0  0  0  0
  125.7873  105.3523  108.9221 H   0  0  0  0  0  0  0  0  0  0  0  0
  124.5965  107.3076  109.8997 H   0  0  0  0  0  0  0  0  0  0  0  0
  126.8060  105.6120  106.6480 H   0  0  0  0  0  0  0  0  0  0  0  0
  121.7834  109.1704  110.9137 H   0  0  0  0  0  0  0  0  0  0  0  0
  122.2081  108.1454  109.5253 H   0  0  0  0  0  0  0  0  0  0  0  0
  123.7545  110.6464  110.3893 H   0  0  0  0  0  0  0  0  0  0  0  0
  124.2951  108.9754  110.6567 H   0  0  0  0  0  0  0  0  0  0  0  0
  121.6140  110.9928  109.0719 H   0  0  0  0  0  0  0  0  0  0  0  0
  120.6487  109.6081  108.6197 H   0  0  0  0  0  0  0  0  0  0  0  0
  124.2963  110.4799  108.1572 H   0  0  0  0  0  0  0  0  0  0  0  0
  1  2  1  0  0  0  0
  1  3  2  0  0  0  0
  2  4  2  0  0  0  0
  3  7  1  0  0  0  0
  4  8  1  0  0  0  0
  4 10  1  0  0  0  0
  5  6  1  0  0  0  0
  5  9  1  0  0  0  0
  6 10  1  0  0  0  0
  7  8  2  0  0  0  0
  1 11  1  0  0  0  0
  2 12  1  0  0  0  0
  3 13  1  0  0  0  0
  5 14  1  0  0  0  0
  5 15  1  0  0  0  0
  6 16  1  0  0  0  0
  6 17  1  0  0  0  0
  9 18  1  0  0  0  0
  9 19  1  0  0  0  0
 10 20  1  0  0  0  0
M  END
> <FRED Chemgauss4 score>
-8.176931

$$$$
C43515613	P65814635
  -OEChem-05122015313D

 20 20  0     0  0  0  0  0  0999 V2000
  125.5647  108.5889  108.1998 C   0  0  0  0  0  0  0  0  0  0  0  0
  125.1004  107.4494  108.8135 C   0  0  0  0  0  0  0  0  0  0  0  0
  124.6230  107.4579  106.6621 C   0  0  0  0  0  0  0  0  0  0  0  0
  123.8355  105.4190  107.9574 C   0  0  0  0  0  0  0  0  0  0  0  0
  122.7700  105.2444  108.7879 C   0  0  0  0  0  0  0  0  0  0  0  0
  124.4705  104.3518  107.1001 C   0  0  0  0  0  0  0  0  0  0  0  0
  125.2641  108.5882  106.8607 N   0  0  0  0  0  0  0  0  0  0  0  0
  124.4991  106.7350  107.8159 N   0  0  0  0  0  0  0  0  0  0  0  0
  122.2612  106.2862  109.5340 N   0  0  0  0  0  0  0  0  0  0  0  0
  122.1674  104.0149  108.9272 N   0  0  0  0  0  0  0  0  0  0  0  0
  126.1000  109.4095  108.6548 H   0  0  0  0  0  0  0  0  0  0  0  0
  125.1469  107.1036  109.8374 H   0  0  0  0  0  0  0  0  0  0  0  0
  124.2299  107.1179  105.7129 H   0  0  0  0  0  0  0  0  0  0  0  0
  123.9925  104.3203  106.1149 H   0  0  0  0  0  0  0  0  0  0  0  0
  124.3600  103.3652  107.5657 H   0  0  0  0  0  0  0  0  0  0  0  0
  125.5426  104.4969  106.9480 H   0  0  0  0  0  0  0  0  0  0  0  0
  122.6912  107.1986  109.4485 H   0  0  0  0  0  0  0  0  0  0  0  0
  121.4642  106.1591  110.1433 H   0  0  0  0  0  0  0  0  0  0  0  0
  122.5064  103.1976  108.4399 H   0  0  0  0  0  0  0  0  0  0  0  0
  121.3920  103.9280  109.5723 H   0  0  0  0  0  0  0  0  0  0  0  0
  1  2  2  0  0  0  0
  1  7  1  0  0  0  0
  2  8  1  0  0  0  0
  3  7  2  0  0  0  0
  3  8  1  0  0  0  0
  4  5  2  0  0  0  0
  4  6  1  0  0  0  0
  4  8  1  0  0  0  0
  5  9  1  0  0  0  0
  5 10  1  0  0  0  0
  1 11  1  0  0  0  0
  2 12  1  0  0  0  0
  3 13  1  0  0  0  0
  6 14  1  0  0  0  0
  6 15  1  0  0  0  0
  6 16  1  0  0  0  0
  9 17  1  0  0  0  0
  9 18  1  0  0  0  0
 10 19  1  0  0  0  0
 10 20  1  0  0  0  0
M  END
> <FRED Chemgauss4 score>
-8.167801

$$$$
C82399830	P128760099
  -OEChem-05122015313D

 20 20  0     1  0  0  0  0  0999 V2000
  126.0660  107.3463  107.4053 C   0  0  0  0  0  0  0  0  0  0  0  0
  124.1100  107.0811  108.7793 C   0  0  0  0  0  0  0  0  0  0  0  0
  125.9475  108.7138  107.5947 C   0  0  0  0  0  0  0  0  0  0  0  0
  125.1256  106.5213  108.0123 C   0  0  0  0  0  0  0  0  0  0  0  0
  124.0792  108.4604  108.9074 C   0  0  0  0  0  0  0  0  0  0  0  0
  121.5869  108.8070  109.1945 C   0  0  0  0  0  0  0  0  0  0  0  0
  123.0031  109.0951  109.7239 C   0  0  2  0  0  0  0  0  0  0  0  0
  124.9749  109.2941  108.3327 N   0  0  0  0  0  0  0  0  0  0  0  0
  123.1851  110.5344  109.8334 N   0  0  0  0  0  0  0  0  0  0  0  0
  121.4660  109.2712  107.8538 O   0  0  0  0  0  0  0  0  0  0  0  0
  125.2186  104.8153  107.8136 Cl  0  0  0  0  0  0  0  0  0  0  0  0
  126.8721  106.9448  106.8002 H   0  0  0  0  0  0  0  0  0  0  0  0
  123.3628  106.4607  109.2645 H   0  0  0  0  0  0  0  0  0  0  0  0
  126.6560  109.4001  107.1427 H   0  0  0  0  0  0  0  0  0  0  0  0
  121.3920  107.7289  109.1906 H   0  0  0  0  0  0  0  0  0  0  0  0
  120.8185  109.3003  109.7998 H   0  0  0  0  0  0  0  0  0  0  0  0
  123.0478  108.7360  110.7675 H   0  0  0  0  0  0  0  0  0  0  0  0
  124.1164  110.8913  109.8984 H   0  0  0  0  0  0  0  0  0  0  0  0
  122.3874  111.0988  110.0439 H   0  0  0  0  0  0  0  0  0  0  0  0
  120.5612  109.0666  107.5699 H   0  0  0  0  0  0  0  0  0  0  0  0
  1  3  1  0  0  0  0
  1  4  2  0  0  0  0
  2  4  1  0  0  0  0
  2  5  2  0  0  0  0
  3  8  2  0  0  0  0
  4 11  1  0  0  0  0
  5  7  1  0  0  0  0
  5  8  1  0  0  0  0
  6  7  1  0  0  0  0
  6 10  1  0  0  0  0
  7  9  1  0  0  0  0
  1 12  1  0  0  0  0
  2 13  1  0  0  0  0
  3 14  1  0  0  0  0
  6 15  1  0  0  0  0
  6 16  1  0  0  0  0
  7 17  1  0  0  0  0
  9 18  1  0  0  0  0
  9 19  1  0  0  0  0
 10 20  1  0  0  0  0
M  END
> <FRED Chemgauss4 score>
-8.166782

$$$$
C86451957	P135357207
  -OEChem-05122015313D

 31 31  0     1  0  0  0  0  0999 V2000
  124.7509  109.5884  107.7335 C   0  0  0  0  0  0  0  0  0  0  0  0
  124.2055  107.8060  108.9000 C   0  0  0  0  0  0  0  0  0  0  0  0
  124.5877  108.1934  107.6389 C   0  0  0  0  0  0  0  0  0  0  0  0
  123.5678  110.4845  111.4702 C   0  0  0  0  0  0  0  0  0  0  0  0
  121.2787  106.7917  105.2611 C   0  0  0  0  0  0  0  0  0  0  0  0
  123.8588  104.4717  107.1865 C   0  0  0  0  0  0  0  0  0  0  0  0
  123.8122  109.0482  111.0403 C   0  0  0  0  0  0  0  0  0  0  0  0
  124.7865  107.3106  106.4148 C   0  0  1  0  0  0  0  0  0  0  0  0
  123.5122  106.5209  106.0209 C   0  0  0  0  0  0  0  0  0  0  0  0
  124.4933  110.0558  108.9579 N   0  0  0  0  0  0  0  0  0  0  0  0
  124.1643  108.9482  109.6443 N   0  0  0  0  0  0  0  0  0  0  0  0
  125.3067  108.0659  105.2669 N   0  0  0  0  0  0  0  0  0  0  0  0
  122.4718  107.4456  105.6717 O   0  0  0  0  0  0  0  0  0  0  0  0
  123.1071  105.6749  107.1054 O   0  0  0  0  0  0  0  0  0  0  0  0
  125.0458  110.2862  106.9625 H   0  0  0  0  0  0  0  0  0  0  0  0
  123.9641  106.8392  109.3204 H   0  0  0  0  0  0  0  0  0  0  0  0
  124.4567  111.1031  111.3070 H   0  0  0  0  0  0  0  0  0  0  0  0
  123.3151  110.5243  112.5343 H   0  0  0  0  0  0  0  0  0  0  0  0
  122.7423  110.9311  110.9061 H   0  0  0  0  0  0  0  0  0  0  0  0
  120.5219  107.5382  105.0076 H   0  0  0  0  0  0  0  0  0  0  0  0
  120.9170  106.1505  106.0689 H   0  0  0  0  0  0  0  0  0  0  0  0
  121.4931  106.1803  104.3815 H   0  0  0  0  0  0  0  0  0  0  0  0
  123.5025  103.8747  108.0295 H   0  0  0  0  0  0  0  0  0  0  0  0
  124.9174  104.7105  107.3170 H   0  0  0  0  0  0  0  0  0  0  0  0
  123.7262  103.9066  106.2609 H   0  0  0  0  0  0  0  0  0  0  0  0
  122.9178  108.4374  111.2075 H   0  0  0  0  0  0  0  0  0  0  0  0
  124.6244  108.6026  111.6259 H   0  0  0  0  0  0  0  0  0  0  0  0
  125.5704  106.5863  106.6685 H   0  0  0  0  0  0  0  0  0  0  0  0
  123.7300  105.9091  105.1339 H   0  0  0  0  0  0  0  0  0  0  0  0
  125.1960  107.6663  104.3649 H   0  0  0  0  0  0  0  0  0  0  0  0
  125.9157  108.8271  105.4549 H   0  0  0  0  0  0  0  0  0  0  0  0
  1  3  1  0  0  0  0
  1 10  2  0  0  0  0
  2  3  2  0  0  0  0
  2 11  1  0  0  0  0
  3  8  1  0  0  0  0
  4  7  1  0  0  0  0
  5 13  1  0  0  0  0
  6 14  1  0  0  0  0
  7 11  1  0  0  0  0
  8  9  1  0  0  0  0
  8 12  1  0  0  0  0
  9 13  1  0  0  0  0
  9 14  1  0  0  0  0
 10 11  1  0  0  0  0
  1 15  1  0  0  0  0
  2 16  1  0  0  0  0
  4 17  1  0  0  0  0
  4 18  1  0  0  0  0
  4 19  1  0  0  0  0
  5 20  1  0  0  0  0
  5 21  1  0  0  0  0
  5 22  1  0  0  0  0
  6 23  1  0  0  0  0
  6 24  1  0  0  0  0
  6 25  1  0  0  0  0
  7 26  1  0  0  0  0
  7 27  1  0  0  0  0
  8 28  1  0  0  0  0
  9 29  1  0  0  0  0
 12 30  1  0  0  0  0
 12 31  1  0  0  0  0
M  END
> <FRED Chemgauss4 score>
-8.165786

$$$$
C82900115	P129596089
  -OEChem-05122015313D

 32 32  0     1  0  0  0  0  0999 V2000
  119.1498  104.3666  104.4720 C   0  0  0  0  0  0  0  0  0  0  0  0
  120.4332  105.0138  104.9285 C   0  0  0  0  0  0  0  0  0  0  0  0
  118.5626  103.8791  105.7797 C   0  0  0  0  0  0  0  0  0  0  0  0
  120.8716  104.0693  106.0344 C   0  0  1  0  0  0  0  0  0  0  0  0
  121.7554  104.7265  107.0766 C   0  0  0  0  0  0  0  0  0  0  0  0
  125.3319  105.4535  107.0903 C   0  0  0  0  0  0  0  0  0  0  0  0
  123.8509  105.7725  107.2700 C   0  0  0  0  0  0  0  0  0  0  0  0
  126.0416  107.8887  107.2503 C   0  0  0  0  0  0  0  0  0  0  0  0
  126.2458  106.4703  107.7871 C   0  0  1  0  0  0  0  0  0  0  0  0
  126.0464  106.4511  109.2191 N   0  0  0  0  0  0  0  0  0  0  0  0
  119.6655  103.5872  106.6508 O   0  0  0  0  0  0  0  0  0  0  0  0
  127.1616  108.7084  107.5594 O   0  0  0  0  0  0  0  0  0  0  0  0
  123.0852  104.7933  106.5802 O   0  0  0  0  0  0  0  0  0  0  0  0
  118.4834  105.0430  103.9305 H   0  0  0  0  0  0  0  0  0  0  0  0
  119.3744  103.5131  103.8213 H   0  0  0  0  0  0  0  0  0  0  0  0
  121.1772  105.1120  104.1333 H   0  0  0  0  0  0  0  0  0  0  0  0
  120.2196  106.0136  105.3256 H   0  0  0  0  0  0  0  0  0  0  0  0
  117.9589  104.6581  106.2573 H   0  0  0  0  0  0  0  0  0  0  0  0
  117.9444  102.9857  105.6551 H   0  0  0  0  0  0  0  0  0  0  0  0
  121.3874  103.2003  105.6091 H   0  0  0  0  0  0  0  0  0  0  0  0
  121.7539  104.1446  108.0032 H   0  0  0  0  0  0  0  0  0  0  0  0
  121.4075  105.7415  107.2903 H   0  0  0  0  0  0  0  0  0  0  0  0
  125.5539  105.3987  106.0166 H   0  0  0  0  0  0  0  0  0  0  0  0
  125.5237  104.4481  107.4867 H   0  0  0  0  0  0  0  0  0  0  0  0
  123.6032  106.7556  106.8580 H   0  0  0  0  0  0  0  0  0  0  0  0
  123.5725  105.7482  108.3284 H   0  0  0  0  0  0  0  0  0  0  0  0
  125.1535  108.3413  107.7039 H   0  0  0  0  0  0  0  0  0  0  0  0
  125.9108  107.8795  106.1628 H   0  0  0  0  0  0  0  0  0  0  0  0
  127.2930  106.1897  107.6234 H   0  0  0  0  0  0  0  0  0  0  0  0
  126.3100  107.2581  109.7547 H   0  0  0  0  0  0  0  0  0  0  0  0
  125.8456  105.5757  109.6675 H   0  0  0  0  0  0  0  0  0  0  0  0
  126.9729  109.5883  107.1954 H   0  0  0  0  0  0  0  0  0  0  0  0
  1  2  1  0  0  0  0
  1  3  1  0  0  0  0
  2  4  1  0  0  0  0
  3 11  1  0  0  0  0
  4  5  1  0  0  0  0
  4 11  1  0  0  0  0
  5 13  1  0  0  0  0
  6  7  1  0  0  0  0
  6  9  1  0  0  0  0
  7 13  1  0  0  0  0
  8  9  1  0  0  0  0
  8 12  1  0  0  0  0
  9 10  1  0  0  0  0
  1 14  1  0  0  0  0
  1 15  1  0  0  0  0
  2 16  1  0  0  0  0
  2 17  1  0  0  0  0
  3 18  1  0  0  0  0
  3 19  1  0  0  0  0
  4 20  1  0  0  0  0
  5 21  1  0  0  0  0
  5 22  1  0  0  0  0
  6 23  1  0  0  0  0
  6 24  1  0  0  0  0
  7 25  1  0  0  0  0
  7 26  1  0  0  0  0
  8 27  1  0  0  0  0
  8 28  1  0  0  0  0
  9 29  1  0  0  0  0
 10 30  1  0  0  0  0
 10 31  1  0  0  0  0
 12 32  1  0  0  0  0
M  END
> <FRED Chemgauss4 score>
-8.163434

$$$$
C45059901	P67910381
  -OEChem-05122015313D

 25 24  0     0  0  0  0  0  0999 V2000
  126.0031  107.1197  107.6994 C   0  0  0  0  0  0  0  0  0  0  0  0
  123.4565  105.6308  106.2546 C   0  0  0  0  0  0  0  0  0  0  0  0
  124.8029  104.1452  107.6866 C   0  0  0  0  0  0  0  0  0  0  0  0
  119.9813  104.4106  106.2456 C   0  0  0  0  0  0  0  0  0  0  0  0
  125.9319  106.0573  106.6206 C   0  0  0  0  0  0  0  0  0  0  0  0
  122.2851  104.7291  106.5826 C   0  0  0  0  0  0  0  0  0  0  0  0
  124.8688  107.5997  108.1165 N   0  0  0  0  0  0  0  0  0  0  0  0
  127.2638  107.4558  108.1353 N   0  0  0  0  0  0  0  0  0  0  0  0
  124.6906  105.3143  106.8232 N   0  0  0  0  0  0  0  0  0  0  0  0
  123.2690  106.6000  105.5127 O   0  0  0  0  0  0  0  0  0  0  0  0
  125.0889  108.5583  109.1100 O   0  0  0  0  0  0  0  0  0  0  0  0
  121.1160  105.2260  105.9671 O   0  0  0  0  0  0  0  0  0  0  0  0
  125.0587  103.2633  107.0936 H   0  0  0  0  0  0  0  0  0  0  0  0
  123.8549  103.9616  108.1994 H   0  0  0  0  0  0  0  0  0  0  0  0
  125.5824  104.3030  108.4369 H   0  0  0  0  0  0  0  0  0  0  0  0
  119.1009  104.8293  105.7520 H   0  0  0  0  0  0  0  0  0  0  0  0
  119.8199  104.3658  107.3256 H   0  0  0  0  0  0  0  0  0  0  0  0
  120.1652  103.4033  105.8645 H   0  0  0  0  0  0  0  0  0  0  0  0
  126.7720  105.3621  106.6931 H   0  0  0  0  0  0  0  0  0  0  0  0
  125.9088  106.5120  105.6266 H   0  0  0  0  0  0  0  0  0  0  0  0
  122.4751  103.7018  106.2611 H   0  0  0  0  0  0  0  0  0  0  0  0
  122.1332  104.7075  107.6668 H   0  0  0  0  0  0  0  0  0  0  0  0
  128.0966  107.0157  107.7584 H   0  0  0  0  0  0  0  0  0  0  0  0
  127.3965  108.1561  108.8570 H   0  0  0  0  0  0  0  0  0  0  0  0
  124.1801  108.8273  109.3261 H   0  0  0  0  0  0  0  0  0  0  0  0
  1  5  1  0  0  0  0
  1  7  2  0  0  0  0
  1  8  1  0  0  0  0
  2  6  1  0  0  0  0
  2  9  1  0  0  0  0
  2 10  2  0  0  0  0
  3  9  1  0  0  0  0
  4 12  1  0  0  0  0
  5  9  1  0  0  0  0
  6 12  1  0  0  0  0
  7 11  1  0  0  0  0
  3 13  1  0  0  0  0
  3 14  1  0  0  0  0
  3 15  1  0  0  0  0
  4 16  1  0  0  0  0
  4 17  1  0  0  0  0
  4 18  1  0  0  0  0
  5 19  1  0  0  0  0
  5 20  1  0  0  0  0
  6 21  1  0  0  0  0
  6 22  1  0  0  0  0
  8 23  1  0  0  0  0
  8 24  1  0  0  0  0
 11 25  1  0  0  0  0
M  END
> <FRED Chemgauss4 score>
-8.161346

$$$$
C72210676	P112179503
  -OEChem-05122015313D

 20 20  0     0  0  0  0  0  0999 V2000
  126.3059  105.6124  109.0349 C   0  0  0  0  0  0  0  0  0  0  0  0
  126.1013  104.2741  108.7307 C   0  0  0  0  0  0  0  0  0  0  0  0
  124.8275  104.8443  106.8424 C   0  0  0  0  0  0  0  0  0  0  0  0
  125.7469  106.5810  108.2067 C   0  0  0  0  0  0  0  0  0  0  0  0
  124.9989  106.1975  107.0976 C   0  0  0  0  0  0  0  0  0  0  0  0
  126.6039  108.8490  107.6173 C   0  0  0  0  0  0  0  0  0  0  0  0
  125.3768  103.9326  107.6563 N   0  3  0  0  0  0  0  0  0  0  0  0
  125.9519  107.9444  108.5114 N   0  0  0  0  0  0  0  0  0  0  0  0
  125.3108  107.5989  105.0064 O   0  5  0  0  0  0  0  0  0  0  0  0
  123.0609  106.7193  105.4883 O   0  0  0  0  0  0  0  0  0  0  0  0
  123.9911  108.5181  106.8885 O   0  0  0  0  0  0  0  0  0  0  0  0
  124.2718  107.3650  106.0202 S   0  0  0  0  0  0  0  0  0  0  0  0
  126.8933  105.8863  109.9059 H   0  0  0  0  0  0  0  0  0  0  0  0
  126.4967  103.4557  109.3163 H   0  0  0  0  0  0  0  0  0  0  0  0
  124.2653  104.4466  106.0085 H   0  0  0  0  0  0  0  0  0  0  0  0
  126.8989  108.3268  106.7034 H   0  0  0  0  0  0  0  0  0  0  0  0
  127.4979  109.2670  108.0879 H   0  0  0  0  0  0  0  0  0  0  0  0
  125.9313  109.6692  107.3524 H   0  0  0  0  0  0  0  0  0  0  0  0
  125.2388  102.9435  107.4510 H   0  0  0  0  0  0  0  0  0  0  0  0
  125.6172  108.2651  109.3996 H   0  0  0  0  0  0  0  0  0  0  0  0
  1  2  2  0  0  0  0
  1  4  1  0  0  0  0
  2  7  1  0  0  0  0
  3  5  1  0  0  0  0
  3  7  2  0  0  0  0
  4  5  2  0  0  0  0
  4  8  1  0  0  0  0
  5 12  1  0  0  0  0
  6  8  1  0  0  0  0
  9 12  1  0  0  0  0
 10 12  2  0  0  0  0
 11 12  2  0  0  0  0
  1 13  1  0  0  0  0
  2 14  1  0  0  0  0
  3 15  1  0  0  0  0
  6 16  1  0  0  0  0
  6 17  1  0  0  0  0
  6 18  1  0  0  0  0
  7 19  1  0  0  0  0
  8 20  1  0  0  0  0
M  CHG  2   7   1   9  -1
M  END
> <FRED Chemgauss4 score>
-8.158211

$$$$
C54793127	P82471189
  -OEChem-05122015313D

 21 21  0     0  0  0  0  0  0999 V2000
  122.1285  104.9170  106.0927 C   0  0  0  0  0  0  0  0  0  0  0  0
  123.1656  104.9452  107.0027 C   0  0  0  0  0  0  0  0  0  0  0  0
  122.0051  106.0352  105.2934 C   0  0  0  0  0  0  0  0  0  0  0  0
  123.7975  107.0108  106.2947 C   0  0  0  0  0  0  0  0  0  0  0  0
  125.9724  107.8872  107.2255 C   0  0  0  0  0  0  0  0  0  0  0  0
  120.9126  106.0967  104.2794 C   0  0  0  0  0  0  0  0  0  0  0  0
  124.7236  108.1739  106.4075 C   0  0  0  0  0  0  0  0  0  0  0  0
  124.0223  105.9796  107.1311 N   0  0  0  0  0  0  0  0  0  0  0  0
  122.8249  107.1041  105.3679 N   0  0  0  0  0  0  0  0  0  0  0  0
  126.0554  108.6640  108.3618 N   0  0  0  0  0  0  0  0  0  0  0  0
  126.8182  107.0559  106.9077 O   0  0  0  0  0  0  0  0  0  0  0  0
  120.5213  107.4507  104.0889 O   0  0  0  0  0  0  0  0  0  0  0  0
  121.4610  104.0683  106.0190 H   0  0  0  0  0  0  0  0  0  0  0  0
  123.3420  104.1115  107.6744 H   0  0  0  0  0  0  0  0  0  0  0  0
  121.2386  105.6862  103.3141 H   0  0  0  0  0  0  0  0  0  0  0  0
  120.0371  105.5184  104.6044 H   0  0  0  0  0  0  0  0  0  0  0  0
  125.0433  108.5109  105.4077 H   0  0  0  0  0  0  0  0  0  0  0  0
  124.2053  109.0338  106.8627 H   0  0  0  0  0  0  0  0  0  0  0  0
  125.3211  109.3350  108.5638 H   0  0  0  0  0  0  0  0  0  0  0  0
  126.8401  108.5744  108.9987 H   0  0  0  0  0  0  0  0  0  0  0  0
  119.8128  107.4459  103.4255 H   0  0  0  0  0  0  0  0  0  0  0  0
  1  2  1  0  0  0  0
  1  3  2  0  0  0  0
  2  8  2  0  0  0  0
  3  6  1  0  0  0  0
  3  9  1  0  0  0  0
  4  7  1  0  0  0  0
  4  8  1  0  0  0  0
  4  9  2  0  0  0  0
  5  7  1  0  0  0  0
  5 10  1  0  0  0  0
  5 11  2  0  0  0  0
  6 12  1  0  0  0  0
  1 13  1  0  0  0  0
  2 14  1  0  0  0  0
  6 15  1  0  0  0  0
  6 16  1  0  0  0  0
  7 17  1  0  0  0  0
  7 18  1  0  0  0  0
 10 19  1  0  0  0  0
 10 20  1  0  0  0  0
 12 21  1  0  0  0  0
M  END
> <FRED Chemgauss4 score>
-8.151944

$$$$
C19258164	P28484676
  -OEChem-05122015313D

 23 23  0     1  0  0  0  0  0999 V2000
  123.3820  106.0927  106.1205 C   0  0  0  0  0  0  0  0  0  0  0  0
  124.5267  104.6429  107.4470 C   0  0  0  0  0  0  0  0  0  0  0  0
  122.4768  104.8955  106.3075 C   0  0  0  0  0  0  0  0  0  0  0  0
  125.6631  106.7987  106.8665 C   0  0  0  0  0  0  0  0  0  0  0  0
  124.8016  107.9655  108.9616 C   0  0  0  0  0  0  0  0  0  0  0  0
  125.2943  108.1296  107.5236 C   0  0  1  0  0  0  0  0  0  0  0  0
  123.2918  104.0626  107.1474 N   0  0  0  0  0  0  0  0  0  0  0  0
  124.5604  105.8764  106.8125 N   0  0  0  0  0  0  0  0  0  0  0  0
  124.0499  109.1343  109.3630 N   0  0  0  0  0  0  0  0  0  0  0  0
  123.0825  107.0754  105.4554 O   0  0  0  0  0  0  0  0  0  0  0  0
  125.3995  104.1394  108.1420 O   0  0  0  0  0  0  0  0  0  0  0  0
  126.4342  108.9891  107.5229 O   0  0  0  0  0  0  0  0  0  0  0  0
  121.5604  105.1658  106.8344 H   0  0  0  0  0  0  0  0  0  0  0  0
  122.2835  104.3881  105.3610 H   0  0  0  0  0  0  0  0  0  0  0  0
  126.0108  106.9540  105.8404 H   0  0  0  0  0  0  0  0  0  0  0  0
  126.4574  106.2997  107.4308 H   0  0  0  0  0  0  0  0  0  0  0  0
  125.6404  107.8441  109.6547 H   0  0  0  0  0  0  0  0  0  0  0  0
  124.1516  107.0885  109.0461 H   0  0  0  0  0  0  0  0  0  0  0  0
  124.5200  108.6177  106.9191 H   0  0  0  0  0  0  0  0  0  0  0  0
  123.0016  103.1508  107.4867 H   0  0  0  0  0  0  0  0  0  0  0  0
  124.3629  110.0379  109.0586 H   0  0  0  0  0  0  0  0  0  0  0  0
  123.3655  109.0416  110.0913 H   0  0  0  0  0  0  0  0  0  0  0  0
  126.6807  109.1161  106.5944 H   0  0  0  0  0  0  0  0  0  0  0  0
  1  3  1  0  0  0  0
  1  8  1  0  0  0  0
  1 10  2  0  0  0  0
  2  7  1  0  0  0  0
  2  8  1  0  0  0  0
  2 11  2  0  0  0  0
  3  7  1  0  0  0  0
  4  6  1  0  0  0  0
  4  8  1  0  0  0  0
  5  6  1  0  0  0  0
  5  9  1  0  0  0  0
  6 12  1  0  0  0  0
  3 13  1  0  0  0  0
  3 14  1  0  0  0  0
  4 15  1  0  0  0  0
  4 16  1  0  0  0  0
  5 17  1  0  0  0  0
  5 18  1  0  0  0  0
  6 19  1  0  0  0  0
  7 20  1  0  0  0  0
  9 21  1  0  0  0  0
  9 22  1  0  0  0  0
 12 23  1  0  0  0  0
M  END
> <FRED Chemgauss4 score>
-8.149776

$$$$
C50445595	P75433552
  -OEChem-05122015313D

 21 21  0     0  0  0  0  0  0999 V2000
  124.3326  107.7861  109.1428 C   0  0  0  0  0  0  0  0  0  0  0  0
  125.2445  108.6690  108.4695 C   0  0  0  0  0  0  0  0  0  0  0  0
  124.3651  106.4767  108.8819 C   0  0  0  0  0  0  0  0  0  0  0  0
  126.1406  108.2212  107.5758 C   0  0  0  0  0  0  0  0  0  0  0  0
  126.1813  106.7406  107.2779 C   0  0  0  0  0  0  0  0  0  0  0  0
  125.2197  104.5019  107.7558 C   0  0  0  0  0  0  0  0  0  0  0  0
  124.0296  104.1526  106.8810 C   0  0  0  0  0  0  0  0  0  0  0  0
  125.2606  105.9439  107.9735 N   0  0  0  0  0  0  0  0  0  0  0  0
  127.0329  109.0023  106.9024 N   0  0  0  0  0  0  0  0  0  0  0  0
  126.9965  106.3097  106.4612 O   0  0  0  0  0  0  0  0  0  0  0  0
  122.8298  104.5361  107.5407 O   0  0  0  0  0  0  0  0  0  0  0  0
  123.6304  108.2031  109.8549 H   0  0  0  0  0  0  0  0  0  0  0  0
  125.1806  109.7248  108.7144 H   0  0  0  0  0  0  0  0  0  0  0  0
  123.6906  105.7841  109.3727 H   0  0  0  0  0  0  0  0  0  0  0  0
  125.1532  104.0096  108.7312 H   0  0  0  0  0  0  0  0  0  0  0  0
  126.1522  104.2040  107.2670 H   0  0  0  0  0  0  0  0  0  0  0  0
  123.9923  103.0717  106.7132 H   0  0  0  0  0  0  0  0  0  0  0  0
  124.0779  104.6626  105.9133 H   0  0  0  0  0  0  0  0  0  0  0  0
  127.0336  109.9843  107.0749 H   0  0  0  0  0  0  0  0  0  0  0  0
  127.6574  108.5678  106.2581 H   0  0  0  0  0  0  0  0  0  0  0  0
  122.0974  104.2964  106.9504 H   0  0  0  0  0  0  0  0  0  0  0  0
  1  2  1  0  0  0  0
  1  3  2  0  0  0  0
  2  4  2  0  0  0  0
  3  8  1  0  0  0  0
  4  5  1  0  0  0  0
  4  9  1  0  0  0  0
  5  8  1  0  0  0  0
  5 10  2  0  0  0  0
  6  7  1  0  0  0  0
  6  8  1  0  0  0  0
  7 11  1  0  0  0  0
  1 12  1  0  0  0  0
  2 13  1  0  0  0  0
  3 14  1  0  0  0  0
  6 15  1  0  0  0  0
  6 16  1  0  0  0  0
  7 17  1  0  0  0  0
  7 18  1  0  0  0  0
  9 19  1  0  0  0  0
  9 20  1  0  0  0  0
 11 21  1  0  0  0  0
M  END
> <FRED Chemgauss4 score>
-8.149027

$$$$
C13544124	P57737090
  -OEChem-05122015313D

 25 25  0     1  0  0  0  0  0999 V2000
  125.7184  108.0095  107.6670 C   0  0  1  0  0  0  0  0  0  0  0  0
  126.5791  106.7590  107.4576 C   0  0  2  0  0  0  0  0  0  0  0  0
  124.6094  108.0863  106.6150 C   0  0  2  0  0  0  0  0  0  0  0  0
  125.7507  105.4790  107.2738 C   0  0  1  0  0  0  0  0  0  0  0  0
  123.8424  106.7549  106.5220 C   0  0  1  0  0  0  0  0  0  0  0  0
  125.1686  104.8772  108.5527 C   0  0  0  0  0  0  0  0  0  0  0  0
  122.8298  106.8326  105.4687 N   0  0  0  0  0  0  0  0  0  0  0  0
  124.7406  105.6679  106.2763 O   0  0  0  0  0  0  0  0  0  0  0  0
  125.1153  107.9962  108.9584 O   0  0  0  0  0  0  0  0  0  0  0  0
  127.5112  106.6314  108.5233 O   0  0  0  0  0  0  0  0  0  0  0  0
  125.1926  108.4122  105.3529 O   0  0  0  0  0  0  0  0  0  0  0  0
  126.2364  104.5421  109.4205 O   0  0  0  0  0  0  0  0  0  0  0  0
  126.3395  108.9140  107.6193 H   0  0  0  0  0  0  0  0  0  0  0  0
  127.2151  106.9296  106.5329 H   0  0  0  0  0  0  0  0  0  0  0  0
  123.9263  108.8948  106.8693 H   0  0  0  0  0  0  0  0  0  0  0  0
  126.4667  104.6896  106.8556 H   0  0  0  0  0  0  0  0  0  0  0  0
  123.3334  106.5699  107.4453 H   0  0  0  0  0  0  0  0  0  0  0  0
  124.6010  103.9769  108.3162 H   0  0  0  0  0  0  0  0  0  0  0  0
  124.5194  105.6022  109.0442 H   0  0  0  0  0  0  0  0  0  0  0  0
  122.3631  107.7009  105.3370 H   0  0  0  0  0  0  0  0  0  0  0  0
  122.5071  105.9797  105.0716 H   0  0  0  0  0  0  0  0  0  0  0  0
  124.5890  108.8079  109.0258 H   0  0  0  0  0  0  0  0  0  0  0  0
  128.0554  107.4321  108.5050 H   0  0  0  0  0  0  0  0  0  0  0  0
  125.6305  109.2705  105.4637 H   0  0  0  0  0  0  0  0  0  0  0  0
  125.8423  104.1624  110.2243 H   0  0  0  0  0  0  0  0  0  0  0  0
  1  2  1  0  0  0  0
  1  3  1  0  0  0  0
  1  9  1  0  0  0  0
  2  4  1  0  0  0  0
  2 10  1  0  0  0  0
  3  5  1  0  0  0  0
  3 11  1  0  0  0  0
  4  6  1  0  0  0  0
  4  8  1  0  0  0  0
  5  7  1  0  0  0  0
  5  8  1  0  0  0  0
  6 12  1  0  0  0  0
  1 13  1  0  0  0  0
  2 14  1  0  0  0  0
  3 15  1  0  0  0  0
  4 16  1  0  0  0  0
  5 17  1  0  0  0  0
  6 18  1  0  0  0  0
  6 19  1  0  0  0  0
  7 20  1  0  0  0  0
  7 21  1  0  0  0  0
  9 22  1  0  0  0  0
 10 23  1  0  0  0  0
 11 24  1  0  0  0  0
 12 25  1  0  0  0  0
M  END
> <FRED Chemgauss4 score>
-8.148299

$$$$
C85619734	P134078263
  -OEChem-05122015313D

 30 30  0     1  0  0  0  0  0999 V2000
  123.0080  105.0244  106.6504 C   0  0  0  0  0  0  0  0  0  0  0  0
  126.1824  107.9388  108.1177 C   0  0  0  0  0  0  0  0  0  0  0  0
  124.6757  106.2084  108.8270 C   0  0  0  0  0  0  0  0  0  0  0  0
  126.7358  106.9916  107.0605 C   0  0  0  0  0  0  0  0  0  0  0  0
  125.2636  105.2858  107.7558 C   0  0  1  0  0  0  0  0  0  0  0  0
  124.2143  104.3147  107.2326 C   0  0  0  0  0  0  0  0  0  0  0  0
  119.4863  103.6514  106.5693 C   0  0  0  0  0  0  0  0  0  0  0  0
  120.5641  104.6895  106.3057 C   0  0  0  0  0  0  0  0  0  0  0  0
  125.6804  107.1805  109.2646 N   0  0  0  0  0  0  0  0  0  0  0  0
  118.1984  104.0716  106.0861 N   0  0  0  0  0  0  0  0  0  0  0  0
  121.8603  104.2550  106.7742 N   0  0  0  0  0  0  0  0  0  0  0  0
  123.0627  106.1403  106.1407 O   0  0  0  0  0  0  0  0  0  0  0  0
  125.7298  106.0651  106.6478 O   0  0  0  0  0  0  0  0  0  0  0  0
  126.9626  108.6316  108.4493 H   0  0  0  0  0  0  0  0  0  0  0  0
  125.3664  108.5400  107.6990 H   0  0  0  0  0  0  0  0  0  0  0  0
  123.8037  106.7492  108.4385 H   0  0  0  0  0  0  0  0  0  0  0  0
  124.3386  105.6254  109.6909 H   0  0  0  0  0  0  0  0  0  0  0  0
  127.0467  107.5592  106.1777 H   0  0  0  0  0  0  0  0  0  0  0  0
  127.6115  106.4418  107.4262 H   0  0  0  0  0  0  0  0  0  0  0  0
  126.1048  104.7080  108.1609 H   0  0  0  0  0  0  0  0  0  0  0  0
  123.8794  103.6679  108.0496 H   0  0  0  0  0  0  0  0  0  0  0  0
  124.6588  103.6841  106.4565 H   0  0  0  0  0  0  0  0  0  0  0  0
  119.3829  103.4459  107.6395 H   0  0  0  0  0  0  0  0  0  0  0  0
  119.7319  102.7160  106.0570 H   0  0  0  0  0  0  0  0  0  0  0  0
  120.6566  104.8751  105.2312 H   0  0  0  0  0  0  0  0  0  0  0  0
  120.3351  105.6373  106.8033 H   0  0  0  0  0  0  0  0  0  0  0  0
  126.4583  106.6797  109.6950 H   0  0  0  0  0  0  0  0  0  0  0  0
  117.9234  105.0347  106.1947 H   0  0  0  0  0  0  0  0  0  0  0  0
  117.5161  103.3735  105.8364 H   0  0  0  0  0  0  0  0  0  0  0  0
  121.9345  103.3430  107.2152 H   0  0  0  0  0  0  0  0  0  0  0  0
  1  6  1  0  0  0  0
  1 11  1  0  0  0  0
  1 12  2  0  0  0  0
  2  4  1  0  0  0  0
  2  9  1  0  0  0  0
  3  5  1  0  0  0  0
  3  9  1  0  0  0  0
  4 13  1  0  0  0  0
  5  6  1  0  0  0  0
  5 13  1  0  0  0  0
  7  8  1  0  0  0  0
  7 10  1  0  0  0  0
  8 11  1  0  0  0  0
  2 14  1  0  0  0  0
  2 15  1  0  0  0  0
  3 16  1  0  0  0  0
  3 17  1  0  0  0  0
  4 18  1  0  0  0  0
  4 19  1  0  0  0  0
  5 20  1  0  0  0  0
  6 21  1  0  0  0  0
  6 22  1  0  0  0  0
  7 23  1  0  0  0  0
  7 24  1  0  0  0  0
  8 25  1  0  0  0  0
  8 26  1  0  0  0  0
  9 27  1  0  0  0  0
 10 28  1  0  0  0  0
 10 29  1  0  0  0  0
 11 30  1  0  0  0  0
M  END
> <FRED Chemgauss4 score>
-8.147320

$$$$
C62780094	P96346646
  -OEChem-05122015313D

 25 26  0     1  0  0  0  0  0999 V2000
  125.4463  108.0692  106.3448 C   0  0  0  0  0  0  0  0  0  0  0  0
  125.1602  106.7814  108.1040 C   0  0  0  0  0  0  0  0  0  0  0  0
  124.6031  107.0795  106.8845 C   0  0  0  0  0  0  0  0  0  0  0  0
  123.3877  106.4703  106.3087 C   0  0  0  0  0  0  0  0  0  0  0  0
  121.6725  105.2876  106.0346 C   0  0  0  0  0  0  0  0  0  0  0  0
  118.1549  103.8180  106.8036 C   0  0  0  0  0  0  0  0  0  0  0  0
  119.2165  104.8477  106.4366 C   0  0  0  0  0  0  0  0  0  0  0  0
  120.6321  104.2472  106.3973 C   0  0  2  0  0  0  0  0  0  0  0  0
  126.4618  108.3793  107.1551 N   0  0  0  0  0  0  0  0  0  0  0  0
  122.9068  106.8014  105.1332 N   0  0  0  0  0  0  0  0  0  0  0  0
  121.7784  106.0234  104.9530 N   0  0  0  0  0  0  0  0  0  0  0  0
  126.2602  107.5799  108.2164 N   0  0  0  0  0  0  0  0  0  0  0  0
  120.9655  103.6064  107.6499 N   0  0  0  0  0  0  0  0  0  0  0  0
  122.6585  105.5134  106.9454 O   0  0  0  0  0  0  0  0  0  0  0  0
  125.3666  108.5798  105.3953 H   0  0  0  0  0  0  0  0  0  0  0  0
  124.8829  106.0899  108.8873 H   0  0  0  0  0  0  0  0  0  0  0  0
  118.3785  103.3511  107.7682 H   0  0  0  0  0  0  0  0  0  0  0  0
  117.1747  104.2993  106.8800 H   0  0  0  0  0  0  0  0  0  0  0  0
  118.0837  103.0305  106.0471 H   0  0  0  0  0  0  0  0  0  0  0  0
  118.9549  105.2897  105.4669 H   0  0  0  0  0  0  0  0  0  0  0  0
  119.1797  105.6589  107.1749 H   0  0  0  0  0  0  0  0  0  0  0  0
  120.6499  103.4475  105.6465 H   0  0  0  0  0  0  0  0  0  0  0  0
  126.9152  107.6307  108.9866 H   0  0  0  0  0  0  0  0  0  0  0  0
  121.9324  103.4576  107.8745 H   0  0  0  0  0  0  0  0  0  0  0  0
  120.2378  103.1462  108.1661 H   0  0  0  0  0  0  0  0  0  0  0  0
  1  3  1  0  0  0  0
  1  9  2  0  0  0  0
  2  3  2  0  0  0  0
  2 12  1  0  0  0  0
  3  4  1  0  0  0  0
  4 10  2  0  0  0  0
  4 14  1  0  0  0  0
  5  8  1  0  0  0  0
  5 11  2  0  0  0  0
  5 14  1  0  0  0  0
  6  7  1  0  0  0  0
  7  8  1  0  0  0  0
  8 13  1  0  0  0  0
  9 12  1  0  0  0  0
 10 11  1  0  0  0  0
  1 15  1  0  0  0  0
  2 16  1  0  0  0  0
  6 17  1  0  0  0  0
  6 18  1  0  0  0  0
  6 19  1  0  0  0  0
  7 20  1  0  0  0  0
  7 21  1  0  0  0  0
  8 22  1  0  0  0  0
 12 23  1  0  0  0  0
 13 24  1  0  0  0  0
 13 25  1  0  0  0  0
M  END
> <FRED Chemgauss4 score>
-8.143925

$$$$
C44137234	P110141035
  -OEChem-05122015313D

 18 18  0     0  0  0  0  0  0999 V2000
  125.0331  106.4400  108.1492 C   0  0  0  0  0  0  0  0  0  0  0  0
  123.2156  107.1141  106.7189 C   0  0  0  0  0  0  0  0  0  0  0  0
  125.9203  106.9270  107.1998 C   0  0  0  0  0  0  0  0  0  0  0  0
  124.1487  107.5841  105.8058 C   0  0  0  0  0  0  0  0  0  0  0  0
  123.6671  106.5367  107.9019 C   0  0  0  0  0  0  0  0  0  0  0  0
  122.7185  106.0380  108.8722 C   0  0  0  0  0  0  0  0  0  0  0  0
  125.4584  107.4783  106.0691 N   0  3  0  0  0  0  0  0  0  0  0  0
  122.2618  106.8605  109.8404 N   0  0  0  0  0  0  0  0  0  0  0  0
  122.3038  104.7570  108.7987 N   0  3  0  0  0  0  0  0  0  0  0  0
  126.3019  107.9221  105.2064 O   0  5  0  0  0  0  0  0  0  0  0  0
  122.6513  108.2152  110.0143 O   0  5  0  0  0  0  0  0  0  0  0  0
  125.4075  105.9927  109.0646 H   0  0  0  0  0  0  0  0  0  0  0  0
  122.1547  107.1994  106.5051 H   0  0  0  0  0  0  0  0  0  0  0  0
  126.9937  106.8924  107.3119 H   0  0  0  0  0  0  0  0  0  0  0  0
  123.8846  108.0453  104.8659 H   0  0  0  0  0  0  0  0  0  0  0  0
  121.5963  106.5279  110.5293 H   0  0  0  0  0  0  0  0  0  0  0  0
  122.6397  104.1342  108.0722 H   0  0  0  0  0  0  0  0  0  0  0  0
  121.6352  104.3928  109.4683 H   0  0  0  0  0  0  0  0  0  0  0  0
  1  3  1  0  0  0  0
  1  5  2  0  0  0  0
  2  4  2  0  0  0  0
  2  5  1  0  0  0  0
  3  7  2  0  0  0  0
  4  7  1  0  0  0  0
  5  6  1  0  0  0  0
  6  8  1  0  0  0  0
  6  9  2  0  0  0  0
  7 10  1  0  0  0  0
  8 11  1  0  0  0  0
  1 12  1  0  0  0  0
  2 13  1  0  0  0  0
  3 14  1  0  0  0  0
  4 15  1  0  0  0  0
  8 16  1  0  0  0  0
  9 17  1  0  0  0  0
  9 18  1  0  0  0  0
M  CHG  4   7   1   9   1  10  -1  11  -1
M  END
> <FRED Chemgauss4 score>
-8.140898

$$$$
C85353246	P133560523
  -OEChem-05122015313D

 24 25  0     1  0  0  0  0  0999 V2000
  124.8141  108.1349  107.6716 C   0  0  0  0  0  0  0  0  0  0  0  0
  124.2156  109.0598  109.4446 C   0  0  0  0  0  0  0  0  0  0  0  0
  126.1787  106.0271  107.1394 C   0  0  0  0  0  0  0  0  0  0  0  0
  124.0840  105.0278  107.4185 C   0  0  0  0  0  0  0  0  0  0  0  0
  125.1316  107.0362  106.6682 C   0  0  1  0  0  0  0  0  0  0  0  0
  123.9682  106.0973  106.3456 C   0  0  2  0  0  0  0  0  0  0  0  0
  123.7475  109.4148  110.7940 C   0  0  0  0  0  0  0  0  0  0  0  0
  124.3556  107.8610  108.9283 N   0  0  0  0  0  0  0  0  0  0  0  0
  124.9666  109.4279  107.3778 N   0  0  0  0  0  0  0  0  0  0  0  0
  124.5771  109.9977  108.5284 N   0  0  0  0  0  0  0  0  0  0  0  0
  122.6486  106.6987  106.2789 N   0  0  0  0  0  0  0  0  0  0  0  0
  125.4763  104.9357  107.7577 O   0  0  0  0  0  0  0  0  0  0  0  0
  126.7253  105.6129  106.2845 H   0  0  0  0  0  0  0  0  0  0  0  0
  126.9065  106.4360  107.8474 H   0  0  0  0  0  0  0  0  0  0  0  0
  123.5419  105.2936  108.3333 H   0  0  0  0  0  0  0  0  0  0  0  0
  123.7241  104.0515  107.0790 H   0  0  0  0  0  0  0  0  0  0  0  0
  125.4822  107.5596  105.7395 H   0  0  0  0  0  0  0  0  0  0  0  0
  124.1805  105.6208  105.3748 H   0  0  0  0  0  0  0  0  0  0  0  0
  124.5876  109.4760  111.5074 H   0  0  0  0  0  0  0  0  0  0  0  0
  123.2251  110.3884  110.8127 H   0  0  0  0  0  0  0  0  0  0  0  0
  123.0264  108.6787  111.1934 H   0  0  0  0  0  0  0  0  0  0  0  0
  124.5858  111.0078  108.6083 H   0  0  0  0  0  0  0  0  0  0  0  0
  121.8507  106.1189  106.4483 H   0  0  0  0  0  0  0  0  0  0  0  0
  122.5590  107.6087  105.8719 H   0  0  0  0  0  0  0  0  0  0  0  0
  1  5  1  0  0  0  0
  1  8  1  0  0  0  0
  1  9  2  0  0  0  0
  2  7  1  0  0  0  0
  2  8  2  0  0  0  0
  2 10  1  0  0  0  0
  3  5  1  0  0  0  0
  3 12  1  0  0  0  0
  4  6  1  0  0  0  0
  4 12  1  0  0  0  0
  5  6  1  0  0  0  0
  6 11  1  0  0  0  0
  9 10  1  0  0  0  0
  3 13  1  0  0  0  0
  3 14  1  0  0  0  0
  4 15  1  0  0  0  0
  4 16  1  0  0  0  0
  5 17  1  0  0  0  0
  6 18  1  0  0  0  0
  7 19  1  0  0  0  0
  7 20  1  0  0  0  0
  7 21  1  0  0  0  0
 10 22  1  0  0  0  0
 11 23  1  0  0  0  0
 11 24  1  0  0  0  0
M  END
> <FRED Chemgauss4 score>
-8.138990

$$$$
C86136121	P134894996
  -OEChem-05122015313D

 34 34  0     1  0  0  0  0  0999 V2000
  124.0180  106.7717  106.2659 C   0  0  0  0  0  0  0  0  0  0  0  0
  122.7245  104.9235  108.1461 C   0  0  0  0  0  0  0  0  0  0  0  0
  121.9751  105.4724  106.9301 C   0  0  0  0  0  0  0  0  0  0  0  0
  124.2376  105.0236  108.0042 C   0  0  0  0  0  0  0  0  0  0  0  0
  122.9030  105.8489  105.7770 C   0  0  1  0  0  0  0  0  0  0  0  0
  124.7829  109.3389  108.2671 C   0  0  0  0  0  0  0  0  0  0  0  0
  124.2559  107.6294  110.0238 C   0  0  0  0  0  0  0  0  0  0  0  0
  126.7114  105.9945  108.6793 C   0  0  0  0  0  0  0  0  0  0  0  0
  125.3037  108.1052  109.0129 C   0  0  0  0  0  0  0  0  0  0  0  0
  125.7592  107.0016  108.0282 C   0  0  2  0  0  0  0  0  0  0  0  0
  124.6294  106.3068  107.4346 N   0  0  0  0  0  0  0  0  0  0  0  0
  122.1760  106.5096  104.7238 N   0  0  0  0  0  0  0  0  0  0  0  0
  124.3569  107.7828  105.6530 O   0  0  0  0  0  0  0  0  0  0  0  0
  128.0246  106.5449  108.7145 O   0  0  0  0  0  0  0  0  0  0  0  0
  122.4000  105.4609  109.0615 H   0  0  0  0  0  0  0  0  0  0  0  0
  122.4323  103.8637  108.3094 H   0  0  0  0  0  0  0  0  0  0  0  0
  121.2342  104.7172  106.5898 H   0  0  0  0  0  0  0  0  0  0  0  0
  121.3692  106.3499  107.2483 H   0  0  0  0  0  0  0  0  0  0  0  0
  124.7098  104.9427  108.9773 H   0  0  0  0  0  0  0  0  0  0  0  0
  124.5911  104.2262  107.3613 H   0  0  0  0  0  0  0  0  0  0  0  0
  123.3893  104.9541  105.4008 H   0  0  0  0  0  0  0  0  0  0  0  0
  123.8964  109.0857  107.6756 H   0  0  0  0  0  0  0  0  0  0  0  0
  125.5344  109.7466  107.5830 H   0  0  0  0  0  0  0  0  0  0  0  0
  124.4976  110.1278  108.9709 H   0  0  0  0  0  0  0  0  0  0  0  0
  123.3429  107.2928  109.5236 H   0  0  0  0  0  0  0  0  0  0  0  0
  124.6393  106.7822  110.6033 H   0  0  0  0  0  0  0  0  0  0  0  0
  123.9873  108.4207  110.7312 H   0  0  0  0  0  0  0  0  0  0  0  0
  126.7530  105.0529  108.1223 H   0  0  0  0  0  0  0  0  0  0  0  0
  126.4102  105.7869  109.7111 H   0  0  0  0  0  0  0  0  0  0  0  0
  126.1866  108.4259  109.5822 H   0  0  0  0  0  0  0  0  0  0  0  0
  126.2808  107.4720  107.1850 H   0  0  0  0  0  0  0  0  0  0  0  0
  121.2597  106.1819  104.5131 H   0  0  0  0  0  0  0  0  0  0  0  0
  122.6811  107.1195  104.1202 H   0  0  0  0  0  0  0  0  0  0  0  0
  128.5931  105.8789  109.1320 H   0  0  0  0  0  0  0  0  0  0  0  0
  1  5  1  0  0  0  0
  1 11  1  0  0  0  0
  1 13  2  0  0  0  0
  2  3  1  0  0  0  0
  2  4  1  0  0  0  0
  3  5  1  0  0  0  0
  4 11  1  0  0  0  0
  5 12  1  0  0  0  0
  6  9  1  0  0  0  0
  7  9  1  0  0  0  0
  8 10  1  0  0  0  0
  8 14  1  0  0  0  0
  9 10  1  0  0  0  0
 10 11  1  0  0  0  0
  2 15  1  0  0  0  0
  2 16  1  0  0  0  0
  3 17  1  0  0  0  0
  3 18  1  0  0  0  0
  4 19  1  0  0  0  0
  4 20  1  0  0  0  0
  5 21  1  0  0  0  0
  6 22  1  0  0  0  0
  6 23  1  0  0  0  0
  6 24  1  0  0  0  0
  7 25  1  0  0  0  0
  7 26  1  0  0  0  0
  7 27  1  0  0  0  0
  8 28  1  0  0  0  0
  8 29  1  0  0  0  0
  9 30  1  0  0  0  0
 10 31  1  0  0  0  0
 12 32  1  0  0  0  0
 12 33  1  0  0  0  0
 14 34  1  0  0  0  0
M  END
> <FRED Chemgauss4 score>
-8.138780

$$$$
C84211952	P131773227
  -OEChem-05122015313D

 30 30  0     1  0  0  0  0  0999 V2000
  123.0804  106.4756  107.0739 C   0  0  0  0  0  0  0  0  0  0  0  0
  125.8250  108.0272  106.8492 C   0  0  0  0  0  0  0  0  0  0  0  0
  125.2652  104.9462  109.0756 C   0  0  0  0  0  0  0  0  0  0  0  0
  125.8332  106.3082  108.7021 C   0  0  0  0  0  0  0  0  0  0  0  0
  124.5748  104.4719  106.8159 C   0  0  0  0  0  0  0  0  0  0  0  0
  124.4335  105.9905  106.6367 C   0  0  2  0  0  0  0  0  0  0  0  0
  120.6916  105.7425  107.1213 C   0  0  0  0  0  0  0  0  0  0  0  0
  122.0259  105.3982  105.0768 C   0  0  0  0  0  0  0  0  0  0  0  0
  125.4028  104.0451  107.9432 N   0  0  0  0  0  0  0  0  0  0  0  0
  125.3983  106.7983  107.3869 N   0  0  0  0  0  0  0  0  0  0  0  0
  126.6875  108.7573  107.6444 N   0  0  0  0  0  0  0  0  0  0  0  0
  121.9757  105.8951  106.4494 N   0  0  0  0  0  0  0  0  0  0  0  0
  123.0056  107.3457  107.9455 O   0  0  0  0  0  0  0  0  0  0  0  0
  125.4713  108.4560  105.7473 O   0  0  0  0  0  0  0  0  0  0  0  0
  125.7810  104.5436  109.9496 H   0  0  0  0  0  0  0  0  0  0  0  0
  124.2098  105.0526  109.3283 H   0  0  0  0  0  0  0  0  0  0  0  0
  125.5275  107.0685  109.4421 H   0  0  0  0  0  0  0  0  0  0  0  0
  126.9339  106.2690  108.7475 H   0  0  0  0  0  0  0  0  0  0  0  0
  123.5722  104.0171  106.9271 H   0  0  0  0  0  0  0  0  0  0  0  0
  124.9931  104.0387  105.8859 H   0  0  0  0  0  0  0  0  0  0  0  0
  124.5088  106.2062  105.5622 H   0  0  0  0  0  0  0  0  0  0  0  0
  120.0706  106.6256  106.9500 H   0  0  0  0  0  0  0  0  0  0  0  0
  120.8403  105.6203  108.1976 H   0  0  0  0  0  0  0  0  0  0  0  0
  120.1666  104.8634  106.7380 H   0  0  0  0  0  0  0  0  0  0  0  0
  122.3287  104.3479  105.0683 H   0  0  0  0  0  0  0  0  0  0  0  0
  122.7457  105.9768  104.4914 H   0  0  0  0  0  0  0  0  0  0  0  0
  121.0423  105.4847  104.6073 H   0  0  0  0  0  0  0  0  0  0  0  0
  126.3837  104.0183  107.6462 H   0  0  0  0  0  0  0  0  0  0  0  0
  126.9491  108.3658  108.5435 H   0  0  0  0  0  0  0  0  0  0  0  0
  127.0756  109.6566  107.3897 H   0  0  0  0  0  0  0  0  0  0  0  0
  1  6  1  0  0  0  0
  1 12  1  0  0  0  0
  1 13  2  0  0  0  0
  2 10  1  0  0  0  0
  2 11  1  0  0  0  0
  2 14  2  0  0  0  0
  3  4  1  0  0  0  0
  3  9  1  0  0  0  0
  4 10  1  0  0  0  0
  5  6  1  0  0  0  0
  5  9  1  0  0  0  0
  6 10  1  0  0  0  0
  7 12  1  0  0  0  0
  8 12  1  0  0  0  0
  3 15  1  0  0  0  0
  3 16  1  0  0  0  0
  4 17  1  0  0  0  0
  4 18  1  0  0  0  0
  5 19  1  0  0  0  0
  5 20  1  0  0  0  0
  6 21  1  0  0  0  0
  7 22  1  0  0  0  0
  7 23  1  0  0  0  0
  7 24  1  0  0  0  0
  8 25  1  0  0  0  0
  8 26  1  0  0  0  0
  8 27  1  0  0  0  0
  9 28  1  0  0  0  0
 11 29  1  0  0  0  0
 11 30  1  0  0  0  0
M  END
> <FRED Chemgauss4 score>
-8.135492

$$$$
C19519414	P150995912
  -OEChem-05122015313D

 27 27  0     0  0  0  0  0  0999 V2000
  125.6131  108.6182  107.5679 C   0  0  0  0  0  0  0  0  0  0  0  0
  124.2662  104.2692  107.5165 C   0  0  0  0  0  0  0  0  0  0  0  0
  122.8898  106.0049  106.3358 C   0  0  0  0  0  0  0  0  0  0  0  0
  125.5211  104.9590  106.9785 C   0  0  0  0  0  0  0  0  0  0  0  0
  124.1905  106.6372  105.8377 C   0  0  0  0  0  0  0  0  0  0  0  0
  123.0671  104.5126  106.6049 C   0  0  0  0  0  0  0  0  0  0  0  0
  125.2907  107.1824  107.9375 C   0  0  0  0  0  0  0  0  0  0  0  0
  125.0739  109.5436  108.3059 N   0  0  0  0  0  0  0  0  0  0  0  0
  125.3477  106.3928  106.7095 N   0  0  0  0  0  0  0  0  0  0  0  0
  126.4556  108.7925  106.4940 N   0  0  0  0  0  0  0  0  0  0  0  0
  121.8998  103.9895  107.2260 O   0  0  0  0  0  0  0  0  0  0  0  0
  124.2908  108.9637  109.3084 O   0  0  0  0  0  0  0  0  0  0  0  0
  124.4424  103.1919  107.6176 H   0  0  0  0  0  0  0  0  0  0  0  0
  124.0434  104.6306  108.5289 H   0  0  0  0  0  0  0  0  0  0  0  0
  122.5515  106.5099  107.2501 H   0  0  0  0  0  0  0  0  0  0  0  0
  122.0922  106.1571  105.5993 H   0  0  0  0  0  0  0  0  0  0  0  0
  126.3315  104.8173  107.7226 H   0  0  0  0  0  0  0  0  0  0  0  0
  125.8641  104.4309  106.0628 H   0  0  0  0  0  0  0  0  0  0  0  0
  124.3991  106.2795  104.8064 H   0  0  0  0  0  0  0  0  0  0  0  0
  124.0223  107.7298  105.7446 H   0  0  0  0  0  0  0  0  0  0  0  0
  123.2119  103.9757  105.6575 H   0  0  0  0  0  0  0  0  0  0  0  0
  124.2961  107.1215  108.3902 H   0  0  0  0  0  0  0  0  0  0  0  0
  126.0264  106.8115  108.6581 H   0  0  0  0  0  0  0  0  0  0  0  0
  126.8410  108.0064  105.9815 H   0  0  0  0  0  0  0  0  0  0  0  0
  126.7218  109.7214  106.1857 H   0  0  0  0  0  0  0  0  0  0  0  0
  121.1604  104.1612  106.6209 H   0  0  0  0  0  0  0  0  0  0  0  0
  123.9564  109.7491  109.7736 H   0  0  0  0  0  0  0  0  0  0  0  0
  1  7  1  0  0  0  0
  1  8  2  0  0  0  0
  1 10  1  0  0  0  0
  2  4  1  0  0  0  0
  2  6  1  0  0  0  0
  3  5  1  0  0  0  0
  3  6  1  0  0  0  0
  4  9  1  0  0  0  0
  5  9  1  0  0  0  0
  6 11  1  0  0  0  0
  7  9  1  0  0  0  0
  8 12  1  0  0  0  0
  2 13  1  0  0  0  0
  2 14  1  0  0  0  0
  3 15  1  0  0  0  0
  3 16  1  0  0  0  0
  4 17  1  0  0  0  0
  4 18  1  0  0  0  0
  5 19  1  0  0  0  0
  5 20  1  0  0  0  0
  6 21  1  0  0  0  0
  7 22  1  0  0  0  0
  7 23  1  0  0  0  0
 10 24  1  0  0  0  0
 10 25  1  0  0  0  0
 11 26  1  0  0  0  0
 12 27  1  0  0  0  0
M  END
> <FRED Chemgauss4 score>
-8.131596

$$$$
C85134048	P133209822
  -OEChem-05122015313D

 37 38  0     1  0  0  0  0  0999 V2000
  118.1842  104.4280  106.2925 C   0  0  0  0  0  0  0  0  0  0  0  0
  119.4368  103.5837  106.4210 C   0  0  0  0  0  0  0  0  0  0  0  0
  120.7323  104.3150  106.1002 C   0  0  0  0  0  0  0  0  0  0  0  0
  124.8683  108.0211  108.2723 C   0  0  0  0  0  0  0  0  0  0  0  0
  123.4910  107.8341  108.8984 C   0  0  0  0  0  0  0  0  0  0  0  0
  124.9201  107.4785  106.8461 C   0  0  0  0  0  0  0  0  0  0  0  0
  123.0240  106.3809  108.8299 C   0  0  0  0  0  0  0  0  0  0  0  0
  119.6028  106.5011  106.3758 C   0  0  0  0  0  0  0  0  0  0  0  0
  124.4617  106.0139  106.7401 C   0  0  2  0  0  0  0  0  0  0  0  0
  120.7725  105.6462  106.8450 C   0  0  2  0  0  0  0  0  0  0  0  0
  123.0906  105.7980  107.4125 C   0  0  2  0  0  0  0  0  0  0  0  0
  125.5164  105.0608  107.3143 C   0  0  0  0  0  0  0  0  0  0  0  0
  118.3368  105.7913  106.4131 N   0  0  0  0  0  0  0  0  0  0  0  0
  122.0312  106.3387  106.5867 N   0  0  0  0  0  0  0  0  0  0  0  0
  117.0797  103.8956  106.1684 O   0  0  0  0  0  0  0  0  0  0  0  0
  126.6815  105.2352  106.6765 F   0  0  0  0  0  0  0  0  0  0  0  0
  125.6891  105.3078  108.6196 F   0  0  0  0  0  0  0  0  0  0  0  0
  125.1155  103.7921  107.1569 F   0  0  0  0  0  0  0  0  0  0  0  0
  119.4676  103.2131  107.4527 H   0  0  0  0  0  0  0  0  0  0  0  0
  119.3370  102.7162  105.7590 H   0  0  0  0  0  0  0  0  0  0  0  0
  121.5838  103.6843  106.3828 H   0  0  0  0  0  0  0  0  0  0  0  0
  120.8011  104.4823  105.0171 H   0  0  0  0  0  0  0  0  0  0  0  0
  125.1269  109.0884  108.2666 H   0  0  0  0  0  0  0  0  0  0  0  0
  125.6232  107.5142  108.8860 H   0  0  0  0  0  0  0  0  0  0  0  0
  123.5173  108.1598  109.9479 H   0  0  0  0  0  0  0  0  0  0  0  0
  122.7632  108.4781  108.3871 H   0  0  0  0  0  0  0  0  0  0  0  0
  124.2931  108.1133  106.2006 H   0  0  0  0  0  0  0  0  0  0  0  0
  125.9492  107.5736  106.4632 H   0  0  0  0  0  0  0  0  0  0  0  0
  123.6385  105.7786  109.5166 H   0  0  0  0  0  0  0  0  0  0  0  0
  121.9920  106.3230  109.2117 H   0  0  0  0  0  0  0  0  0  0  0  0
  119.4949  107.3979  106.9956 H   0  0  0  0  0  0  0  0  0  0  0  0
  119.7400  106.8292  105.3381 H   0  0  0  0  0  0  0  0  0  0  0  0
  124.3557  105.7709  105.6652 H   0  0  0  0  0  0  0  0  0  0  0  0
  120.6865  105.4630  107.9230 H   0  0  0  0  0  0  0  0  0  0  0  0
  122.9229  104.6997  107.4879 H   0  0  0  0  0  0  0  0  0  0  0  0
  117.4952  106.3454  106.5384 H   0  0  0  0  0  0  0  0  0  0  0  0
  121.9252  107.3282  106.7963 H   0  0  0  0  0  0  0  0  0  0  0  0
  1  2  1  0  0  0  0
  1 13  1  0  0  0  0
  1 15  2  0  0  0  0
  2  3  1  0  0  0  0
  3 10  1  0  0  0  0
  4  5  1  0  0  0  0
  4  6  1  0  0  0  0
  5  7  1  0  0  0  0
  6  9  1  0  0  0  0
  7 11  1  0  0  0  0
  8 10  1  0  0  0  0
  8 13  1  0  0  0  0
  9 11  1  0  0  0  0
  9 12  1  0  0  0  0
 10 14  1  0  0  0  0
 11 14  1  0  0  0  0
 12 16  1  0  0  0  0
 12 17  1  0  0  0  0
 12 18  1  0  0  0  0
  2 19  1  0  0  0  0
  2 20  1  0  0  0  0
  3 21  1  0  0  0  0
  3 22  1  0  0  0  0
  4 23  1  0  0  0  0
  4 24  1  0  0  0  0
  5 25  1  0  0  0  0
  5 26  1  0  0  0  0
  6 27  1  0  0  0  0
  6 28  1  0  0  0  0
  7 29  1  0  0  0  0
  7 30  1  0  0  0  0
  8 31  1  0  0  0  0
  8 32  1  0  0  0  0
  9 33  1  0  0  0  0
 10 34  1  0  0  0  0
 11 35  1  0  0  0  0
 13 36  1  0  0  0  0
 14 37  1  0  0  0  0
M  END
> <FRED Chemgauss4 score>
-8.126616

$$$$
C88142891	P137854538
  -OEChem-05122015313D

 29 30  0     1  0  0  0  0  0999 V2000
  125.1178  108.0145  107.8983 C   0  0  0  0  0  0  0  0  0  0  0  0
  123.9389  109.1933  109.1775 C   0  0  0  0  0  0  0  0  0  0  0  0
  126.5066  105.9544  108.3942 C   0  0  0  0  0  0  0  0  0  0  0  0
  125.5248  104.9034  108.8548 C   0  0  0  0  0  0  0  0  0  0  0  0
  125.7157  106.7358  107.3512 C   0  0  1  0  0  0  0  0  0  0  0  0
  124.7134  104.6266  107.6012 C   0  0  2  0  0  0  0  0  0  0  0  0
  125.3205  103.5389  106.7247 C   0  0  0  0  0  0  0  0  0  0  0  0
  123.5259  109.0087  111.6687 C   0  0  0  0  0  0  0  0  0  0  0  0
  123.0125  109.4635  110.2841 C   0  0  1  0  0  0  0  0  0  0  0  0
  125.2842  109.2539  107.4999 N   0  0  0  0  0  0  0  0  0  0  0  0
  124.5087  110.0295  108.3415 N   0  0  0  0  0  0  0  0  0  0  0  0
  122.6406  110.8730  110.3969 N   0  0  0  0  0  0  0  0  0  0  0  0
  124.2762  107.8925  108.9611 O   0  0  0  0  0  0  0  0  0  0  0  0
  124.6898  105.8549  106.8548 O   0  0  0  0  0  0  0  0  0  0  0  0
  126.7909  106.5929  109.2467 H   0  0  0  0  0  0  0  0  0  0  0  0
  127.4353  105.5291  107.9874 H   0  0  0  0  0  0  0  0  0  0  0  0
  126.0735  104.0036  109.1759 H   0  0  0  0  0  0  0  0  0  0  0  0
  124.9036  105.2321  109.6999 H   0  0  0  0  0  0  0  0  0  0  0  0
  126.3760  106.9911  106.4895 H   0  0  0  0  0  0  0  0  0  0  0  0
  123.6864  104.3703  107.8497 H   0  0  0  0  0  0  0  0  0  0  0  0
  126.3533  103.7883  106.4699 H   0  0  0  0  0  0  0  0  0  0  0  0
  124.7496  103.4337  105.7992 H   0  0  0  0  0  0  0  0  0  0  0  0
  125.3133  102.5802  107.2489 H   0  0  0  0  0  0  0  0  0  0  0  0
  124.4886  109.4823  111.8901 H   0  0  0  0  0  0  0  0  0  0  0  0
  122.8273  109.2682  112.4722 H   0  0  0  0  0  0  0  0  0  0  0  0
  123.6676  107.9227  111.7039 H   0  0  0  0  0  0  0  0  0  0  0  0
  122.0401  108.9442  110.1338 H   0  0  0  0  0  0  0  0  0  0  0  0
  122.3381  111.2069  111.2853 H   0  0  0  0  0  0  0  0  0  0  0  0
  122.5077  111.3899  109.5557 H   0  0  0  0  0  0  0  0  0  0  0  0
  1  5  1  0  0  0  0
  1 10  2  0  0  0  0
  1 13  1  0  0  0  0
  2  9  1  0  0  0  0
  2 11  2  0  0  0  0
  2 13  1  0  0  0  0
  3  4  1  0  0  0  0
  3  5  1  0  0  0  0
  4  6  1  0  0  0  0
  5 14  1  0  0  0  0
  6  7  1  0  0  0  0
  6 14  1  0  0  0  0
  8  9  1  0  0  0  0
  9 12  1  0  0  0  0
 10 11  1  0  0  0  0
  3 15  1  0  0  0  0
  3 16  1  0  0  0  0
  4 17  1  0  0  0  0
  4 18  1  0  0  0  0
  5 19  1  0  0  0  0
  6 20  1  0  0  0  0
  7 21  1  0  0  0  0
  7 22  1  0  0  0  0
  7 23  1  0  0  0  0
  8 24  1  0  0  0  0
  8 25  1  0  0  0  0
  8 26  1  0  0  0  0
  9 27  1  0  0  0  0
 12 28  1  0  0  0  0
 12 29  1  0  0  0  0
M  END
> <FRED Chemgauss4 score>
-8.121538

$$$$
C86829149	P135918289
  -OEChem-05122015313D

 24 25  0     1  0  0  0  0  0999 V2000
  125.1250  109.0243  107.7100 C   0  0  0  0  0  0  0  0  0  0  0  0
  126.1673  107.1145  107.8854 C   0  0  0  0  0  0  0  0  0  0  0  0
  124.2719  110.0343  108.1998 C   0  0  0  0  0  0  0  0  0  0  0  0
  123.7402  109.8612  109.4230 C   0  0  0  0  0  0  0  0  0  0  0  0
  124.7442  107.8415  109.7978 C   0  0  0  0  0  0  0  0  0  0  0  0
  124.6884  104.4108  107.5422 C   0  0  0  0  0  0  0  0  0  0  0  0
  125.4955  104.8394  108.7616 C   0  0  0  0  0  0  0  0  0  0  0  0
  126.6446  105.8346  108.4393 C   0  0  2  0  0  0  0  0  0  0  0  0
  125.8076  108.8422  106.6010 N   0  0  0  0  0  0  0  0  0  0  0  0
  126.4684  107.6306  106.7131 N   0  0  0  0  0  0  0  0  0  0  0  0
  123.9576  108.7733  110.2483 N   0  0  0  0  0  0  0  0  0  0  0  0
  125.3261  107.9557  108.5451 N   0  0  0  0  0  0  0  0  0  0  0  0
  127.4646  106.0166  109.6346 N   0  0  0  0  0  0  0  0  0  0  0  0
  124.0588  110.9134  107.6039 H   0  0  0  0  0  0  0  0  0  0  0  0
  123.0778  110.6194  109.8287 H   0  0  0  0  0  0  0  0  0  0  0  0
  124.9567  106.9495  110.4081 H   0  0  0  0  0  0  0  0  0  0  0  0
  125.3361  103.9668  106.7795 H   0  0  0  0  0  0  0  0  0  0  0  0
  123.9421  103.6632  107.8290 H   0  0  0  0  0  0  0  0  0  0  0  0
  124.1595  105.2582  107.0952 H   0  0  0  0  0  0  0  0  0  0  0  0
  124.8106  105.2775  109.4984 H   0  0  0  0  0  0  0  0  0  0  0  0
  125.9257  103.9414  109.2232 H   0  0  0  0  0  0  0  0  0  0  0  0
  127.3236  105.3202  107.7257 H   0  0  0  0  0  0  0  0  0  0  0  0
  128.0755  106.8034  109.6684 H   0  0  0  0  0  0  0  0  0  0  0  0
  127.5375  105.2546  110.2731 H   0  0  0  0  0  0  0  0  0  0  0  0
  1  3  1  0  0  0  0
  1  9  2  0  0  0  0
  1 12  1  0  0  0  0
  2  8  1  0  0  0  0
  2 10  2  0  0  0  0
  2 12  1  0  0  0  0
  3  4  2  0  0  0  0
  4 11  1  0  0  0  0
  5 11  2  0  0  0  0
  5 12  1  0  0  0  0
  6  7  1  0  0  0  0
  7  8  1  0  0  0  0
  8 13  1  0  0  0  0
  9 10  1  0  0  0  0
  3 14  1  0  0  0  0
  4 15  1  0  0  0  0
  5 16  1  0  0  0  0
  6 17  1  0  0  0  0
  6 18  1  0  0  0  0
  6 19  1  0  0  0  0
  7 20  1  0  0  0  0
  7 21  1  0  0  0  0
  8 22  1  0  0  0  0
 13 23  1  0  0  0  0
 13 24  1  0  0  0  0
M  END
> <FRED Chemgauss4 score>
-8.119989

$$$$
C36993915	P54988732
  -OEChem-05122015313D

 32 33  0     1  0  0  0  0  0999 V2000
  115.2569  106.7812  104.7661 C   0  0  0  0  0  0  0  0  0  0  0  0
  114.6326  105.8489  105.5900 C   0  0  0  0  0  0  0  0  0  0  0  0
  116.7398  104.6980  105.8683 C   0  0  0  0  0  0  0  0  0  0  0  0
  116.6308  106.6861  104.5005 C   0  0  0  0  0  0  0  0  0  0  0  0
  117.3887  105.6368  105.0500 C   0  0  0  0  0  0  0  0  0  0  0  0
  115.3735  104.8083  106.1396 C   0  0  0  0  0  0  0  0  0  0  0  0
  119.4766  106.5726  104.0940 C   0  0  0  0  0  0  0  0  0  0  0  0
  117.2761  107.6530  103.5522 C   0  0  0  0  0  0  0  0  0  0  0  0
  118.7192  107.8758  103.9518 C   0  0  0  0  0  0  0  0  0  0  0  0
  119.5064  104.3209  105.0980 C   0  0  0  0  0  0  0  0  0  0  0  0
  121.3748  105.1396  106.6258 C   0  0  0  0  0  0  0  0  0  0  0  0
  120.0657  104.3568  106.5209 C   0  0  2  0  0  0  0  0  0  0  0  0
  118.7856  105.5391  104.7398 N   0  0  0  0  0  0  0  0  0  0  0  0
  121.8435  105.1381  107.9942 N   0  0  0  0  0  0  0  0  0  0  0  0
  120.6526  106.5089  103.7295 O   0  0  0  0  0  0  0  0  0  0  0  0
  120.2930  103.0222  106.9741 O   0  0  0  0  0  0  0  0  0  0  0  0
  114.7770  103.9111  106.9357 F   0  0  0  0  0  0  0  0  0  0  0  0
  114.6686  107.5877  104.3357 H   0  0  0  0  0  0  0  0  0  0  0  0
  113.5730  105.9390  105.8090 H   0  0  0  0  0  0  0  0  0  0  0  0
  117.2712  103.8579  106.3061 H   0  0  0  0  0  0  0  0  0  0  0  0
  117.2412  107.2727  102.5247 H   0  0  0  0  0  0  0  0  0  0  0  0
  116.7187  108.5972  103.5822 H   0  0  0  0  0  0  0  0  0  0  0  0
  118.7578  108.4137  104.9055 H   0  0  0  0  0  0  0  0  0  0  0  0
  119.2434  108.4828  103.2032 H   0  0  0  0  0  0  0  0  0  0  0  0
  120.3101  104.1888  104.3668 H   0  0  0  0  0  0  0  0  0  0  0  0
  118.7958  103.4957  104.9861 H   0  0  0  0  0  0  0  0  0  0  0  0
  121.2387  106.1799  106.3123 H   0  0  0  0  0  0  0  0  0  0  0  0
  122.1448  104.6846  105.9943 H   0  0  0  0  0  0  0  0  0  0  0  0
  119.3128  104.8007  107.1837 H   0  0  0  0  0  0  0  0  0  0  0  0
  121.1713  105.2175  108.7351 H   0  0  0  0  0  0  0  0  0  0  0  0
  122.8239  105.2632  108.1689 H   0  0  0  0  0  0  0  0  0  0  0  0
  119.4338  102.5747  106.9493 H   0  0  0  0  0  0  0  0  0  0  0  0
  1  2  1  0  0  0  0
  1  4  2  0  0  0  0
  2  6  2  0  0  0  0
  3  5  2  0  0  0  0
  3  6  1  0  0  0  0
  4  5  1  0  0  0  0
  4  8  1  0  0  0  0
  5 13  1  0  0  0  0
  6 17  1  0  0  0  0
  7  9  1  0  0  0  0
  7 13  1  0  0  0  0
  7 15  2  0  0  0  0
  8  9  1  0  0  0  0
 10 12  1  0  0  0  0
 10 13  1  0  0  0  0
 11 12  1  0  0  0  0
 11 14  1  0  0  0  0
 12 16  1  0  0  0  0
  1 18  1  0  0  0  0
  2 19  1  0  0  0  0
  3 20  1  0  0  0  0
  8 21  1  0  0  0  0
  8 22  1  0  0  0  0
  9 23  1  0  0  0  0
  9 24  1  0  0  0  0
 10 25  1  0  0  0  0
 10 26  1  0  0  0  0
 11 27  1  0  0  0  0
 11 28  1  0  0  0  0
 12 29  1  0  0  0  0
 14 30  1  0  0  0  0
 14 31  1  0  0  0  0
 16 32  1  0  0  0  0
M  END
> <FRED Chemgauss4 score>
-8.119787

$$$$
C03640326	P46473025
  -OEChem-05122015313D

 16 16  0     0  0  0  0  0  0999 V2000
  124.2850  106.3084  105.9876 C   0  0  0  0  0  0  0  0  0  0  0  0
  124.4520  107.6228  105.6019 C   0  0  0  0  0  0  0  0  0  0  0  0
  125.0733  105.8904  107.0403 C   0  0  0  0  0  0  0  0  0  0  0  0
  126.0298  107.9458  107.2059 C   0  0  0  0  0  0  0  0  0  0  0  0
  124.9632  104.4849  107.5280 C   0  0  0  0  0  0  0  0  0  0  0  0
  125.3185  108.4726  106.1911 N   0  0  0  0  0  0  0  0  0  0  0  0
  125.9597  106.6854  107.6749 N   0  0  0  0  0  0  0  0  0  0  0  0
  126.9474  108.8069  107.8467 N   0  0  0  0  0  0  0  0  0  0  0  0
  123.7644  104.3386  108.2791 O   0  0  0  0  0  0  0  0  0  0  0  0
  123.5789  105.6558  105.4904 H   0  0  0  0  0  0  0  0  0  0  0  0
  123.8760  108.0416  104.7835 H   0  0  0  0  0  0  0  0  0  0  0  0
  124.9436  103.7716  106.6929 H   0  0  0  0  0  0  0  0  0  0  0  0
  125.8156  104.2194  108.1678 H   0  0  0  0  0  0  0  0  0  0  0  0
  127.0655  109.7365  107.4999 H   0  0  0  0  0  0  0  0  0  0  0  0
  127.5289  108.4434  108.5733 H   0  0  0  0  0  0  0  0  0  0  0  0
  123.7320  103.4150  108.5760 H   0  0  0  0  0  0  0  0  0  0  0  0
  1  2  1  0  0  0  0
  1  3  2  0  0  0  0
  2  6  2  0  0  0  0
  3  5  1  0  0  0  0
  3  7  1  0  0  0  0
  4  6  1  0  0  0  0
  4  7  2  0  0  0  0
  4  8  1  0  0  0  0
  5  9  1  0  0  0  0
  1 10  1  0  0  0  0
  2 11  1  0  0  0  0
  5 12  1  0  0  0  0
  5 13  1  0  0  0  0
  8 14  1  0  0  0  0
  8 15  1  0  0  0  0
  9 16  1  0  0  0  0
M  END
> <FRED Chemgauss4 score>
-8.118473

$$$$
C85249013	P133397388
  -OEChem-05122015313D

 29 29  0     1  0  0  0  0  0999 V2000
  126.2456  106.6086  107.2912 C   0  0  0  0  0  0  0  0  0  0  0  0
  124.2368  108.2292  108.6583 C   0  0  0  0  0  0  0  0  0  0  0  0
  125.5121  108.9151  108.2046 C   0  0  0  0  0  0  0  0  0  0  0  0
  124.5753  106.8373  109.1544 C   0  0  0  0  0  0  0  0  0  0  0  0
  126.2048  108.1181  107.1128 C   0  0  2  0  0  0  0  0  0  0  0  0
  125.3048  104.6047  108.3782 C   0  0  0  0  0  0  0  0  0  0  0  0
  123.3346  104.6725  106.7593 C   0  0  0  0  0  0  0  0  0  0  0  0
  123.9376  104.0313  108.0054 C   0  0  2  0  0  0  0  0  0  0  0  0
  125.3410  106.0492  108.1922 N   0  0  0  0  0  0  0  0  0  0  0  0
  125.5191  108.3300  105.8149 N   0  0  0  0  0  0  0  0  0  0  0  0
  127.0191  105.9436  106.5946 O   0  0  0  0  0  0  0  0  0  0  0  0
  122.0819  104.0531  106.4834 O   0  0  0  0  0  0  0  0  0  0  0  0
  123.0293  104.2097  109.0928 O   0  0  0  0  0  0  0  0  0  0  0  0
  123.7606  108.8057  109.4588 H   0  0  0  0  0  0  0  0  0  0  0  0
  123.5208  108.1718  107.8297 H   0  0  0  0  0  0  0  0  0  0  0  0
  125.2971  109.9393  107.8764 H   0  0  0  0  0  0  0  0  0  0  0  0
  126.1905  109.0059  109.0637 H   0  0  0  0  0  0  0  0  0  0  0  0
  125.1711  106.8915  110.0733 H   0  0  0  0  0  0  0  0  0  0  0  0
  123.6470  106.3026  109.3858 H   0  0  0  0  0  0  0  0  0  0  0  0
  127.2332  108.4729  107.0163 H   0  0  0  0  0  0  0  0  0  0  0  0
  125.5268  104.3895  109.4288 H   0  0  0  0  0  0  0  0  0  0  0  0
  126.0886  104.1439  107.7681 H   0  0  0  0  0  0  0  0  0  0  0  0
  123.9830  104.5283  105.8897 H   0  0  0  0  0  0  0  0  0  0  0  0
  123.1490  105.7412  106.9072 H   0  0  0  0  0  0  0  0  0  0  0  0
  124.0291  102.9500  107.8484 H   0  0  0  0  0  0  0  0  0  0  0  0
  125.6414  107.6408  105.1093 H   0  0  0  0  0  0  0  0  0  0  0  0
  125.1418  109.2313  105.6331 H   0  0  0  0  0  0  0  0  0  0  0  0
  121.7291  104.4835  105.6890 H   0  0  0  0  0  0  0  0  0  0  0  0
  123.4094  103.7351  109.8472 H   0  0  0  0  0  0  0  0  0  0  0  0
  1  5  1  0  0  0  0
  1  9  1  0  0  0  0
  1 11  2  0  0  0  0
  2  3  1  0  0  0  0
  2  4  1  0  0  0  0
  3  5  1  0  0  0  0
  4  9  1  0  0  0  0
  5 10  1  0  0  0  0
  6  8  1  0  0  0  0
  6  9  1  0  0  0  0
  7  8  1  0  0  0  0
  7 12  1  0  0  0  0
  8 13  1  0  0  0  0
  2 14  1  0  0  0  0
  2 15  1  0  0  0  0
  3 16  1  0  0  0  0
  3 17  1  0  0  0  0
  4 18  1  0  0  0  0
  4 19  1  0  0  0  0
  5 20  1  0  0  0  0
  6 21  1  0  0  0  0
  6 22  1  0  0  0  0
  7 23  1  0  0  0  0
  7 24  1  0  0  0  0
  8 25  1  0  0  0  0
 10 26  1  0  0  0  0
 10 27  1  0  0  0  0
 12 28  1  0  0  0  0
 13 29  1  0  0  0  0
M  END
> <FRED Chemgauss4 score>
-8.110852

$$$$
C36853506	P90345133
  -OEChem-05122015313D

 27 27  0     1  0  0  0  0  0999 V2000
  126.5468  107.8543  106.9754 C   0  0  0  0  0  0  0  0  0  0  0  0
  125.0568  108.5785  108.5776 C   0  0  0  0  0  0  0  0  0  0  0  0
  125.8698  106.6039  107.4639 C   0  0  0  0  0  0  0  0  0  0  0  0
  124.8425  107.0906  108.4796 C   0  0  2  0  0  0  0  0  0  0  0  0
  121.5137  105.4824  108.3758 C   0  0  0  0  0  0  0  0  0  0  0  0
  125.5220  103.2987  106.7702 C   0  0  0  0  0  0  0  0  0  0  0  0
  123.6026  104.5251  107.3485 C   0  0  0  0  0  0  0  0  0  0  0  0
  123.0364  105.5137  108.3650 C   0  0  1  0  0  0  0  0  0  0  0  0
  126.0457  108.9148  107.6865 N   0  0  0  0  0  0  0  0  0  0  0  0
  123.4759  106.8627  108.0334 N   0  0  0  0  0  0  0  0  0  0  0  0
  127.4031  107.8893  106.1041 O   0  0  0  0  0  0  0  0  0  0  0  0
  124.4384  109.3382  109.3088 O   0  0  0  0  0  0  0  0  0  0  0  0
  124.9474  104.2126  107.6935 O   0  0  0  0  0  0  0  0  0  0  0  0
  125.4257  106.0696  106.6179 H   0  0  0  0  0  0  0  0  0  0  0  0
  126.6132  105.9554  107.9389 H   0  0  0  0  0  0  0  0  0  0  0  0
  125.0099  106.6284  109.4578 H   0  0  0  0  0  0  0  0  0  0  0  0
  121.1110  105.7236  107.3867 H   0  0  0  0  0  0  0  0  0  0  0  0
  121.1044  106.2005  109.0954 H   0  0  0  0  0  0  0  0  0  0  0  0
  121.1468  104.4890  108.6570 H   0  0  0  0  0  0  0  0  0  0  0  0
  126.5517  103.0814  107.0644 H   0  0  0  0  0  0  0  0  0  0  0  0
  125.5022  103.7321  105.7670 H   0  0  0  0  0  0  0  0  0  0  0  0
  124.9406  102.3738  106.7769 H   0  0  0  0  0  0  0  0  0  0  0  0
  123.0298  103.5919  107.3573 H   0  0  0  0  0  0  0  0  0  0  0  0
  123.5908  104.9366  106.3333 H   0  0  0  0  0  0  0  0  0  0  0  0
  123.4155  105.2696  109.3639 H   0  0  0  0  0  0  0  0  0  0  0  0
  126.3771  109.8654  107.5645 H   0  0  0  0  0  0  0  0  0  0  0  0
  123.4256  106.9926  107.0229 H   0  0  0  0  0  0  0  0  0  0  0  0
  1  3  1  0  0  0  0
  1  9  1  0  0  0  0
  1 11  2  0  0  0  0
  2  4  1  0  0  0  0
  2  9  1  0  0  0  0
  2 12  2  0  0  0  0
  3  4  1  0  0  0  0
  4 10  1  0  0  0  0
  5  8  1  0  0  0  0
  6 13  1  0  0  0  0
  7  8  1  0  0  0  0
  7 13  1  0  0  0  0
  8 10  1  0  0  0  0
  3 14  1  0  0  0  0
  3 15  1  0  0  0  0
  4 16  1  0  0  0  0
  5 17  1  0  0  0  0
  5 18  1  0  0  0  0
  5 19  1  0  0  0  0
  6 20  1  0  0  0  0
  6 21  1  0  0  0  0
  6 22  1  0  0  0  0
  7 23  1  0  0  0  0
  7 24  1  0  0  0  0
  8 25  1  0  0  0  0
  9 26  1  0  0  0  0
 10 27  1  0  0  0  0
M  END
> <FRED Chemgauss4 score>
-8.105213

$$$$
C38038841	P57193979
  -OEChem-05122015313D

 24 24  0     0  0  0  0  0  0999 V2000
  124.2461  108.1324  110.2709 C   0  0  0  0  0  0  0  0  0  0  0  0
  123.5254  110.0099  110.8299 C   0  0  0  0  0  0  0  0  0  0  0  0
  124.4781  107.9406  106.8928 C   0  0  0  0  0  0  0  0  0  0  0  0
  122.7550  106.1458  106.7471 C   0  0  0  0  0  0  0  0  0  0  0  0
  125.5569  104.9918  107.3437 C   0  0  0  0  0  0  0  0  0  0  0  0
  125.3405  108.6269  107.9429 C   0  0  0  0  0  0  0  0  0  0  0  0
  123.5785  108.7755  111.2735 N   0  0  0  0  0  0  0  0  0  0  0  0
  124.1367  110.0872  109.6174 N   0  0  0  0  0  0  0  0  0  0  0  0
  124.6095  108.8912  109.2348 N   0  0  0  0  0  0  0  0  0  0  0  0
  122.9324  111.0010  111.5343 N   0  0  0  0  0  0  0  0  0  0  0  0
  124.0056  106.6949  107.2390 N   0  0  0  0  0  0  0  0  0  0  0  0
  124.2365  108.4732  105.8076 O   0  0  0  0  0  0  0  0  0  0  0  0
  124.6838  105.8189  108.1074 O   0  0  0  0  0  0  0  0  0  0  0  0
  124.4659  107.0732  110.3163 H   0  0  0  0  0  0  0  0  0  0  0  0
  122.9263  105.5935  105.8194 H   0  0  0  0  0  0  0  0  0  0  0  0
  122.0403  106.9497  106.5512 H   0  0  0  0  0  0  0  0  0  0  0  0
  122.3237  105.4660  107.4869 H   0  0  0  0  0  0  0  0  0  0  0  0
  126.0880  104.3080  108.0104 H   0  0  0  0  0  0  0  0  0  0  0  0
  126.2709  105.6169  106.8015 H   0  0  0  0  0  0  0  0  0  0  0  0
  124.9652  104.4144  106.6294 H   0  0  0  0  0  0  0  0  0  0  0  0
  126.2193  108.0037  108.1491 H   0  0  0  0  0  0  0  0  0  0  0  0
  125.7095  109.5761  107.5380 H   0  0  0  0  0  0  0  0  0  0  0  0
  122.4543  110.8239  112.4284 H   0  0  0  0  0  0  0  0  0  0  0  0
  122.8496  111.9582  111.1650 H   0  0  0  0  0  0  0  0  0  0  0  0
  1  7  2  0  0  0  0
  1  9  1  0  0  0  0
  2  7  1  0  0  0  0
  2  8  2  0  0  0  0
  2 10  1  0  0  0  0
  3  6  1  0  0  0  0
  3 11  1  0  0  0  0
  3 12  2  0  0  0  0
  4 11  1  0  0  0  0
  5 13  1  0  0  0  0
  6  9  1  0  0  0  0
  8  9  1  0  0  0  0
 11 13  1  0  0  0  0
  1 14  1  0  0  0  0
  4 15  1  0  0  0  0
  4 16  1  0  0  0  0
  4 17  1  0  0  0  0
  5 18  1  0  0  0  0
  5 19  1  0  0  0  0
  5 20  1  0  0  0  0
  6 21  1  0  0  0  0
  6 22  1  0  0  0  0
 10 23  1  0  0  0  0
 10 24  1  0  0  0  0
M  END
> <FRED Chemgauss4 score>
-8.101216

$$$$
C70277932	P108339420
  -OEChem-05122015313D

 45 46  0     1  0  0  0  0  0999 V2000
  122.2923  106.2708  105.0727 C   0  0  0  0  0  0  0  0  0  0  0  0
  121.9459  105.1106  107.1634 C   0  0  0  0  0  0  0  0  0  0  0  0
  120.9474  106.0904  104.7498 C   0  0  0  0  0  0  0  0  0  0  0  0
  120.6009  104.9303  106.8405 C   0  0  0  0  0  0  0  0  0  0  0  0
  122.7915  105.7808  106.2795 C   0  0  0  0  0  0  0  0  0  0  0  0
  120.1017  105.4202  105.6337 C   0  0  0  0  0  0  0  0  0  0  0  0
  126.1828  105.1352  107.8700 C   0  0  0  0  0  0  0  0  0  0  0  0
  126.2766  106.4709  108.5883 C   0  0  0  0  0  0  0  0  0  0  0  0
  124.2621  105.9776  106.6334 C   0  0  1  0  0  0  0  0  0  0  0  0
  124.4653  107.3387  107.3597 C   0  0  2  0  0  0  0  0  0  0  0  0
  118.5020  104.4142  103.9679 C   0  0  0  0  0  0  0  0  0  0  0  0
  117.9432  106.5986  105.0868 C   0  0  0  0  0  0  0  0  0  0  0  0
  117.8123  104.4649  106.3561 C   0  0  0  0  0  0  0  0  0  0  0  0
  124.7450  103.5739  106.7649 C   0  0  0  0  0  0  0  0  0  0  0  0
  124.1039  108.5354  106.4802 C   0  0  0  0  0  0  0  0  0  0  0  0
  118.6634  105.2293  105.2884 C   0  0  0  0  0  0  0  0  0  0  0  0
  124.7937  104.8633  107.4657 N   0  0  1  0  0  0  0  0  0  0  0  0
  124.9280  108.5453  105.3193 N   0  0  0  0  0  0  0  0  0  0  0  0
  125.8429  107.5103  107.7180 O   0  0  0  0  0  0  0  0  0  0  0  0
  122.9440  106.7936  104.3777 H   0  0  0  0  0  0  0  0  0  0  0  0
  122.3264  104.7267  108.1064 H   0  0  0  0  0  0  0  0  0  0  0  0
  120.5667  106.4768  103.8081 H   0  0  0  0  0  0  0  0  0  0  0  0
  119.9490  104.4068  107.5348 H   0  0  0  0  0  0  0  0  0  0  0  0
  126.8356  105.1505  106.9874 H   0  0  0  0  0  0  0  0  0  0  0  0
  126.5400  104.3473  108.5433 H   0  0  0  0  0  0  0  0  0  0  0  0
  125.6854  106.4842  109.5120 H   0  0  0  0  0  0  0  0  0  0  0  0
  127.3173  106.6761  108.8587 H   0  0  0  0  0  0  0  0  0  0  0  0
  124.8338  106.0015  105.6769 H   0  0  0  0  0  0  0  0  0  0  0  0
  123.8597  107.3892  108.2756 H   0  0  0  0  0  0  0  0  0  0  0  0
  117.4526  104.2594  103.6911 H   0  0  0  0  0  0  0  0  0  0  0  0
  118.9846  104.9185  103.1235 H   0  0  0  0  0  0  0  0  0  0  0  0
  118.9687  103.4274  104.0720 H   0  0  0  0  0  0  0  0  0  0  0  0
  116.8863  106.4626  104.8330 H   0  0  0  0  0  0  0  0  0  0  0  0
  117.9788  107.2317  105.9812 H   0  0  0  0  0  0  0  0  0  0  0  0
  118.4098  107.1552  104.2654 H   0  0  0  0  0  0  0  0  0  0  0  0
  116.7635  104.3498  106.0571 H   0  0  0  0  0  0  0  0  0  0  0  0
  118.2110  103.4576  106.5244 H   0  0  0  0  0  0  0  0  0  0  0  0
  117.8173  104.9986  107.3137 H   0  0  0  0  0  0  0  0  0  0  0  0
  123.7202  103.3529  106.4556 H   0  0  0  0  0  0  0  0  0  0  0  0
  125.0948  102.7731  107.4221 H   0  0  0  0  0  0  0  0  0  0  0  0
  125.3823  103.6020  105.8770 H   0  0  0  0  0  0  0  0  0  0  0  0
  124.2683  109.4426  107.0457 H   0  0  0  0  0  0  0  0  0  0  0  0
  123.0673  108.4524  106.1842 H   0  0  0  0  0  0  0  0  0  0  0  0
  125.8952  108.2452  105.3831 H   0  0  0  0  0  0  0  0  0  0  0  0
  124.6211  109.0357  104.4856 H   0  0  0  0  0  0  0  0  0  0  0  0
  1  3  2  0  0  0  0
  1  5  1  0  0  0  0
  2  4  1  0  0  0  0
  2  5  2  0  0  0  0
  3  6  1  0  0  0  0
  4  6  2  0  0  0  0
  5  9  1  0  0  0  0
  6 16  1  0  0  0  0
  7  8  1  0  0  0  0
  7 17  1  0  0  0  0
  8 19  1  0  0  0  0
  9 10  1  0  0  0  0
  9 17  1  0  0  0  0
 10 15  1  0  0  0  0
 10 19  1  0  0  0  0
 11 16  1  0  0  0  0
 12 16  1  0  0  0  0
 13 16  1  0  0  0  0
 14 17  1  0  0  0  0
 15 18  1  0  0  0  0
  1 20  1  0  0  0  0
  2 21  1  0  0  0  0
  3 22  1  0  0  0  0
  4 23  1  0  0  0  0
  7 24  1  0  0  0  0
  7 25  1  0  0  0  0
  8 26  1  0  0  0  0
  8 27  1  0  0  0  0
  9 28  1  0  0  0  0
 10 29  1  0  0  0  0
 11 30  1  0  0  0  0
 11 31  1  0  0  0  0
 11 32  1  0  0  0  0
 12 33  1  0  0  0  0
 12 34  1  0  0  0  0
 12 35  1  0  0  0  0
 13 36  1  0  0  0  0
 13 37  1  0  0  0  0
 13 38  1  0  0  0  0
 14 39  1  0  0  0  0
 14 40  1  0  0  0  0
 14 41  1  0  0  0  0
 15 42  1  0  0  0  0
 15 43  1  0  0  0  0
 18 44  1  0  0  0  0
 18 45  1  0  0  0  0
M  END
> <FRED Chemgauss4 score>
-8.100407

$$$$
C63154913	P96986964
  -OEChem-05122015313D

 29 29  0     1  0  0  0  0  0999 V2000
  125.1452  104.1787  106.8775 C   0  0  0  0  0  0  0  0  0  0  0  0
  124.5858  105.5760  106.9724 C   0  0  0  0  0  0  0  0  0  0  0  0
  125.5081  103.8885  108.3185 C   0  0  0  0  0  0  0  0  0  0  0  0
  125.5021  106.1988  108.0115 C   0  0  1  0  0  0  0  0  0  0  0  0
  124.8664  107.3498  108.7668 C   0  0  0  0  0  0  0  0  0  0  0  0
  124.2303  110.0141  111.2529 C   0  0  0  0  0  0  0  0  0  0  0  0
  123.4424  109.8276  109.9672 C   0  0  0  0  0  0  0  0  0  0  0  0
  123.4070  109.8565  112.4217 N   0  0  0  0  0  0  0  0  0  0  0  0
  124.2937  109.9693  108.7724 N   0  0  0  0  0  0  0  0  0  0  0  0
  125.5125  108.8974  106.7573 O   0  0  0  0  0  0  0  0  0  0  0  0
  123.0799  108.3763  107.1668 O   0  0  0  0  0  0  0  0  0  0  0  0
  125.8448  105.1444  108.9267 O   0  0  0  0  0  0  0  0  0  0  0  0
  124.4123  108.6594  107.6791 S   0  0  0  0  0  0  0  0  0  0  0  0
  124.4452  103.4512  106.4586 H   0  0  0  0  0  0  0  0  0  0  0  0
  126.0492  104.1811  106.2570 H   0  0  0  0  0  0  0  0  0  0  0  0
  124.5954  106.1135  106.0201 H   0  0  0  0  0  0  0  0  0  0  0  0
  123.5511  105.5340  107.3336 H   0  0  0  0  0  0  0  0  0  0  0  0
  124.6554  103.4723  108.8654 H   0  0  0  0  0  0  0  0  0  0  0  0
  126.3510  103.1975  108.4081 H   0  0  0  0  0  0  0  0  0  0  0  0
  126.4343  106.5352  107.5421 H   0  0  0  0  0  0  0  0  0  0  0  0
  125.5621  107.7631  109.5002 H   0  0  0  0  0  0  0  0  0  0  0  0
  123.9591  107.0230  109.2789 H   0  0  0  0  0  0  0  0  0  0  0  0
  124.6826  111.0096  111.3033 H   0  0  0  0  0  0  0  0  0  0  0  0
  125.0265  109.2659  111.3177 H   0  0  0  0  0  0  0  0  0  0  0  0
  123.0049  108.8251  109.9330 H   0  0  0  0  0  0  0  0  0  0  0  0
  122.6345  110.5618  109.8845 H   0  0  0  0  0  0  0  0  0  0  0  0
  122.4708  110.2286  112.4168 H   0  0  0  0  0  0  0  0  0  0  0  0
  123.8334  109.5654  113.2870 H   0  0  0  0  0  0  0  0  0  0  0  0
  125.1486  110.5181  108.9318 H   0  0  0  0  0  0  0  0  0  0  0  0
  1  2  1  0  0  0  0
  1  3  1  0  0  0  0
  2  4  1  0  0  0  0
  3 12  1  0  0  0  0
  4  5  1  0  0  0  0
  4 12  1  0  0  0  0
  5 13  1  0  0  0  0
  6  7  1  0  0  0  0
  6  8  1  0  0  0  0
  7  9  1  0  0  0  0
  9 13  1  0  0  0  0
 10 13  2  0  0  0  0
 11 13  2  0  0  0  0
  1 14  1  0  0  0  0
  1 15  1  0  0  0  0
  2 16  1  0  0  0  0
  2 17  1  0  0  0  0
  3 18  1  0  0  0  0
  3 19  1  0  0  0  0
  4 20  1  0  0  0  0
  5 21  1  0  0  0  0
  5 22  1  0  0  0  0
  6 23  1  0  0  0  0
  6 24  1  0  0  0  0
  7 25  1  0  0  0  0
  7 26  1  0  0  0  0
  8 27  1  0  0  0  0
  8 28  1  0  0  0  0
  9 29  1  0  0  0  0
M  END
> <FRED Chemgauss4 score>
-8.097823

$$$$
C83811975	P131111335
  -OEChem-05122015313D

 24 24  0     1  0  0  0  0  0999 V2000
  125.9727  107.1089  108.1127 C   0  0  0  0  0  0  0  0  0  0  0  0
  124.8855  108.8672  108.0343 C   0  0  0  0  0  0  0  0  0  0  0  0
  122.9212  105.6956  108.0325 C   0  0  0  0  0  0  0  0  0  0  0  0
  125.6637  104.6258  108.6212 C   0  0  0  0  0  0  0  0  0  0  0  0
  124.7647  104.3754  107.4148 C   0  0  0  0  0  0  0  0  0  0  0  0
  126.6485  105.7876  108.4134 C   0  0  2  0  0  0  0  0  0  0  0  0
  125.1088  107.7816  108.8303 N   0  0  0  0  0  0  0  0  0  0  0  0
  125.5606  108.8908  106.8813 N   0  0  0  0  0  0  0  0  0  0  0  0
  124.0151  109.8171  108.4628 N   0  0  0  0  0  0  0  0  0  0  0  0
  127.5191  105.9191  109.5620 N   0  0  0  0  0  0  0  0  0  0  0  0
  126.2972  107.7008  106.9334 O   0  0  0  0  0  0  0  0  0  0  0  0
  124.0227  105.5580  107.1454 O   0  0  0  0  0  0  0  0  0  0  0  0
  122.3752  106.6124  107.7972 H   0  0  0  0  0  0  0  0  0  0  0  0
  123.2841  105.7293  109.0629 H   0  0  0  0  0  0  0  0  0  0  0  0
  122.2568  104.8370  107.9102 H   0  0  0  0  0  0  0  0  0  0  0  0
  126.2251  103.7054  108.8339 H   0  0  0  0  0  0  0  0  0  0  0  0
  125.0421  104.7847  109.5124 H   0  0  0  0  0  0  0  0  0  0  0  0
  125.3501  104.1298  106.5239 H   0  0  0  0  0  0  0  0  0  0  0  0
  124.0602  103.5622  107.6158 H   0  0  0  0  0  0  0  0  0  0  0  0
  127.3157  105.5225  107.5836 H   0  0  0  0  0  0  0  0  0  0  0  0
  123.4916  109.7143  109.3400 H   0  0  0  0  0  0  0  0  0  0  0  0
  123.7743  110.6299  107.8837 H   0  0  0  0  0  0  0  0  0  0  0  0
  128.0013  106.7871  109.7047 H   0  0  0  0  0  0  0  0  0  0  0  0
  127.7789  105.0921  110.0672 H   0  0  0  0  0  0  0  0  0  0  0  0
  1  6  1  0  0  0  0
  1  7  2  0  0  0  0
  1 11  1  0  0  0  0
  2  7  1  0  0  0  0
  2  8  2  0  0  0  0
  2  9  1  0  0  0  0
  3 12  1  0  0  0  0
  4  5  1  0  0  0  0
  4  6  1  0  0  0  0
  5 12  1  0  0  0  0
  6 10  1  0  0  0  0
  8 11  1  0  0  0  0
  3 13  1  0  0  0  0
  3 14  1  0  0  0  0
  3 15  1  0  0  0  0
  4 16  1  0  0  0  0
  4 17  1  0  0  0  0
  5 18  1  0  0  0  0
  5 19  1  0  0  0  0
  6 20  1  0  0  0  0
  9 21  1  0  0  0  0
  9 22  1  0  0  0  0
 10 23  1  0  0  0  0
 10 24  1  0  0  0  0
M  END
> <FRED Chemgauss4 score>
-8.087935

$$$$
C14241055	P21824158
  -OEChem-05122015313D

 20 20  0     1  0  0  0  0  0999 V2000
  125.2619  107.3802  107.3450 C   0  0  0  0  0  0  0  0  0  0  0  0
  125.6042  106.3276  108.1175 C   0  0  0  0  0  0  0  0  0  0  0  0
  124.3366  106.8404  106.3165 C   0  0  0  0  0  0  0  0  0  0  0  0
  125.6941  108.7640  107.4700 C   0  0  0  0  0  0  0  0  0  0  0  0
  124.1328  105.3608  106.5135 C   0  0  0  0  0  0  0  0  0  0  0  0
  125.1144  103.8379  108.2506 C   0  0  0  0  0  0  0  0  0  0  0  0
  124.9771  105.1556  107.6757 N   0  0  3  0  0  0  0  0  0  0  0  0
  126.4511  106.3949  109.1895 N   0  0  0  0  0  0  0  0  0  0  0  0
  127.0586  108.9334  107.3626 N   0  0  0  0  0  0  0  0  0  0  0  0
  123.8195  107.5118  105.4379 O   0  0  0  0  0  0  0  0  0  0  0  0
  124.8956  109.6870  107.6546 O   0  0  0  0  0  0  0  0  0  0  0  0
  123.0839  105.1459  106.7329 H   0  0  0  0  0  0  0  0  0  0  0  0
  124.4979  104.8066  105.6452 H   0  0  0  0  0  0  0  0  0  0  0  0
  124.5059  103.1201  107.6945 H   0  0  0  0  0  0  0  0  0  0  0  0
  124.7857  103.8444  109.2934 H   0  0  0  0  0  0  0  0  0  0  0  0
  126.1588  103.5166  108.2143 H   0  0  0  0  0  0  0  0  0  0  0  0
  126.8480  107.2765  109.4249 H   0  0  0  0  0  0  0  0  0  0  0  0
  126.6408  105.5601  109.6967 H   0  0  0  0  0  0  0  0  0  0  0  0
  127.6433  108.1182  107.2105 H   0  0  0  0  0  0  0  0  0  0  0  0
  127.4980  109.8463  107.4306 H   0  0  0  0  0  0  0  0  0  0  0  0
  1  2  2  0  0  0  0
  1  3  1  0  0  0  0
  1  4  1  0  0  0  0
  2  7  1  0  0  0  0
  2  8  1  0  0  0  0
  3  5  1  0  0  0  0
  3 10  2  0  0  0  0
  4  9  1  0  0  0  0
  4 11  2  0  0  0  0
  5  7  1  0  0  0  0
  6  7  1  0  0  0  0
  5 12  1  0  0  0  0
  5 13  1  0  0  0  0
  6 14  1  0  0  0  0
  6 15  1  0  0  0  0
  6 16  1  0  0  0  0
  8 17  1  0  0  0  0
  8 18  1  0  0  0  0
  9 19  1  0  0  0  0
  9 20  1  0  0  0  0
M  END
> <FRED Chemgauss4 score>
-8.085034

$$$$
C85542475	P133883331
  -OEChem-05122015313D

 27 28  0     1  0  0  0  0  0999 V2000
  124.6123  108.7858  108.5888 C   0  0  0  0  0  0  0  0  0  0  0  0
  123.7440  109.0059  109.7696 C   0  0  0  0  0  0  0  0  0  0  0  0
  123.2850  105.2347  107.2219 C   0  0  0  0  0  0  0  0  0  0  0  0
  124.2028  105.6282  106.0722 C   0  0  0  0  0  0  0  0  0  0  0  0
  124.4226  106.4019  109.1766 C   0  0  0  0  0  0  0  0  0  0  0  0
  125.9199  107.0574  107.2916 C   0  0  0  0  0  0  0  0  0  0  0  0
  124.2276  105.0897  108.4113 C   0  0  2  0  0  0  0  0  0  0  0  0
  125.5875  105.6790  106.7085 C   0  0  1  0  0  0  0  0  0  0  0  0
  124.9353  107.4658  108.3066 N   0  0  0  0  0  0  0  0  0  0  0  0
  123.7957  109.4038  112.1047 N   0  0  0  0  0  0  0  0  0  0  0  0
  124.4732  109.1873  110.9213 N   0  0  0  0  0  0  0  0  0  0  0  0
  124.9473  109.7924  107.9786 O   0  0  0  0  0  0  0  0  0  0  0  0
  122.5273  109.0107  109.6482 O   0  0  0  0  0  0  0  0  0  0  0  0
  125.4906  104.7562  107.8078 O   0  0  0  0  0  0  0  0  0  0  0  0
  122.4809  105.9563  107.3962 H   0  0  0  0  0  0  0  0  0  0  0  0
  122.8172  104.2697  106.9937 H   0  0  0  0  0  0  0  0  0  0  0  0
  124.1713  104.8462  105.3044 H   0  0  0  0  0  0  0  0  0  0  0  0
  123.9139  106.5695  105.5947 H   0  0  0  0  0  0  0  0  0  0  0  0
  123.4900  106.7225  109.6527 H   0  0  0  0  0  0  0  0  0  0  0  0
  125.1750  106.2654  109.9626 H   0  0  0  0  0  0  0  0  0  0  0  0
  126.8872  107.0214  107.8063 H   0  0  0  0  0  0  0  0  0  0  0  0
  125.9838  107.8026  106.4936 H   0  0  0  0  0  0  0  0  0  0  0  0
  123.9188  104.2891  109.0900 H   0  0  0  0  0  0  0  0  0  0  0  0
  126.3719  105.3527  106.0190 H   0  0  0  0  0  0  0  0  0  0  0  0
  124.3480  108.9723  112.8447 H   0  0  0  0  0  0  0  0  0  0  0  0
  122.9296  108.8690  112.0514 H   0  0  0  0  0  0  0  0  0  0  0  0
  125.4881  109.1697  110.9502 H   0  0  0  0  0  0  0  0  0  0  0  0
  1  2  1  0  0  0  0
  1  9  1  0  0  0  0
  1 12  2  0  0  0  0
  2 11  1  0  0  0  0
  2 13  2  0  0  0  0
  3  4  1  0  0  0  0
  3  7  1  0  0  0  0
  4  8  1  0  0  0  0
  5  7  1  0  0  0  0
  5  9  1  0  0  0  0
  6  8  1  0  0  0  0
  6  9  1  0  0  0  0
  7 14  1  0  0  0  0
  8 14  1  0  0  0  0
 10 11  1  0  0  0  0
  3 15  1  0  0  0  0
  3 16  1  0  0  0  0
  4 17  1  0  0  0  0
  4 18  1  0  0  0  0
  5 19  1  0  0  0  0
  5 20  1  0  0  0  0
  6 21  1  0  0  0  0
  6 22  1  0  0  0  0
  7 23  1  0  0  0  0
  8 24  1  0  0  0  0
 10 25  1  0  0  0  0
 10 26  1  0  0  0  0
 11 27  1  0  0  0  0
M  END
> <FRED Chemgauss4 score>
-8.083604

$$$$
C85253958	P133399080
  -OEChem-05122015313D

 29 28  0     1  0  0  0  0  0999 V2000
  121.7657  104.8770  106.0829 C   0  0  0  0  0  0  0  0  0  0  0  0
  119.4973  103.8776  105.9441 C   0  0  0  0  0  0  0  0  0  0  0  0
  124.0466  108.6203  106.9967 C   0  0  0  0  0  0  0  0  0  0  0  0
  123.1421  104.5064  106.5968 C   0  0  0  0  0  0  0  0  0  0  0  0
  124.3839  106.4214  105.8539 C   0  0  0  0  0  0  0  0  0  0  0  0
  126.3108  107.5267  107.1501 C   0  0  0  0  0  0  0  0  0  0  0  0
  125.0679  107.7352  106.2721 C   0  0  2  0  0  0  0  0  0  0  0  0
  118.8416  102.7163  106.3150 N   0  0  0  0  0  0  0  0  0  0  0  0
  120.8445  103.8529  106.3184 N   0  0  0  0  0  0  0  0  0  0  0  0
  123.8467  105.7209  106.9989 N   0  0  0  0  0  0  0  0  0  0  0  0
  121.5133  105.9364  105.5149 O   0  0  0  0  0  0  0  0  0  0  0  0
  118.9390  104.8026  105.3572 O   0  0  0  0  0  0  0  0  0  0  0  0
  126.9153  108.7678  107.4787 O   0  0  0  0  0  0  0  0  0  0  0  0
  125.4652  108.4468  105.0965 O   0  0  0  0  0  0  0  0  0  0  0  0
  124.5034  109.5667  107.3087 H   0  0  0  0  0  0  0  0  0  0  0  0
  123.1794  108.8448  106.3673 H   0  0  0  0  0  0  0  0  0  0  0  0
  123.6915  108.1347  107.9131 H   0  0  0  0  0  0  0  0  0  0  0  0
  123.0455  103.8378  107.4580 H   0  0  0  0  0  0  0  0  0  0  0  0
  123.6915  103.9890  105.8043 H   0  0  0  0  0  0  0  0  0  0  0  0
  125.0857  105.7621  105.3318 H   0  0  0  0  0  0  0  0  0  0  0  0
  123.5534  106.6311  105.1702 H   0  0  0  0  0  0  0  0  0  0  0  0
  127.0508  106.8954  106.6455 H   0  0  0  0  0  0  0  0  0  0  0  0
  126.0410  107.0094  108.0784 H   0  0  0  0  0  0  0  0  0  0  0  0
  119.3595  101.9893  106.7971 H   0  0  0  0  0  0  0  0  0  0  0  0
  117.8571  102.5730  106.1176 H   0  0  0  0  0  0  0  0  0  0  0  0
  121.1806  103.0234  106.8005 H   0  0  0  0  0  0  0  0  0  0  0  0
  124.6057  105.4645  107.6355 H   0  0  0  0  0  0  0  0  0  0  0  0
  127.6893  108.5675  108.0306 H   0  0  0  0  0  0  0  0  0  0  0  0
  124.6599  108.5810  104.5759 H   0  0  0  0  0  0  0  0  0  0  0  0
  1  4  1  0  0  0  0
  1  9  1  0  0  0  0
  1 11  2  0  0  0  0
  2  8  1  0  0  0  0
  2  9  1  0  0  0  0
  2 12  2  0  0  0  0
  3  7  1  0  0  0  0
  4 10  1  0  0  0  0
  5  7  1  0  0  0  0
  5 10  1  0  0  0  0
  6  7  1  0  0  0  0
  6 13  1  0  0  0  0
  7 14  1  0  0  0  0
  3 15  1  0  0  0  0
  3 16  1  0  0  0  0
  3 17  1  0  0  0  0
  4 18  1  0  0  0  0
  4 19  1  0  0  0  0
  5 20  1  0  0  0  0
  5 21  1  0  0  0  0
  6 22  1  0  0  0  0
  6 23  1  0  0  0  0
  8 24  1  0  0  0  0
  8 25  1  0  0  0  0
  9 26  1  0  0  0  0
 10 27  1  0  0  0  0
 13 28  1  0  0  0  0
 14 29  1  0  0  0  0
M  END
> <FRED Chemgauss4 score>
-8.083292

$$$$
C39095921	P59227803
  -OEChem-05122015313D

 19 19  0     1  0  0  0  0  0999 V2000
  126.4198  107.3434  107.5190 C   0  0  0  0  0  0  0  0  0  0  0  0
  125.5902  106.2094  106.9934 C   0  0  0  0  0  0  0  0  0  0  0  0
  125.7306  105.1688  108.1021 C   0  0  2  0  0  0  0  0  0  0  0  0
  124.4974  104.2952  108.2550 C   0  0  0  0  0  0  0  0  0  0  0  0
  123.2615  105.1262  108.5425 C   0  0  0  0  0  0  0  0  0  0  0  0
  126.5901  107.1179  108.8707 N   0  0  0  0  0  0  0  0  0  0  0  0
  125.9710  105.9646  109.3119 N   0  0  0  0  0  0  0  0  0  0  0  0
  126.8248  108.2907  106.8639 O   0  0  0  0  0  0  0  0  0  0  0  0
  122.1538  104.2487  108.6904 O   0  0  0  0  0  0  0  0  0  0  0  0
  124.5603  106.5288  106.8264 H   0  0  0  0  0  0  0  0  0  0  0  0
  126.0403  105.8628  106.0593 H   0  0  0  0  0  0  0  0  0  0  0  0
  126.5981  104.5233  107.9077 H   0  0  0  0  0  0  0  0  0  0  0  0
  124.6626  103.5758  109.0607 H   0  0  0  0  0  0  0  0  0  0  0  0
  124.3537  103.7109  107.3428 H   0  0  0  0  0  0  0  0  0  0  0  0
  123.3780  105.6992  109.4679 H   0  0  0  0  0  0  0  0  0  0  0  0
  123.0510  105.8173  107.7200 H   0  0  0  0  0  0  0  0  0  0  0  0
  127.1156  107.7364  109.4741 H   0  0  0  0  0  0  0  0  0  0  0  0
  125.0892  106.2311  109.7483 H   0  0  0  0  0  0  0  0  0  0  0  0
  121.3785  104.8039  108.8731 H   0  0  0  0  0  0  0  0  0  0  0  0
  1  2  1  0  0  0  0
  1  6  1  0  0  0  0
  1  8  2  0  0  0  0
  2  3  1  0  0  0  0
  3  4  1  0  0  0  0
  3  7  1  0  0  0  0
  4  5  1  0  0  0  0
  5  9  1  0  0  0  0
  6  7  1  0  0  0  0
  2 10  1  0  0  0  0
  2 11  1  0  0  0  0
  3 12  1  0  0  0  0
  4 13  1  0  0  0  0
  4 14  1  0  0  0  0
  5 15  1  0  0  0  0
  5 16  1  0  0  0  0
  6 17  1  0  0  0  0
  7 18  1  0  0  0  0
  9 19  1  0  0  0  0
M  END
> <FRED Chemgauss4 score>
-8.083106

$$$$
C85227045	P133358857
  -OEChem-05122015313D

 25 26  0     1  0  0  0  0  0999 V2000
  122.8376  108.4746  111.1298 C   0  0  0  0  0  0  0  0  0  0  0  0
  123.7219  110.7101  111.0574 C   0  0  0  0  0  0  0  0  0  0  0  0
  122.4016  108.7465  112.4165 C   0  0  0  0  0  0  0  0  0  0  0  0
  123.2461  110.8820  112.3473 C   0  0  0  0  0  0  0  0  0  0  0  0
  123.5095  109.4804  110.4441 C   0  0  0  0  0  0  0  0  0  0  0  0
  123.9824  109.2502  109.1083 C   0  0  0  0  0  0  0  0  0  0  0  0
  124.3630  108.2805  107.3210 C   0  0  0  0  0  0  0  0  0  0  0  0
  125.3494  106.1251  106.4693 C   0  0  0  0  0  0  0  0  0  0  0  0
  124.5077  107.3868  106.1642 C   0  0  2  0  0  0  0  0  0  0  0  0
  122.5891  109.9285  113.0452 N   0  0  0  0  0  0  0  0  0  0  0  0
  123.7913  108.0557  108.4770 N   0  0  0  0  0  0  0  0  0  0  0  0
  124.6332  110.1815  108.4048 N   0  0  0  0  0  0  0  0  0  0  0  0
  124.5611  105.1230  107.1507 N   0  0  0  0  0  0  0  0  0  0  0  0
  124.8915  109.5259  107.1944 O   0  0  0  0  0  0  0  0  0  0  0  0
  125.1325  108.0908  105.0719 O   0  0  0  0  0  0  0  0  0  0  0  0
  122.6529  107.5022  110.6846 H   0  0  0  0  0  0  0  0  0  0  0  0
  124.2420  111.5192  110.5547 H   0  0  0  0  0  0  0  0  0  0  0  0
  121.8723  107.9957  112.9941 H   0  0  0  0  0  0  0  0  0  0  0  0
  123.3856  111.8227  112.8698 H   0  0  0  0  0  0  0  0  0  0  0  0
  126.2011  106.3899  107.1053 H   0  0  0  0  0  0  0  0  0  0  0  0
  125.7402  105.6879  105.5439 H   0  0  0  0  0  0  0  0  0  0  0  0
  123.5206  107.0608  105.7691 H   0  0  0  0  0  0  0  0  0  0  0  0
  123.8870  105.4194  107.8331 H   0  0  0  0  0  0  0  0  0  0  0  0
  124.8387  104.1606  107.0825 H   0  0  0  0  0  0  0  0  0  0  0  0
  124.5453  108.8295  104.8695 H   0  0  0  0  0  0  0  0  0  0  0  0
  1  3  1  0  0  0  0
  1  5  2  0  0  0  0
  2  4  2  0  0  0  0
  2  5  1  0  0  0  0
  3 10  2  0  0  0  0
  4 10  1  0  0  0  0
  5  6  1  0  0  0  0
  6 11  1  0  0  0  0
  6 12  2  0  0  0  0
  7  9  1  0  0  0  0
  7 11  2  0  0  0  0
  7 14  1  0  0  0  0
  8  9  1  0  0  0  0
  8 13  1  0  0  0  0
  9 15  1  0  0  0  0
 12 14  1  0  0  0  0
  1 16  1  0  0  0  0
  2 17  1  0  0  0  0
  3 18  1  0  0  0  0
  4 19  1  0  0  0  0
  8 20  1  0  0  0  0
  8 21  1  0  0  0  0
  9 22  1  0  0  0  0
 13 23  1  0  0  0  0
 13 24  1  0  0  0  0
 15 25  1  0  0  0  0
M  END
> <FRED Chemgauss4 score>
-8.082144

$$$$
C69942987	P107812252
  -OEChem-05122015313D

 24 24  0     1  0  0  0  0  0999 V2000
  124.4856  107.1228  109.0562 C   0  0  0  0  0  0  0  0  0  0  0  0
  123.9990  109.4220  109.4214 C   0  0  0  0  0  0  0  0  0  0  0  0
  123.7716  108.0948  109.7480 C   0  0  0  0  0  0  0  0  0  0  0  0
  125.3924  107.5023  108.0728 C   0  0  0  0  0  0  0  0  0  0  0  0
  125.5471  108.8560  107.8210 C   0  0  0  0  0  0  0  0  0  0  0  0
  122.7954  107.7222  110.8064 C   0  0  0  0  0  0  0  0  0  0  0  0
  125.8274  105.0261  107.7840 C   0  0  0  0  0  0  0  0  0  0  0  0
  126.1566  106.4572  107.3334 C   0  0  1  0  0  0  0  0  0  0  0  0
  124.8714  109.8291  108.4724 N   0  0  0  0  0  0  0  0  0  0  0  0
  126.4702  109.2475  106.8192 N   0  0  0  0  0  0  0  0  0  0  0  0
  125.9711  106.5498  105.8949 N   0  0  0  0  0  0  0  0  0  0  0  0
  124.3343  106.0705  109.2840 H   0  0  0  0  0  0  0  0  0  0  0  0
  123.4705  110.2241  109.9275 H   0  0  0  0  0  0  0  0  0  0  0  0
  123.2888  107.6721  111.7863 H   0  0  0  0  0  0  0  0  0  0  0  0
  121.9742  108.4501  110.8709 H   0  0  0  0  0  0  0  0  0  0  0  0
  122.3340  106.7454  110.6025 H   0  0  0  0  0  0  0  0  0  0  0  0
  124.7590  104.8177  107.6599 H   0  0  0  0  0  0  0  0  0  0  0  0
  126.3873  104.2866  107.2005 H   0  0  0  0  0  0  0  0  0  0  0  0
  126.0829  104.8652  108.8373 H   0  0  0  0  0  0  0  0  0  0  0  0
  127.2416  106.5986  107.4845 H   0  0  0  0  0  0  0  0  0  0  0  0
  127.0107  108.5457  106.3627 H   0  0  0  0  0  0  0  0  0  0  0  0
  126.6250  110.2193  106.6616 H   0  0  0  0  0  0  0  0  0  0  0  0
  126.1335  105.7332  105.3405 H   0  0  0  0  0  0  0  0  0  0  0  0
  125.8889  107.4576  105.4830 H   0  0  0  0  0  0  0  0  0  0  0  0
  1  3  1  0  0  0  0
  1  4  2  0  0  0  0
  2  3  2  0  0  0  0
  2  9  1  0  0  0  0
  3  6  1  0  0  0  0
  4  5  1  0  0  0  0
  4  8  1  0  0  0  0
  5  9  2  0  0  0  0
  5 10  1  0  0  0  0
  7  8  1  0  0  0  0
  8 11  1  0  0  0  0
  1 12  1  0  0  0  0
  2 13  1  0  0  0  0
  6 14  1  0  0  0  0
  6 15  1  0  0  0  0
  6 16  1  0  0  0  0
  7 17  1  0  0  0  0
  7 18  1  0  0  0  0
  7 19  1  0  0  0  0
  8 20  1  0  0  0  0
 10 21  1  0  0  0  0
 10 22  1  0  0  0  0
 11 23  1  0  0  0  0
 11 24  1  0  0  0  0
M  END
> <FRED Chemgauss4 score>
-8.080612

$$$$
C70628573	P108955019
  -OEChem-05122015313D

 29 30  0     1  0  0  0  0  0999 V2000
  123.0334  110.6497  111.1310 C   0  0  0  0  0  0  0  0  0  0  0  0
  124.5745  107.5584  106.5384 C   0  0  0  0  0  0  0  0  0  0  0  0
  122.8756  109.2183  111.5814 C   0  0  0  0  0  0  0  0  0  0  0  0
  124.0579  108.5164  110.9181 C   0  0  0  0  0  0  0  0  0  0  0  0
  124.8819  105.4520  107.6282 C   0  0  0  0  0  0  0  0  0  0  0  0
  124.5635  106.5173  108.6620 C   0  0  0  0  0  0  0  0  0  0  0  0
  125.2933  106.2406  106.3899 C   0  0  2  0  0  0  0  0  0  0  0  0
  124.3022  109.3196  109.6464 C   0  0  1  0  0  0  0  0  0  0  0  0
  123.5050  108.7972  108.4586 C   0  0  0  0  0  0  0  0  0  0  0  0
  123.8725  110.6441  110.0215 N   0  0  0  0  0  0  0  0  0  0  0  0
  124.1492  107.6466  107.8630 N   0  0  0  0  0  0  0  0  0  0  0  0
  126.7359  106.5386  106.3979 N   0  0  0  0  0  0  0  0  0  0  0  0
  122.4863  111.6156  111.6401 O   0  0  0  0  0  0  0  0  0  0  0  0
  124.4498  108.3896  105.6506 O   0  0  0  0  0  0  0  0  0  0  0  0
  122.9179  109.1441  112.6707 H   0  0  0  0  0  0  0  0  0  0  0  0
  121.9194  108.8333  111.2146 H   0  0  0  0  0  0  0  0  0  0  0  0
  124.9335  108.5975  111.5753 H   0  0  0  0  0  0  0  0  0  0  0  0
  123.8742  107.4524  110.7411 H   0  0  0  0  0  0  0  0  0  0  0  0
  125.6316  104.7346  107.9768 H   0  0  0  0  0  0  0  0  0  0  0  0
  123.9704  104.8838  107.4011 H   0  0  0  0  0  0  0  0  0  0  0  0
  123.7620  106.2090  109.3392 H   0  0  0  0  0  0  0  0  0  0  0  0
  125.4486  106.8068  109.2378 H   0  0  0  0  0  0  0  0  0  0  0  0
  125.0058  105.7327  105.4725 H   0  0  0  0  0  0  0  0  0  0  0  0
  125.3620  109.3482  109.3851 H   0  0  0  0  0  0  0  0  0  0  0  0
  123.4177  109.5677  107.6867 H   0  0  0  0  0  0  0  0  0  0  0  0
  122.5008  108.4936  108.7687 H   0  0  0  0  0  0  0  0  0  0  0  0
  124.1296  111.4840  109.5126 H   0  0  0  0  0  0  0  0  0  0  0  0
  127.0507  107.3625  105.9298 H   0  0  0  0  0  0  0  0  0  0  0  0
  127.3653  105.8187  106.6859 H   0  0  0  0  0  0  0  0  0  0  0  0
  1  3  1  0  0  0  0
  1 10  1  0  0  0  0
  1 13  2  0  0  0  0
  2  7  1  0  0  0  0
  2 11  1  0  0  0  0
  2 14  2  0  0  0  0
  3  4  1  0  0  0  0
  4  8  1  0  0  0  0
  5  6  1  0  0  0  0
  5  7  1  0  0  0  0
  6 11  1  0  0  0  0
  7 12  1  0  0  0  0
  8  9  1  0  0  0  0
  8 10  1  0  0  0  0
  9 11  1  0  0  0  0
  3 15  1  0  0  0  0
  3 16  1  0  0  0  0
  4 17  1  0  0  0  0
  4 18  1  0  0  0  0
  5 19  1  0  0  0  0
  5 20  1  0  0  0  0
  6 21  1  0  0  0  0
  6 22  1  0  0  0  0
  7 23  1  0  0  0  0
  8 24  1  0  0  0  0
  9 25  1  0  0  0  0
  9 26  1  0  0  0  0
 10 27  1  0  0  0  0
 12 28  1  0  0  0  0
 12 29  1  0  0  0  0
M  END
> <FRED Chemgauss4 score>
-8.073127

$$$$
C85252515	P133382402
  -OEChem-05122015313D

 27 27  0     1  0  0  0  0  0999 V2000
  118.6339  107.8089  103.6866 C   0  0  0  0  0  0  0  0  0  0  0  0
  117.7626  107.2683  104.6089 C   0  0  0  0  0  0  0  0  0  0  0  0
  120.0997  106.8232  104.9866 C   0  0  0  0  0  0  0  0  0  0  0  0
  123.8660  109.0776  107.7563 C   0  0  0  0  0  0  0  0  0  0  0  0
  121.4100  106.3450  105.5422 C   0  0  0  0  0  0  0  0  0  0  0  0
  123.5463  106.9795  106.4332 C   0  0  0  0  0  0  0  0  0  0  0  0
  125.8946  107.6895  107.2052 C   0  0  0  0  0  0  0  0  0  0  0  0
  124.5091  108.1447  106.7232 C   0  0  2  0  0  0  0  0  0  0  0  0
  119.9745  107.5551  103.9018 N   0  0  0  0  0  0  0  0  0  0  0  0
  122.2992  107.4543  105.8769 N   0  0  0  0  0  0  0  0  0  0  0  0
  126.7468  108.8023  107.4270 O   0  0  0  0  0  0  0  0  0  0  0  0
  124.6814  108.9132  105.5289 O   0  0  0  0  0  0  0  0  0  0  0  0
  118.6465  106.4034  105.7972 S   0  0  0  0  0  0  0  0  0  0  0  0
  118.3406  108.4013  102.8304 H   0  0  0  0  0  0  0  0  0  0  0  0
  116.6844  107.3361  104.6389 H   0  0  0  0  0  0  0  0  0  0  0  0
  124.5282  109.9206  107.9855 H   0  0  0  0  0  0  0  0  0  0  0  0
  122.9068  109.4748  107.4087 H   0  0  0  0  0  0  0  0  0  0  0  0
  123.6990  108.5526  108.7041 H   0  0  0  0  0  0  0  0  0  0  0  0
  121.2514  105.7539  106.4507 H   0  0  0  0  0  0  0  0  0  0  0  0
  121.9308  105.7035  104.8236 H   0  0  0  0  0  0  0  0  0  0  0  0
  123.3342  106.4093  107.3441 H   0  0  0  0  0  0  0  0  0  0  0  0
  123.9959  106.2920  105.7077 H   0  0  0  0  0  0  0  0  0  0  0  0
  126.3676  107.0214  106.4767 H   0  0  0  0  0  0  0  0  0  0  0  0
  125.8072  107.1210  108.1386 H   0  0  0  0  0  0  0  0  0  0  0  0
  122.4824  107.9956  105.0280 H   0  0  0  0  0  0  0  0  0  0  0  0
  127.6003  108.4488  107.7278 H   0  0  0  0  0  0  0  0  0  0  0  0
  123.7965  109.2023  105.2629 H   0  0  0  0  0  0  0  0  0  0  0  0
  1  2  2  0  0  0  0
  1  9  1  0  0  0  0
  2 13  1  0  0  0  0
  3  5  1  0  0  0  0
  3  9  2  0  0  0  0
  3 13  1  0  0  0  0
  4  8  1  0  0  0  0
  5 10  1  0  0  0  0
  6  8  1  0  0  0  0
  6 10  1  0  0  0  0
  7  8  1  0  0  0  0
  7 11  1  0  0  0  0
  8 12  1  0  0  0  0
  1 14  1  0  0  0  0
  2 15  1  0  0  0  0
  4 16  1  0  0  0  0
  4 17  1  0  0  0  0
  4 18  1  0  0  0  0
  5 19  1  0  0  0  0
  5 20  1  0  0  0  0
  6 21  1  0  0  0  0
  6 22  1  0  0  0  0
  7 23  1  0  0  0  0
  7 24  1  0  0  0  0
 10 25  1  0  0  0  0
 11 26  1  0  0  0  0
 12 27  1  0  0  0  0
M  END
> <FRED Chemgauss4 score>
-8.071510

$$$$
C72210807	P112191516
  -OEChem-05122015313D

 17 17  0     0  0  0  0  0  0999 V2000
  124.5380  105.1372  106.9016 C   0  0  0  0  0  0  0  0  0  0  0  0
  125.9488  104.1636  108.5063 C   0  0  0  0  0  0  0  0  0  0  0  0
  126.0570  106.5226  108.1243 C   0  0  0  0  0  0  0  0  0  0  0  0
  125.0612  106.3960  107.1606 C   0  0  0  0  0  0  0  0  0  0  0  0
  126.5088  105.3971  108.8068 C   0  0  0  0  0  0  0  0  0  0  0  0
  124.9912  104.0701  107.5736 N   0  3  0  0  0  0  0  0  0  0  0  0
  126.6068  107.7959  108.4045 N   0  0  0  0  0  0  0  0  0  0  0  0
  125.5693  108.1398  105.3898 O   0  5  0  0  0  0  0  0  0  0  0  0
  123.2671  107.2769  105.5409 O   0  0  0  0  0  0  0  0  0  0  0  0
  124.1328  108.7540  107.3101 O   0  0  0  0  0  0  0  0  0  0  0  0
  124.4494  107.7678  106.2666 S   0  0  0  0  0  0  0  0  0  0  0  0
  127.7374  105.4818  110.0122 Cl  0  0  0  0  0  0  0  0  0  0  0  0
  123.7640  104.9356  106.1734 H   0  0  0  0  0  0  0  0  0  0  0  0
  126.2291  103.2315  108.9786 H   0  0  0  0  0  0  0  0  0  0  0  0
  124.5937  103.1542  107.3667 H   0  0  0  0  0  0  0  0  0  0  0  0
  126.3032  108.5817  107.8700 H   0  0  0  0  0  0  0  0  0  0  0  0
  127.3526  107.8656  109.0636 H   0  0  0  0  0  0  0  0  0  0  0  0
  1  4  1  0  0  0  0
  1  6  2  0  0  0  0
  2  5  2  0  0  0  0
  2  6  1  0  0  0  0
  3  4  2  0  0  0  0
  3  5  1  0  0  0  0
  3  7  1  0  0  0  0
  4 11  1  0  0  0  0
  5 12  1  0  0  0  0
  8 11  1  0  0  0  0
  9 11  2  0  0  0  0
 10 11  2  0  0  0  0
  1 13  1  0  0  0  0
  2 14  1  0  0  0  0
  6 15  1  0  0  0  0
  7 16  1  0  0  0  0
  7 17  1  0  0  0  0
M  CHG  2   6   1   8  -1
M  END
> <FRED Chemgauss4 score>
-8.071417

$$$$
C82995805	P129751681
  -OEChem-05122015313D

 32 32  0     1  0  0  0  0  0999 V2000
  121.9441  105.2472  106.0444 C   0  0  0  0  0  0  0  0  0  0  0  0
  118.2635  103.7468  104.8561 C   0  0  0  0  0  0  0  0  0  0  0  0
  120.4759  104.4151  104.2207 C   0  0  0  0  0  0  0  0  0  0  0  0
  118.7471  103.5815  106.2928 C   0  0  0  0  0  0  0  0  0  0  0  0
  120.9176  104.2308  105.6686 C   0  0  2  0  0  0  0  0  0  0  0  0
  126.0135  107.7931  107.2757 C   0  0  0  0  0  0  0  0  0  0  0  0
  125.1718  105.4599  106.8257 C   0  0  0  0  0  0  0  0  0  0  0  0
  123.8572  105.6712  107.5751 C   0  0  0  0  0  0  0  0  0  0  0  0
  126.3288  106.3058  107.3705 C   0  0  1  0  0  0  0  0  0  0  0  0
  119.3588  103.5178  103.9080 N   0  0  0  0  0  0  0  0  0  0  0  0
  122.7911  104.8430  107.0586 N   0  0  0  0  0  0  0  0  0  0  0  0
  121.9719  106.3231  105.4584 O   0  0  0  0  0  0  0  0  0  0  0  0
  119.8303  104.4751  106.5583 O   0  0  0  0  0  0  0  0  0  0  0  0
  127.5033  106.0360  106.6105 O   0  0  0  0  0  0  0  0  0  0  0  0
  117.4508  103.0428  104.6498 H   0  0  0  0  0  0  0  0  0  0  0  0
  117.8663  104.7577  104.7052 H   0  0  0  0  0  0  0  0  0  0  0  0
  120.1633  105.4504  104.0337 H   0  0  0  0  0  0  0  0  0  0  0  0
  121.3091  104.2108  103.5389 H   0  0  0  0  0  0  0  0  0  0  0  0
  117.9381  103.8227  106.9895 H   0  0  0  0  0  0  0  0  0  0  0  0
  119.0657  102.5520  106.4966 H   0  0  0  0  0  0  0  0  0  0  0  0
  121.3320  103.2325  105.8527 H   0  0  0  0  0  0  0  0  0  0  0  0
  125.8045  108.0847  106.2404 H   0  0  0  0  0  0  0  0  0  0  0  0
  125.1524  108.0577  107.8967 H   0  0  0  0  0  0  0  0  0  0  0  0
  126.8732  108.3885  107.6020 H   0  0  0  0  0  0  0  0  0  0  0  0
  125.4339  104.3976  106.9099 H   0  0  0  0  0  0  0  0  0  0  0  0
  125.0255  105.6799  105.7611 H   0  0  0  0  0  0  0  0  0  0  0  0
  123.9840  105.4060  108.6297 H   0  0  0  0  0  0  0  0  0  0  0  0
  123.5263  106.7129  107.5276 H   0  0  0  0  0  0  0  0  0  0  0  0
  126.5331  106.0437  108.4142 H   0  0  0  0  0  0  0  0  0  0  0  0
  119.6771  102.5527  104.0012 H   0  0  0  0  0  0  0  0  0  0  0  0
  122.6582  103.9198  107.4604 H   0  0  0  0  0  0  0  0  0  0  0  0
  128.2132  106.5705  106.9992 H   0  0  0  0  0  0  0  0  0  0  0  0
  1  5  1  0  0  0  0
  1 11  1  0  0  0  0
  1 12  2  0  0  0  0
  2  4  1  0  0  0  0
  2 10  1  0  0  0  0
  3  5  1  0  0  0  0
  3 10  1  0  0  0  0
  4 13  1  0  0  0  0
  5 13  1  0  0  0  0
  6  9  1  0  0  0  0
  7  8  1  0  0  0  0
  7  9  1  0  0  0  0
  8 11  1  0  0  0  0
  9 14  1  0  0  0  0
  2 15  1  0  0  0  0
  2 16  1  0  0  0  0
  3 17  1  0  0  0  0
  3 18  1  0  0  0  0
  4 19  1  0  0  0  0
  4 20  1  0  0  0  0
  5 21  1  0  0  0  0
  6 22  1  0  0  0  0
  6 23  1  0  0  0  0
  6 24  1  0  0  0  0
  7 25  1  0  0  0  0
  7 26  1  0  0  0  0
  8 27  1  0  0  0  0
  8 28  1  0  0  0  0
  9 29  1  0  0  0  0
 10 30  1  0  0  0  0
 11 31  1  0  0  0  0
 14 32  1  0  0  0  0
M  END
> <FRED Chemgauss4 score>
-8.067434

$$$$
C95636640	P150389147
  -OEChem-05122015313D

 21 22  0     1  0  0  0  0  0999 V2000
  125.7812  104.5368  108.6009 C   0  0  0  0  0  0  0  0  0  0  0  0
  124.7632  104.2763  107.6820 C   0  0  0  0  0  0  0  0  0  0  0  0
  125.5314  106.9351  108.2636 C   0  0  0  0  0  0  0  0  0  0  0  0
  124.5202  106.6647  107.3587 C   0  0  0  0  0  0  0  0  0  0  0  0
  126.1616  105.8576  108.8916 C   0  0  0  0  0  0  0  0  0  0  0  0
  124.1456  105.3571  107.0834 C   0  0  0  0  0  0  0  0  0  0  0  0
  122.6326  106.6189  106.0602 C   0  0  0  0  0  0  0  0  0  0  0  0
  123.7260  107.5927  106.5190 C   0  0  2  0  0  0  0  0  0  0  0  0
  127.1957  106.0970  109.8227 N   0  0  0  0  0  0  0  0  0  0  0  0
  124.4915  108.1079  105.4146 N   0  0  0  0  0  0  0  0  0  0  0  0
  123.1364  105.2627  106.1589 O   0  0  0  0  0  0  0  0  0  0  0  0
  126.2802  103.7034  109.0900 H   0  0  0  0  0  0  0  0  0  0  0  0
  124.4686  103.2582  107.4538 H   0  0  0  0  0  0  0  0  0  0  0  0
  125.8280  107.9583  108.4722 H   0  0  0  0  0  0  0  0  0  0  0  0
  121.7514  106.6893  106.7122 H   0  0  0  0  0  0  0  0  0  0  0  0
  122.2931  106.8013  105.0342 H   0  0  0  0  0  0  0  0  0  0  0  0
  123.2890  108.4134  107.1044 H   0  0  0  0  0  0  0  0  0  0  0  0
  127.6112  105.3224  110.2979 H   0  0  0  0  0  0  0  0  0  0  0  0
  127.4283  107.0396  110.0592 H   0  0  0  0  0  0  0  0  0  0  0  0
  125.4328  108.3930  105.5852 H   0  0  0  0  0  0  0  0  0  0  0  0
  124.0059  108.3524  104.5773 H   0  0  0  0  0  0  0  0  0  0  0  0
  1  2  1  0  0  0  0
  1  5  2  0  0  0  0
  2  6  2  0  0  0  0
  3  4  2  0  0  0  0
  3  5  1  0  0  0  0
  4  6  1  0  0  0  0
  4  8  1  0  0  0  0
  5  9  1  0  0  0  0
  6 11  1  0  0  0  0
  7  8  1  0  0  0  0
  7 11  1  0  0  0  0
  8 10  1  0  0  0  0
  1 12  1  0  0  0  0
  2 13  1  0  0  0  0
  3 14  1  0  0  0  0
  7 15  1  0  0  0  0
  7 16  1  0  0  0  0
  8 17  1  0  0  0  0
  9 18  1  0  0  0  0
  9 19  1  0  0  0  0
 10 20  1  0  0  0  0
 10 21  1  0  0  0  0
M  END
> <FRED Chemgauss4 score>
-8.064993

$$$$
C11991515	P128707706
  -OEChem-05122015313D

 22 22  0     1  0  0  0  0  0999 V2000
  123.7863  108.9058  108.7622 C   0  0  0  0  0  0  0  0  0  0  0  0
  123.8004  107.4934  108.2812 C   0  0  0  0  0  0  0  0  0  0  0  0
  125.8005  107.9731  107.2302 C   0  0  0  0  0  0  0  0  0  0  0  0
  120.4237  105.3658  107.0988 C   0  0  0  0  0  0  0  0  0  0  0  0
  122.6590  105.3432  108.2533 C   0  0  0  0  0  0  0  0  0  0  0  0
  121.9304  105.2430  106.9155 C   0  0  1  0  0  0  0  0  0  0  0  0
  124.7220  109.7412  108.4750 N   0  0  0  0  0  0  0  0  0  0  0  0
  124.7909  107.0947  107.5479 N   0  0  0  0  0  0  0  0  0  0  0  0
  125.7259  109.2694  107.7092 N   0  0  0  0  0  0  0  0  0  0  0  0
  122.7763  106.7294  108.6460 N   0  0  0  0  0  0  0  0  0  0  0  0
  126.7584  107.6303  106.5349 O   0  0  0  0  0  0  0  0  0  0  0  0
  122.2172  103.9722  106.3346 O   0  0  0  0  0  0  0  0  0  0  0  0
  122.9258  109.2020  109.3823 H   0  0  0  0  0  0  0  0  0  0  0  0
  120.0427  104.6027  107.7843 H   0  0  0  0  0  0  0  0  0  0  0  0
  120.1552  106.3544  107.4874 H   0  0  0  0  0  0  0  0  0  0  0  0
  119.9104  105.2561  106.1373 H   0  0  0  0  0  0  0  0  0  0  0  0
  122.1132  104.8039  109.0349 H   0  0  0  0  0  0  0  0  0  0  0  0
  123.6644  104.9158  108.1792 H   0  0  0  0  0  0  0  0  0  0  0  0
  122.2847  106.0176  106.2257 H   0  0  0  0  0  0  0  0  0  0  0  0
  126.4773  109.9073  107.4677 H   0  0  0  0  0  0  0  0  0  0  0  0
  122.0517  107.1501  109.2265 H   0  0  0  0  0  0  0  0  0  0  0  0
  121.7554  103.9488  105.4825 H   0  0  0  0  0  0  0  0  0  0  0  0
  1  2  1  0  0  0  0
  1  7  2  0  0  0  0
  2  8  2  0  0  0  0
  2 10  1  0  0  0  0
  3  8  1  0  0  0  0
  3  9  1  0  0  0  0
  3 11  2  0  0  0  0
  4  6  1  0  0  0  0
  5  6  1  0  0  0  0
  5 10  1  0  0  0  0
  6 12  1  0  0  0  0
  7  9  1  0  0  0  0
  1 13  1  0  0  0  0
  4 14  1  0  0  0  0
  4 15  1  0  0  0  0
  4 16  1  0  0  0  0
  5 17  1  0  0  0  0
  5 18  1  0  0  0  0
  6 19  1  0  0  0  0
  9 20  1  0  0  0  0
 10 21  1  0  0  0  0
 12 22  1  0  0  0  0
M  END
> <FRED Chemgauss4 score>
-8.063845

$$$$
C51074732	P76470640
  -OEChem-05122015313D

 20 20  0     1  0  0  0  0  0999 V2000
  125.9278  103.9301  108.4586 C   0  0  0  0  0  0  0  0  0  0  0  0
  125.3200  104.6159  107.6830 C   0  0  0  0  0  0  0  0  0  0  0  0
  123.8037  109.3364  109.8151 C   0  0  0  0  0  0  0  0  0  0  0  0
  123.3978  108.0233  109.7229 C   0  0  0  0  0  0  0  0  0  0  0  0
  125.0445  109.0867  107.9105 C   0  0  0  0  0  0  0  0  0  0  0  0
  124.6394  107.7734  107.8186 C   0  0  0  0  0  0  0  0  0  0  0  0
  124.5742  105.4548  106.7293 C   0  0  0  0  0  0  0  0  0  0  0  0
  125.1233  106.8951  106.6765 C   0  0  1  0  0  0  0  0  0  0  0  0
  124.6343  109.8918  108.9105 N   0  0  0  0  0  0  0  0  0  0  0  0
  123.8085  107.2182  108.7230 N   0  0  0  0  0  0  0  0  0  0  0  0
  124.7894  107.5008  105.3808 N   0  0  0  0  0  0  0  0  0  0  0  0
  126.4677  103.3222  109.1463 H   0  0  0  0  0  0  0  0  0  0  0  0
  123.4734  109.9827  110.6189 H   0  0  0  0  0  0  0  0  0  0  0  0
  122.7303  107.5778  110.4500 H   0  0  0  0  0  0  0  0  0  0  0  0
  125.7120  109.5400  107.1870 H   0  0  0  0  0  0  0  0  0  0  0  0
  123.5219  105.4763  107.0423 H   0  0  0  0  0  0  0  0  0  0  0  0
  124.5920  104.9855  105.7382 H   0  0  0  0  0  0  0  0  0  0  0  0
  126.2192  106.8414  106.7234 H   0  0  0  0  0  0  0  0  0  0  0  0
  124.7614  106.9046  104.5872 H   0  0  0  0  0  0  0  0  0  0  0  0
  124.8079  108.4917  105.3173 H   0  0  0  0  0  0  0  0  0  0  0  0
  1  2  3  0  0  0  0
  2  7  1  0  0  0  0
  3  4  2  0  0  0  0
  3  9  1  0  0  0  0
  4 10  1  0  0  0  0
  5  6  1  0  0  0  0
  5  9  2  0  0  0  0
  6  8  1  0  0  0  0
  6 10  2  0  0  0  0
  7  8  1  0  0  0  0
  8 11  1  0  0  0  0
  1 12  1  0  0  0  0
  3 13  1  0  0  0  0
  4 14  1  0  0  0  0
  5 15  1  0  0  0  0
  7 16  1  0  0  0  0
  7 17  1  0  0  0  0
  8 18  1  0  0  0  0
 11 19  1  0  0  0  0
 11 20  1  0  0  0  0
M  END
> <FRED Chemgauss4 score>
-8.062315

$$$$
C98178296	P156128865
  -OEChem-05122015313D

 19 19  0     0  0  0  0  0  0999 V2000
  124.9803  106.1143  107.1788 C   0  0  0  0  0  0  0  0  0  0  0  0
  124.8194  107.1707  106.3396 C   0  0  0  0  0  0  0  0  0  0  0  0
  125.8838  106.2617  108.3622 C   0  0  0  0  0  0  0  0  0  0  0  0
  126.2563  108.5232  107.5762 C   0  0  0  0  0  0  0  0  0  0  0  0
  124.3353  104.7599  107.0585 C   0  0  0  0  0  0  0  0  0  0  0  0
  125.4684  108.3787  106.5520 N   0  0  0  0  0  0  0  0  0  0  0  0
  126.4729  107.4987  108.4740 N   0  0  0  0  0  0  0  0  0  0  0  0
  123.9959  107.0724  105.2380 N   0  0  0  0  0  0  0  0  0  0  0  0
  126.9216  109.6924  107.8347 N   0  0  0  0  0  0  0  0  0  0  0  0
  126.0726  105.3446  109.1565 O   0  0  0  0  0  0  0  0  0  0  0  0
  123.2960  104.6452  108.0098 O   0  0  0  0  0  0  0  0  0  0  0  0
  125.0750  103.9825  107.2330 H   0  0  0  0  0  0  0  0  0  0  0  0
  123.9186  104.6503  106.0606 H   0  0  0  0  0  0  0  0  0  0  0  0
  127.0984  107.6666  109.2563 H   0  0  0  0  0  0  0  0  0  0  0  0
  123.5312  106.2122  105.0831 H   0  0  0  0  0  0  0  0  0  0  0  0
  123.9079  107.8664  104.6536 H   0  0  0  0  0  0  0  0  0  0  0  0
  126.7927  110.4560  107.2115 H   0  0  0  0  0  0  0  0  0  0  0  0
  127.5086  109.7340  108.6359 H   0  0  0  0  0  0  0  0  0  0  0  0
  122.6516  105.3489  107.8183 H   0  0  0  0  0  0  0  0  0  0  0  0
  1  2  2  0  0  0  0
  1  3  1  0  0  0  0
  1  5  1  0  0  0  0
  2  6  1  0  0  0  0
  2  8  1  0  0  0  0
  3  7  1  0  0  0  0
  3 10  2  0  0  0  0
  4  6  2  0  0  0  0
  4  7  1  0  0  0  0
  4  9  1  0  0  0  0
  5 11  1  0  0  0  0
  5 12  1  0  0  0  0
  5 13  1  0  0  0  0
  7 14  1  0  0  0  0
  8 15  1  0  0  0  0
  8 16  1  0  0  0  0
  9 17  1  0  0  0  0
  9 18  1  0  0  0  0
 11 19  1  0  0  0  0
M  END
> <FRED Chemgauss4 score>
-8.061110

$$$$
C83272026	P130167815
  -OEChem-05122015313D

 20 20  0     1  0  0  0  0  0999 V2000
  124.2225  107.4324  109.3061 C   0  0  0  0  0  0  0  0  0  0  0  0
  123.7349  108.3472  110.2328 C   0  0  0  0  0  0  0  0  0  0  0  0
  125.0672  109.2536  108.0308 C   0  0  0  0  0  0  0  0  0  0  0  0
  124.9024  107.8862  108.1813 C   0  0  0  0  0  0  0  0  0  0  0  0
  123.9521  109.6940  109.9906 C   0  0  0  0  0  0  0  0  0  0  0  0
  126.4764  105.9503  107.7445 C   0  0  0  0  0  0  0  0  0  0  0  0
  125.4362  106.9330  107.1721 C   0  0  2  0  0  0  0  0  0  0  0  0
  124.6079  110.1725  108.9096 N   0  0  0  0  0  0  0  0  0  0  0  0
  126.0211  107.6192  106.0278 N   0  0  0  0  0  0  0  0  0  0  0  0
  127.7396  106.5948  107.8733 O   0  0  0  0  0  0  0  0  0  0  0  0
  123.3867  110.8933  111.0790 Cl  0  0  0  0  0  0  0  0  0  0  0  0
  124.0679  106.3693  109.4680 H   0  0  0  0  0  0  0  0  0  0  0  0
  123.2028  108.0027  111.1134 H   0  0  0  0  0  0  0  0  0  0  0  0
  125.5900  109.6669  107.1735 H   0  0  0  0  0  0  0  0  0  0  0  0
  126.1729  105.6139  108.7420 H   0  0  0  0  0  0  0  0  0  0  0  0
  126.6022  105.0726  107.1013 H   0  0  0  0  0  0  0  0  0  0  0  0
  124.6192  106.3293  106.7337 H   0  0  0  0  0  0  0  0  0  0  0  0
  125.5889  108.4617  105.7105 H   0  0  0  0  0  0  0  0  0  0  0  0
  126.6969  107.1305  105.4786 H   0  0  0  0  0  0  0  0  0  0  0  0
  128.3519  105.9352  108.2353 H   0  0  0  0  0  0  0  0  0  0  0  0
  1  2  1  0  0  0  0
  1  4  2  0  0  0  0
  2  5  2  0  0  0  0
  3  4  1  0  0  0  0
  3  8  2  0  0  0  0
  4  7  1  0  0  0  0
  5  8  1  0  0  0  0
  5 11  1  0  0  0  0
  6  7  1  0  0  0  0
  6 10  1  0  0  0  0
  7  9  1  0  0  0  0
  1 12  1  0  0  0  0
  2 13  1  0  0  0  0
  3 14  1  0  0  0  0
  6 15  1  0  0  0  0
  6 16  1  0  0  0  0
  7 17  1  0  0  0  0
  9 18  1  0  0  0  0
  9 19  1  0  0  0  0
 10 20  1  0  0  0  0
M  END
> <FRED Chemgauss4 score>
-8.060563

$$$$
C85549993	P133918258
  -OEChem-05122015313D

 30 30  0     1  0  0  0  0  0999 V2000
  124.2359  104.5319  107.3372 C   0  0  0  0  0  0  0  0  0  0  0  0
  123.0027  105.1313  107.1886 C   0  0  0  0  0  0  0  0  0  0  0  0
  123.9772  106.6780  108.4001 C   0  0  0  0  0  0  0  0  0  0  0  0
  117.5351  104.1031  105.3723 C   0  0  0  0  0  0  0  0  0  0  0  0
  124.7424  109.0891  108.3090 C   0  0  0  0  0  0  0  0  0  0  0  0
  121.8367  104.5623  106.4331 C   0  0  0  0  0  0  0  0  0  0  0  0
  118.7451  104.6358  106.1265 C   0  0  0  0  0  0  0  0  0  0  0  0
  119.6775  103.5280  106.6019 C   0  0  0  0  0  0  0  0  0  0  0  0
  124.1965  107.9273  109.1611 C   0  0  1  0  0  0  0  0  0  0  0  0
  122.8524  106.3618  107.7977 N   0  0  0  0  0  0  0  0  0  0  0  0
  122.9959  108.3925  109.8448 N   0  0  0  0  0  0  0  0  0  0  0  0
  120.8060  104.0376  107.3305 N   0  0  0  0  0  0  0  0  0  0  0  0
  125.2572  105.5419  108.2744 S   0  0  0  0  0  0  0  0  0  0  0  0
  124.5782  103.5811  106.9537 H   0  0  0  0  0  0  0  0  0  0  0  0
  117.8428  103.5303  104.4917 H   0  0  0  0  0  0  0  0  0  0  0  0
  116.9499  103.4412  106.0188 H   0  0  0  0  0  0  0  0  0  0  0  0
  116.8801  104.9158  105.0436 H   0  0  0  0  0  0  0  0  0  0  0  0
  124.0640  109.3046  107.4762 H   0  0  0  0  0  0  0  0  0  0  0  0
  124.8567  110.0053  108.8993 H   0  0  0  0  0  0  0  0  0  0  0  0
  125.7267  108.8514  107.8902 H   0  0  0  0  0  0  0  0  0  0  0  0
  121.3751  105.3287  105.8009 H   0  0  0  0  0  0  0  0  0  0  0  0
  122.1548  103.7466  105.7754 H   0  0  0  0  0  0  0  0  0  0  0  0
  118.3939  105.2010  106.9976 H   0  0  0  0  0  0  0  0  0  0  0  0
  119.2905  105.3366  105.4834 H   0  0  0  0  0  0  0  0  0  0  0  0
  119.1418  102.8507  107.2745 H   0  0  0  0  0  0  0  0  0  0  0  0
  120.0589  102.9412  105.7603 H   0  0  0  0  0  0  0  0  0  0  0  0
  124.9295  107.7677  109.9775 H   0  0  0  0  0  0  0  0  0  0  0  0
  122.9288  109.3619  110.0728 H   0  0  0  0  0  0  0  0  0  0  0  0
  122.3837  107.7100  110.2394 H   0  0  0  0  0  0  0  0  0  0  0  0
  121.2246  103.2951  107.9022 H   0  0  0  0  0  0  0  0  0  0  0  0
  1  2  2  0  0  0  0
  1 13  1  0  0  0  0
  2  6  1  0  0  0  0
  2 10  1  0  0  0  0
  3  9  1  0  0  0  0
  3 10  2  0  0  0  0
  3 13  1  0  0  0  0
  4  7  1  0  0  0  0
  5  9  1  0  0  0  0
  6 12  1  0  0  0  0
  7  8  1  0  0  0  0
  8 12  1  0  0  0  0
  9 11  1  0  0  0  0
  1 14  1  0  0  0  0
  4 15  1  0  0  0  0
  4 16  1  0  0  0  0
  4 17  1  0  0  0  0
  5 18  1  0  0  0  0
  5 19  1  0  0  0  0
  5 20  1  0  0  0  0
  6 21  1  0  0  0  0
  6 22  1  0  0  0  0
  7 23  1  0  0  0  0
  7 24  1  0  0  0  0
  8 25  1  0  0  0  0
  8 26  1  0  0  0  0
  9 27  1  0  0  0  0
 11 28  1  0  0  0  0
 11 29  1  0  0  0  0
 12 30  1  0  0  0  0
M  END
> <FRED Chemgauss4 score>
-8.054668

$$$$
C83872281	P131208497
  -OEChem-05122015313D

 26 26  0     1  0  0  0  0  0999 V2000
  118.4553  103.9680  106.3478 C   0  0  0  0  0  0  0  0  0  0  0  0
  123.2726  104.8820  106.6429 C   0  0  0  0  0  0  0  0  0  0  0  0
  124.7616  106.1668  108.9403 C   0  0  0  0  0  0  0  0  0  0  0  0
  126.0690  106.5366  108.2551 C   0  0  0  0  0  0  0  0  0  0  0  0
  125.7712  104.8602  106.6283 C   0  0  0  0  0  0  0  0  0  0  0  0
  124.5047  104.3648  107.3231 C   0  0  1  0  0  0  0  0  0  0  0  0
  119.7754  103.6800  106.9279 C   0  0  0  0  0  0  0  0  0  0  0  0
  120.9019  104.3321  106.1333 C   0  0  0  0  0  0  0  0  0  0  0  0
  117.4126  104.1941  105.8916 N   0  0  0  0  0  0  0  0  0  0  0  0
  124.4580  104.7527  108.7321 N   0  0  0  0  0  0  0  0  0  0  0  0
  122.1880  104.0291  106.7190 N   0  0  0  0  0  0  0  0  0  0  0  0
  123.3014  105.9753  106.0903 O   0  0  0  0  0  0  0  0  0  0  0  0
  125.9855  106.2548  106.8590 O   0  0  0  0  0  0  0  0  0  0  0  0
  124.8287  106.3709  110.0140 H   0  0  0  0  0  0  0  0  0  0  0  0
  123.9422  106.7795  108.5474 H   0  0  0  0  0  0  0  0  0  0  0  0
  126.2574  107.6091  108.3672 H   0  0  0  0  0  0  0  0  0  0  0  0
  126.9232  106.0031  108.6896 H   0  0  0  0  0  0  0  0  0  0  0  0
  126.6515  104.3064  106.9766 H   0  0  0  0  0  0  0  0  0  0  0  0
  125.6982  104.7178  105.5447 H   0  0  0  0  0  0  0  0  0  0  0  0
  124.4559  103.2714  107.2505 H   0  0  0  0  0  0  0  0  0  0  0  0
  119.9295  102.5946  106.9369 H   0  0  0  0  0  0  0  0  0  0  0  0
  119.8011  104.0165  107.9710 H   0  0  0  0  0  0  0  0  0  0  0  0
  120.8910  103.9553  105.1053 H   0  0  0  0  0  0  0  0  0  0  0  0
  120.7703  105.4190  106.0895 H   0  0  0  0  0  0  0  0  0  0  0  0
  125.1529  104.2014  109.2375 H   0  0  0  0  0  0  0  0  0  0  0  0
  122.3000  103.1472  107.2100 H   0  0  0  0  0  0  0  0  0  0  0  0
  1  7  1  0  0  0  0
  1  9  3  0  0  0  0
  2  6  1  0  0  0  0
  2 11  1  0  0  0  0
  2 12  2  0  0  0  0
  3  4  1  0  0  0  0
  3 10  1  0  0  0  0
  4 13  1  0  0  0  0
  5  6  1  0  0  0  0
  5 13  1  0  0  0  0
  6 10  1  0  0  0  0
  7  8  1  0  0  0  0
  8 11  1  0  0  0  0
  3 14  1  0  0  0  0
  3 15  1  0  0  0  0
  4 16  1  0  0  0  0
  4 17  1  0  0  0  0
  5 18  1  0  0  0  0
  5 19  1  0  0  0  0
  6 20  1  0  0  0  0
  7 21  1  0  0  0  0
  7 22  1  0  0  0  0
  8 23  1  0  0  0  0
  8 24  1  0  0  0  0
 10 25  1  0  0  0  0
 11 26  1  0  0  0  0
M  END
> <FRED Chemgauss4 score>
-8.051389

$$$$
C82841439	P129491441
  -OEChem-05122015313D

 23 23  0     1  0  0  0  0  0999 V2000
  125.2157  107.0596  108.6574 C   0  0  0  0  0  0  0  0  0  0  0  0
  124.6973  106.6052  106.3811 C   0  0  0  0  0  0  0  0  0  0  0  0
  123.9398  108.5589  107.3232 C   0  0  0  0  0  0  0  0  0  0  0  0
  125.3116  106.2121  107.5592 C   0  0  0  0  0  0  0  0  0  0  0  0
  124.5184  108.2573  108.5455 C   0  0  0  0  0  0  0  0  0  0  0  0
  126.0514  104.9246  107.6463 C   0  0  0  0  0  0  0  0  0  0  0  0
  123.6435  108.5608  110.8879 C   0  0  0  0  0  0  0  0  0  0  0  0
  124.3996  109.1862  109.7011 C   0  0  2  0  0  0  0  0  0  0  0  0
  124.0114  107.7609  106.2343 N   0  0  0  0  0  0  0  0  0  0  0  0
  122.3031  108.1868  110.4962 N   0  0  0  0  0  0  0  0  0  0  0  0
  123.7106  110.3753  109.2858 O   0  0  0  0  0  0  0  0  0  0  0  0
  125.6836  106.7867  109.6002 H   0  0  0  0  0  0  0  0  0  0  0  0
  124.7386  105.9847  105.4910 H   0  0  0  0  0  0  0  0  0  0  0  0
  123.3835  109.4797  107.1759 H   0  0  0  0  0  0  0  0  0  0  0  0
  125.3801  104.1144  107.9611 H   0  0  0  0  0  0  0  0  0  0  0  0
  126.4945  104.6489  106.6790 H   0  0  0  0  0  0  0  0  0  0  0  0
  126.8802  104.9848  108.3659 H   0  0  0  0  0  0  0  0  0  0  0  0
  123.5778  109.2749  111.7160 H   0  0  0  0  0  0  0  0  0  0  0  0
  124.1601  107.6660  111.2521 H   0  0  0  0  0  0  0  0  0  0  0  0
  125.3967  109.5204  110.0418 H   0  0  0  0  0  0  0  0  0  0  0  0
  121.7987  108.7842  109.8665 H   0  0  0  0  0  0  0  0  0  0  0  0
  121.8337  107.4625  111.0091 H   0  0  0  0  0  0  0  0  0  0  0  0
  122.8411  110.0849  108.9784 H   0  0  0  0  0  0  0  0  0  0  0  0
  1  4  1  0  0  0  0
  1  5  2  0  0  0  0
  2  4  2  0  0  0  0
  2  9  1  0  0  0  0
  3  5  1  0  0  0  0
  3  9  2  0  0  0  0
  4  6  1  0  0  0  0
  5  8  1  0  0  0  0
  7  8  1  0  0  0  0
  7 10  1  0  0  0  0
  8 11  1  0  0  0  0
  1 12  1  0  0  0  0
  2 13  1  0  0  0  0
  3 14  1  0  0  0  0
  6 15  1  0  0  0  0
  6 16  1  0  0  0  0
  6 17  1  0  0  0  0
  7 18  1  0  0  0  0
  7 19  1  0  0  0  0
  8 20  1  0  0  0  0
 10 21  1  0  0  0  0
 10 22  1  0  0  0  0
 11 23  1  0  0  0  0
M  END
> <FRED Chemgauss4 score>
-8.049294

$$$$
C85170204	P133262360
  -OEChem-05122015313D

 32 33  0     1  0  0  0  0  0999 V2000
  124.9510  107.1223  106.1892 C   0  0  0  0  0  0  0  0  0  0  0  0
  123.7620  108.3435  107.4641 C   0  0  0  0  0  0  0  0  0  0  0  0
  124.1495  106.2516  106.8892 C   0  0  0  0  0  0  0  0  0  0  0  0
  119.3398  104.4743  105.2436 C   0  0  0  0  0  0  0  0  0  0  0  0
  119.4208  105.0001  106.6495 C   0  0  0  0  0  0  0  0  0  0  0  0
  120.4428  104.0137  106.1558 C   0  0  0  0  0  0  0  0  0  0  0  0
  122.3872  106.6194  108.6440 C   0  0  0  0  0  0  0  0  0  0  0  0
  121.8483  104.4472  105.9123 C   0  0  0  0  0  0  0  0  0  0  0  0
  124.9813  104.0352  107.8445 C   0  0  0  0  0  0  0  0  0  0  0  0
  124.0355  104.7374  106.8577 C   0  0  1  0  0  0  0  0  0  0  0  0
  124.7051  108.4230  106.5519 N   0  0  0  0  0  0  0  0  0  0  0  0
  123.3937  107.0485  107.7022 N   0  0  0  0  0  0  0  0  0  0  0  0
  126.3614  104.3631  107.5982 N   0  0  0  0  0  0  0  0  0  0  0  0
  122.6540  104.3122  107.1135 N   0  0  0  0  0  0  0  0  0  0  0  0
  125.6934  106.8812  105.4420 H   0  0  0  0  0  0  0  0  0  0  0  0
  123.3120  109.1799  107.9814 H   0  0  0  0  0  0  0  0  0  0  0  0
  118.5379  103.7850  105.0096 H   0  0  0  0  0  0  0  0  0  0  0  0
  119.6013  105.1487  104.4374 H   0  0  0  0  0  0  0  0  0  0  0  0
  119.7364  106.0272  106.7858 H   0  0  0  0  0  0  0  0  0  0  0  0
  118.6734  104.6626  107.3568 H   0  0  0  0  0  0  0  0  0  0  0  0
  120.3897  103.0013  106.5377 H   0  0  0  0  0  0  0  0  0  0  0  0
  121.4275  106.5886  108.1214 H   0  0  0  0  0  0  0  0  0  0  0  0
  122.6458  105.6283  109.0270 H   0  0  0  0  0  0  0  0  0  0  0  0
  122.3473  107.3262  109.4775 H   0  0  0  0  0  0  0  0  0  0  0  0
  121.8782  105.4973  105.6065 H   0  0  0  0  0  0  0  0  0  0  0  0
  122.3119  103.8390  105.1300 H   0  0  0  0  0  0  0  0  0  0  0  0
  124.7677  104.3495  108.8725 H   0  0  0  0  0  0  0  0  0  0  0  0
  124.8925  102.9443  107.8063 H   0  0  0  0  0  0  0  0  0  0  0  0
  124.2903  104.3939  105.8465 H   0  0  0  0  0  0  0  0  0  0  0  0
  127.0780  103.7237  107.9004 H   0  0  0  0  0  0  0  0  0  0  0  0
  126.5996  105.3007  107.3189 H   0  0  0  0  0  0  0  0  0  0  0  0
  122.6635  103.3414  107.4128 H   0  0  0  0  0  0  0  0  0  0  0  0
  1  3  2  0  0  0  0
  1 11  1  0  0  0  0
  2 11  2  0  0  0  0
  2 12  1  0  0  0  0
  3 10  1  0  0  0  0
  3 12  1  0  0  0  0
  4  5  1  0  0  0  0
  4  6  1  0  0  0  0
  5  6  1  0  0  0  0
  6  8  1  0  0  0  0
  7 12  1  0  0  0  0
  8 14  1  0  0  0  0
  9 10  1  0  0  0  0
  9 13  1  0  0  0  0
 10 14  1  0  0  0  0
  1 15  1  0  0  0  0
  2 16  1  0  0  0  0
  4 17  1  0  0  0  0
  4 18  1  0  0  0  0
  5 19  1  0  0  0  0
  5 20  1  0  0  0  0
  6 21  1  0  0  0  0
  7 22  1  0  0  0  0
  7 23  1  0  0  0  0
  7 24  1  0  0  0  0
  8 25  1  0  0  0  0
  8 26  1  0  0  0  0
  9 27  1  0  0  0  0
  9 28  1  0  0  0  0
 10 29  1  0  0  0  0
 13 30  1  0  0  0  0
 13 31  1  0  0  0  0
 14 32  1  0  0  0  0
M  END
> <FRED Chemgauss4 score>
-8.049221

$$$$
C56659230	P85110673
  -OEChem-05122015313D

 18 18  0     1  0  0  0  0  0999 V2000
  125.0676  104.4827  107.8429 C   0  0  0  0  0  0  0  0  0  0  0  0
  126.3362  105.6417  109.0703 C   0  0  0  0  0  0  0  0  0  0  0  0
  125.3983  107.6938  107.9410 C   0  0  0  0  0  0  0  0  0  0  0  0
  125.1289  106.4751  108.7507 C   0  0  1  0  0  0  0  0  0  0  0  0
  124.2211  109.0953  109.6585 C   0  0  0  0  0  0  0  0  0  0  0  0
  124.3466  105.5587  107.9010 N   0  0  0  0  0  0  0  0  0  0  0  0
  126.2599  104.4756  108.5163 N   0  0  0  0  0  0  0  0  0  0  0  0
  127.3302  106.1386  109.8614 N   0  0  0  0  0  0  0  0  0  0  0  0
  124.9457  108.8967  108.4209 N   0  0  0  0  0  0  0  0  0  0  0  0
  126.2254  107.6030  106.4865 S   0  0  0  0  0  0  0  0  0  0  0  0
  124.7502  103.5955  107.2750 H   0  0  0  0  0  0  0  0  0  0  0  0
  124.5789  106.7324  109.6601 H   0  0  0  0  0  0  0  0  0  0  0  0
  123.1456  109.0121  109.4817 H   0  0  0  0  0  0  0  0  0  0  0  0
  124.4350  110.0868  110.0668 H   0  0  0  0  0  0  0  0  0  0  0  0
  124.5161  108.3422  110.3942 H   0  0  0  0  0  0  0  0  0  0  0  0
  127.2368  107.0637  110.2207 H   0  0  0  0  0  0  0  0  0  0  0  0
  128.1194  105.5615  110.0558 H   0  0  0  0  0  0  0  0  0  0  0  0
  125.1361  109.7206  107.8586 H   0  0  0  0  0  0  0  0  0  0  0  0
  1  6  2  0  0  0  0
  1  7  1  0  0  0  0
  2  4  1  0  0  0  0
  2  7  2  0  0  0  0
  2  8  1  0  0  0  0
  3  4  1  0  0  0  0
  3  9  1  0  0  0  0
  3 10  2  0  0  0  0
  4  6  1  0  0  0  0
  5  9  1  0  0  0  0
  1 11  1  0  0  0  0
  4 12  1  0  0  0  0
  5 13  1  0  0  0  0
  5 14  1  0  0  0  0
  5 15  1  0  0  0  0
  8 16  1  0  0  0  0
  8 17  1  0  0  0  0
  9 18  1  0  0  0  0
M  END
> <FRED Chemgauss4 score>
-8.047213

$$$$
C62086107	P95267279
  -OEChem-05122015313D

 37 37  0     1  0  0  0  0  0999 V2000
  120.1710  105.3462  104.0596 C   0  0  0  0  0  0  0  0  0  0  0  0
  123.0205  104.5477  107.5802 C   0  0  0  0  0  0  0  0  0  0  0  0
  122.7843  105.8695  105.5725 C   0  0  0  0  0  0  0  0  0  0  0  0
  123.9519  105.5949  108.1888 C   0  0  0  0  0  0  0  0  0  0  0  0
  123.7111  106.9429  106.1416 C   0  0  0  0  0  0  0  0  0  0  0  0
  119.2505  105.8290  106.3878 C   0  0  0  0  0  0  0  0  0  0  0  0
  125.0700  108.4229  108.6670 C   0  0  0  0  0  0  0  0  0  0  0  0
  121.1586  104.1690  106.0970 C   0  0  0  0  0  0  0  0  0  0  0  0
  119.8843  104.7788  105.4637 C   0  0  2  0  0  0  0  0  0  0  0  0
  122.0690  105.1712  106.6497 N   0  0  0  0  0  0  0  0  0  0  0  0
  124.6672  106.3179  107.0992 N   0  0  0  0  0  0  0  0  0  0  0  0
  120.7417  104.4532  103.1778 N   0  0  0  0  0  0  0  0  0  0  0  0
  118.9277  103.6771  105.2778 N   0  0  0  0  0  0  0  0  0  0  0  0
  119.9316  106.5120  103.7456 O   0  0  0  0  0  0  0  0  0  0  0  0
  126.4369  108.0747  106.4675 O   0  0  0  0  0  0  0  0  0  0  0  0
  126.8603  106.5350  108.4259 O   0  0  0  0  0  0  0  0  0  0  0  0
  125.9628  107.3173  107.6048 S   0  0  0  0  0  0  0  0  0  0  0  0
  123.6139  103.7782  107.0684 H   0  0  0  0  0  0  0  0  0  0  0  0
  122.4768  104.0556  108.3956 H   0  0  0  0  0  0  0  0  0  0  0  0
  122.0656  106.3554  104.9019 H   0  0  0  0  0  0  0  0  0  0  0  0
  123.3682  105.1596  104.9712 H   0  0  0  0  0  0  0  0  0  0  0  0
  123.3879  106.3102  108.7992 H   0  0  0  0  0  0  0  0  0  0  0  0
  124.6831  105.0921  108.8313 H   0  0  0  0  0  0  0  0  0  0  0  0
  124.2700  107.4041  105.3201 H   0  0  0  0  0  0  0  0  0  0  0  0
  123.1349  107.7245  106.6510 H   0  0  0  0  0  0  0  0  0  0  0  0
  119.0513  105.4145  107.3825 H   0  0  0  0  0  0  0  0  0  0  0  0
  119.9006  106.6989  106.5368 H   0  0  0  0  0  0  0  0  0  0  0  0
  118.3051  106.2021  105.9771 H   0  0  0  0  0  0  0  0  0  0  0  0
  125.7745  109.1452  109.0825 H   0  0  0  0  0  0  0  0  0  0  0  0
  124.3078  108.9301  108.0735 H   0  0  0  0  0  0  0  0  0  0  0  0
  124.6082  107.8374  109.4633 H   0  0  0  0  0  0  0  0  0  0  0  0
  120.8859  103.4740  106.9014 H   0  0  0  0  0  0  0  0  0  0  0  0
  121.7127  103.5864  105.3501 H   0  0  0  0  0  0  0  0  0  0  0  0
  120.9381  103.5053  103.4801 H   0  0  0  0  0  0  0  0  0  0  0  0
  120.9671  104.7349  102.2295 H   0  0  0  0  0  0  0  0  0  0  0  0
  119.2934  102.7896  105.0274 H   0  0  0  0  0  0  0  0  0  0  0  0
  117.9661  103.9115  105.2097 H   0  0  0  0  0  0  0  0  0  0  0  0
  1  9  1  0  0  0  0
  1 12  1  0  0  0  0
  1 14  2  0  0  0  0
  2  4  1  0  0  0  0
  2 10  1  0  0  0  0
  3  5  1  0  0  0  0
  3 10  1  0  0  0  0
  4 11  1  0  0  0  0
  5 11  1  0  0  0  0
  6  9  1  0  0  0  0
  7 17  1  0  0  0  0
  8  9  1  0  0  0  0
  8 10  1  0  0  0  0
  9 13  1  0  0  0  0
 11 17  1  0  0  0  0
 15 17  2  0  0  0  0
 16 17  2  0  0  0  0
  2 18  1  0  0  0  0
  2 19  1  0  0  0  0
  3 20  1  0  0  0  0
  3 21  1  0  0  0  0
  4 22  1  0  0  0  0
  4 23  1  0  0  0  0
  5 24  1  0  0  0  0
  5 25  1  0  0  0  0
  6 26  1  0  0  0  0
  6 27  1  0  0  0  0
  6 28  1  0  0  0  0
  7 29  1  0  0  0  0
  7 30  1  0  0  0  0
  7 31  1  0  0  0  0
  8 32  1  0  0  0  0
  8 33  1  0  0  0  0
 12 34  1  0  0  0  0
 12 35  1  0  0  0  0
 13 36  1  0  0  0  0
 13 37  1  0  0  0  0
M  END
> <FRED Chemgauss4 score>
-8.046914

$$$$
C97587580	P154676895
  -OEChem-05122015313D

 46 47  0     1  0  0  0  0  0999 V2000
  120.3878  103.8036  105.8466 C   0  0  0  0  0  0  0  0  0  0  0  0
  120.4339  104.7067  106.8824 C   0  0  0  0  0  0  0  0  0  0  0  0
  118.4580  104.6996  105.9065 C   0  0  0  0  0  0  0  0  0  0  0  0
  116.4710  105.0873  102.5499 C   0  0  0  0  0  0  0  0  0  0  0  0
  115.1277  105.4750  103.1669 C   0  0  0  0  0  0  0  0  0  0  0  0
  117.5289  105.9031  103.2879 C   0  0  0  0  0  0  0  0  0  0  0  0
  115.4386  106.5063  104.2483 C   0  0  0  0  0  0  0  0  0  0  0  0
  116.8973  106.2465  104.6419 C   0  0  0  0  0  0  0  0  0  0  0  0
  119.1534  108.5932  108.7633 C   0  0  0  0  0  0  0  0  0  0  0  0
  116.6171  108.0126  106.2186 C   0  0  0  0  0  0  0  0  0  0  0  0
  117.7998  108.4006  104.1635 C   0  0  0  0  0  0  0  0  0  0  0  0
  119.6260  107.5389  107.7758 C   0  0  0  0  0  0  0  0  0  0  0  0
  118.7489  106.2902  107.8331 C   0  0  0  0  0  0  0  0  0  0  0  0
  117.0194  105.0865  105.6363 C   0  0  1  0  0  0  0  0  0  0  0  0
  119.1552  103.8042  105.2430 N   0  0  0  0  0  0  0  0  0  0  0  0
  119.1907  105.2732  106.9083 N   0  0  0  0  0  0  0  0  0  0  0  0
  115.8953  103.1500  106.3088 N   0  0  0  0  0  0  0  0  0  0  0  0
  116.2461  103.9544  105.1782 N   0  0  0  0  0  0  0  0  0  0  0  0
  117.5006  107.4292  105.2125 N   0  0  0  0  0  0  0  0  0  0  0  0
  121.1795  103.1530  105.5048 H   0  0  0  0  0  0  0  0  0  0  0  0
  121.2150  104.9841  107.5764 H   0  0  0  0  0  0  0  0  0  0  0  0
  116.6642  104.0131  102.6412 H   0  0  0  0  0  0  0  0  0  0  0  0
  116.4748  105.3293  101.4803 H   0  0  0  0  0  0  0  0  0  0  0  0
  114.4745  105.9069  102.3994 H   0  0  0  0  0  0  0  0  0  0  0  0
  114.6076  104.6066  103.5853 H   0  0  0  0  0  0  0  0  0  0  0  0
  118.4271  105.2850  103.4308 H   0  0  0  0  0  0  0  0  0  0  0  0
  117.8367  106.7874  102.7151 H   0  0  0  0  0  0  0  0  0  0  0  0
  115.2581  107.5315  103.8998 H   0  0  0  0  0  0  0  0  0  0  0  0
  114.7741  106.3390  105.1084 H   0  0  0  0  0  0  0  0  0  0  0  0
  119.1535  108.2011  109.7853 H   0  0  0  0  0  0  0  0  0  0  0  0
  118.1342  108.9100  108.5209 H   0  0  0  0  0  0  0  0  0  0  0  0
  119.7999  109.4762  108.7335 H   0  0  0  0  0  0  0  0  0  0  0  0
  117.0759  108.9069  106.6484 H   0  0  0  0  0  0  0  0  0  0  0  0
  116.4301  107.2931  107.0203 H   0  0  0  0  0  0  0  0  0  0  0  0
  115.6610  108.2902  105.7667 H   0  0  0  0  0  0  0  0  0  0  0  0
  118.2560  109.2940  104.5978 H   0  0  0  0  0  0  0  0  0  0  0  0
  116.8824  108.6908  103.6443 H   0  0  0  0  0  0  0  0  0  0  0  0
  118.4929  107.9698  103.4359 H   0  0  0  0  0  0  0  0  0  0  0  0
  119.6147  107.9611  106.7638 H   0  0  0  0  0  0  0  0  0  0  0  0
  120.6680  107.2779  107.9969 H   0  0  0  0  0  0  0  0  0  0  0  0
  117.7066  106.5303  107.5912 H   0  0  0  0  0  0  0  0  0  0  0  0
  118.7541  105.8514  108.8380 H   0  0  0  0  0  0  0  0  0  0  0  0
  116.5495  105.3995  106.5773 H   0  0  0  0  0  0  0  0  0  0  0  0
  116.2390  103.5952  107.1593 H   0  0  0  0  0  0  0  0  0  0  0  0
  114.8804  103.1234  106.3991 H   0  0  0  0  0  0  0  0  0  0  0  0
  116.8013  103.3876  104.5323 H   0  0  0  0  0  0  0  0  0  0  0  0
  1  2  2  0  0  0  0
  1 15  1  0  0  0  0
  2 16  1  0  0  0  0
  3 14  1  0  0  0  0
  3 15  2  0  0  0  0
  3 16  1  0  0  0  0
  4  5  1  0  0  0  0
  4  6  1  0  0  0  0
  5  7  1  0  0  0  0
  6  8  1  0  0  0  0
  7  8  1  0  0  0  0
  8 14  1  0  0  0  0
  8 19  1  0  0  0  0
  9 12  1  0  0  0  0
 10 19  1  0  0  0  0
 11 19  1  0  0  0  0
 12 13  1  0  0  0  0
 13 16  1  0  0  0  0
 14 18  1  0  0  0  0
 17 18  1  0  0  0  0
  1 20  1  0  0  0  0
  2 21  1  0  0  0  0
  4 22  1  0  0  0  0
  4 23  1  0  0  0  0
  5 24  1  0  0  0  0
  5 25  1  0  0  0  0
  6 26  1  0  0  0  0
  6 27  1  0  0  0  0
  7 28  1  0  0  0  0
  7 29  1  0  0  0  0
  9 30  1  0  0  0  0
  9 31  1  0  0  0  0
  9 32  1  0  0  0  0
 10 33  1  0  0  0  0
 10 34  1  0  0  0  0
 10 35  1  0  0  0  0
 11 36  1  0  0  0  0
 11 37  1  0  0  0  0
 11 38  1  0  0  0  0
 12 39  1  0  0  0  0
 12 40  1  0  0  0  0
 13 41  1  0  0  0  0
 13 42  1  0  0  0  0
 14 43  1  0  0  0  0
 17 44  1  0  0  0  0
 17 45  1  0  0  0  0
 18 46  1  0  0  0  0
M  END
> <FRED Chemgauss4 score>
-8.046733

$$$$
C42450415	P64209324
  -OEChem-05122015313D

 29 28  0     1  0  0  0  0  0999 V2000
  121.8214  105.8398  104.8492 C   0  0  0  0  0  0  0  0  0  0  0  0
  125.0885  103.6428  107.0368 C   0  0  0  0  0  0  0  0  0  0  0  0
  122.5190  105.8077  106.1432 C   0  0  0  0  0  0  0  0  0  0  0  0
  124.5112  104.7104  107.9026 C   0  0  0  0  0  0  0  0  0  0  0  0
  124.0119  106.0803  105.9930 C   0  0  0  0  0  0  0  0  0  0  0  0
  125.2996  108.6921  107.8521 C   0  0  0  0  0  0  0  0  0  0  0  0
  126.0879  106.3676  107.1678 C   0  0  0  0  0  0  0  0  0  0  0  0
  126.2532  107.8758  106.9785 C   0  0  1  0  0  0  0  0  0  0  0  0
  121.2690  105.8647  103.8291 N   0  0  0  0  0  0  0  0  0  0  0  0
  125.4632  110.1115  107.6845 N   0  0  0  0  0  0  0  0  0  0  0  0
  124.6859  106.0361  107.2965 N   0  0  2  0  0  0  0  0  0  0  0  0
  126.0269  108.1948  105.6055 O   0  0  0  0  0  0  0  0  0  0  0  0
  124.5977  103.6258  106.0576 H   0  0  0  0  0  0  0  0  0  0  0  0
  126.1649  103.7919  106.8986 H   0  0  0  0  0  0  0  0  0  0  0  0
  124.9397  102.6631  107.5063 H   0  0  0  0  0  0  0  0  0  0  0  0
  122.3825  104.8183  106.5951 H   0  0  0  0  0  0  0  0  0  0  0  0
  122.0657  106.5372  106.8247 H   0  0  0  0  0  0  0  0  0  0  0  0
  125.0057  104.7218  108.8785 H   0  0  0  0  0  0  0  0  0  0  0  0
  123.4393  104.5512  108.0525 H   0  0  0  0  0  0  0  0  0  0  0  0
  124.4598  105.3201  105.3446 H   0  0  0  0  0  0  0  0  0  0  0  0
  124.1857  107.0570  105.5278 H   0  0  0  0  0  0  0  0  0  0  0  0
  124.2571  108.4528  107.6198 H   0  0  0  0  0  0  0  0  0  0  0  0
  125.4763  108.4826  108.9120 H   0  0  0  0  0  0  0  0  0  0  0  0
  126.6044  106.0244  108.0702 H   0  0  0  0  0  0  0  0  0  0  0  0
  126.4953  105.8267  106.3075 H   0  0  0  0  0  0  0  0  0  0  0  0
  127.2837  108.1689  107.2137 H   0  0  0  0  0  0  0  0  0  0  0  0
  125.2050  110.7278  108.4384 H   0  0  0  0  0  0  0  0  0  0  0  0
  125.6352  110.4802  106.7629 H   0  0  0  0  0  0  0  0  0  0  0  0
  126.1974  109.1443  105.5134 H   0  0  0  0  0  0  0  0  0  0  0  0
  1  3  1  0  0  0  0
  1  9  3  0  0  0  0
  2  4  1  0  0  0  0
  3  5  1  0  0  0  0
  4 11  1  0  0  0  0
  5 11  1  0  0  0  0
  6  8  1  0  0  0  0
  6 10  1  0  0  0  0
  7  8  1  0  0  0  0
  7 11  1  0  0  0  0
  8 12  1  0  0  0  0
  2 13  1  0  0  0  0
  2 14  1  0  0  0  0
  2 15  1  0  0  0  0
  3 16  1  0  0  0  0
  3 17  1  0  0  0  0
  4 18  1  0  0  0  0
  4 19  1  0  0  0  0
  5 20  1  0  0  0  0
  5 21  1  0  0  0  0
  6 22  1  0  0  0  0
  6 23  1  0  0  0  0
  7 24  1  0  0  0  0
  7 25  1  0  0  0  0
  8 26  1  0  0  0  0
 10 27  1  0  0  0  0
 10 28  1  0  0  0  0
 12 29  1  0  0  0  0
M  END
> <FRED Chemgauss4 score>
-8.046258

$$$$
C96331765	P151982429
  -OEChem-05122015313D

 28 29  0     1  0  0  0  0  0999 V2000
  124.6639  107.2822  106.4237 C   0  0  0  0  0  0  0  0  0  0  0  0
  124.9062  106.3453  107.3967 C   0  0  0  0  0  0  0  0  0  0  0  0
  126.3424  108.0068  107.4959 C   0  0  0  0  0  0  0  0  0  0  0  0
  123.0784  105.0261  106.8376 C   0  0  0  0  0  0  0  0  0  0  0  0
  123.6033  107.1301  105.4151 C   0  0  0  0  0  0  0  0  0  0  0  0
  122.5424  106.1437  105.9411 C   0  0  1  0  0  0  0  0  0  0  0  0
  121.7626  105.5282  104.7814 C   0  0  0  0  0  0  0  0  0  0  0  0
  126.7024  106.1858  109.1712 C   0  0  0  0  0  0  0  0  0  0  0  0
  124.6296  104.1810  108.5369 C   0  0  0  0  0  0  0  0  0  0  0  0
  125.5551  108.3175  106.4863 N   0  0  0  0  0  0  0  0  0  0  0  0
  125.9961  106.8116  108.0742 N   0  0  0  0  0  0  0  0  0  0  0  0
  124.1451  105.1708  107.5554 N   0  3  0  0  0  0  0  0  0  0  0  0
  127.3907  108.7087  107.9893 N   0  0  0  0  0  0  0  0  0  0  0  0
  122.5823  104.0451  106.8059 H   0  0  0  0  0  0  0  0  0  0  0  0
  123.1359  108.1095  105.2581 H   0  0  0  0  0  0  0  0  0  0  0  0
  124.0122  106.8058  104.4530 H   0  0  0  0  0  0  0  0  0  0  0  0
  121.8234  106.7187  106.5459 H   0  0  0  0  0  0  0  0  0  0  0  0
  122.4367  104.9487  104.1552 H   0  0  0  0  0  0  0  0  0  0  0  0
  121.3087  106.3175  104.1872 H   0  0  0  0  0  0  0  0  0  0  0  0
  120.9835  104.8769  105.1704 H   0  0  0  0  0  0  0  0  0  0  0  0
  127.4933  105.5598  108.7498 H   0  0  0  0  0  0  0  0  0  0  0  0
  127.1293  106.9580  109.8172 H   0  0  0  0  0  0  0  0  0  0  0  0
  126.0022  105.5794  109.7526 H   0  0  0  0  0  0  0  0  0  0  0  0
  124.1827  104.4153  109.5046 H   0  0  0  0  0  0  0  0  0  0  0  0
  125.7176  104.2534  108.5858 H   0  0  0  0  0  0  0  0  0  0  0  0
  124.3241  103.1888  108.2001 H   0  0  0  0  0  0  0  0  0  0  0  0
  127.7094  109.5857  107.5572 H   0  0  0  0  0  0  0  0  0  0  0  0
  127.9718  108.3492  108.7578 H   0  0  0  0  0  0  0  0  0  0  0  0
  1  2  2  0  0  0  0
  1  5  1  0  0  0  0
  1 10  1  0  0  0  0
  2 11  1  0  0  0  0
  2 12  1  0  0  0  0
  3 10  2  0  0  0  0
  3 11  1  0  0  0  0
  3 13  1  0  0  0  0
  4  6  1  0  0  0  0
  4 12  2  0  0  0  0
  5  6  1  0  0  0  0
  6  7  1  0  0  0  0
  8 11  1  0  0  0  0
  9 12  1  0  0  0  0
  4 14  1  0  0  0  0
  5 15  1  0  0  0  0
  5 16  1  0  0  0  0
  6 17  1  0  0  0  0
  7 18  1  0  0  0  0
  7 19  1  0  0  0  0
  7 20  1  0  0  0  0
  8 21  1  0  0  0  0
  8 22  1  0  0  0  0
  8 23  1  0  0  0  0
  9 24  1  0  0  0  0
  9 25  1  0  0  0  0
  9 26  1  0  0  0  0
 13 27  1  0  0  0  0
 13 28  1  0  0  0  0
M  CHG  1  12   1
M  END
> <FRED Chemgauss4 score>
-8.045850

$$$$
C85275828	P133443055
  -OEChem-05122015313D

 23 23  0     1  0  0  0  0  0999 V2000
  123.9398  105.9304  107.3106 C   0  0  0  0  0  0  0  0  0  0  0  0
  122.9064  105.0278  107.1620 C   0  0  0  0  0  0  0  0  0  0  0  0
  122.2800  105.9914  105.2008 C   0  0  0  0  0  0  0  0  0  0  0  0
  124.0645  106.8662  106.3041 C   0  0  0  0  0  0  0  0  0  0  0  0
  127.1075  106.7713  107.6601 C   0  0  0  0  0  0  0  0  0  0  0  0
  125.1676  107.8974  106.3789 C   0  0  2  0  0  0  0  0  0  0  0  0
  125.9995  107.8312  107.6777 C   0  0  2  0  0  0  0  0  0  0  0  0
  122.0544  105.0295  106.1158 N   0  0  0  0  0  0  0  0  0  0  0  0
  123.2492  106.9258  105.2308 N   0  0  0  0  0  0  0  0  0  0  0  0
  126.5821  109.1317  107.9493 N   0  0  0  0  0  0  0  0  0  0  0  0
  127.5332  106.4369  108.9748 O   0  0  0  0  0  0  0  0  0  0  0  0
  124.5469  109.1833  106.2770 O   0  0  0  0  0  0  0  0  0  0  0  0
  124.6041  105.8979  108.1646 H   0  0  0  0  0  0  0  0  0  0  0  0
  122.7292  104.2550  107.9023 H   0  0  0  0  0  0  0  0  0  0  0  0
  121.6103  106.0155  104.3499 H   0  0  0  0  0  0  0  0  0  0  0  0
  127.9828  107.1355  107.1135 H   0  0  0  0  0  0  0  0  0  0  0  0
  126.7709  105.8535  107.1652 H   0  0  0  0  0  0  0  0  0  0  0  0
  125.8257  107.8040  105.5059 H   0  0  0  0  0  0  0  0  0  0  0  0
  125.3442  107.6364  108.5353 H   0  0  0  0  0  0  0  0  0  0  0  0
  127.3847  109.1815  108.5463 H   0  0  0  0  0  0  0  0  0  0  0  0
  126.0585  109.9506  107.7076 H   0  0  0  0  0  0  0  0  0  0  0  0
  128.2291  105.7666  108.8813 H   0  0  0  0  0  0  0  0  0  0  0  0
  124.0918  109.1964  105.4228 H   0  0  0  0  0  0  0  0  0  0  0  0
  1  2  1  0  0  0  0
  1  4  2  0  0  0  0
  2  8  2  0  0  0  0
  3  8  1  0  0  0  0
  3  9  2  0  0  0  0
  4  6  1  0  0  0  0
  4  9  1  0  0  0  0
  5  7  1  0  0  0  0
  5 11  1  0  0  0  0
  6  7  1  0  0  0  0
  6 12  1  0  0  0  0
  7 10  1  0  0  0  0
  1 13  1  0  0  0  0
  2 14  1  0  0  0  0
  3 15  1  0  0  0  0
  5 16  1  0  0  0  0
  5 17  1  0  0  0  0
  6 18  1  0  0  0  0
  7 19  1  0  0  0  0
 10 20  1  0  0  0  0
 10 21  1  0  0  0  0
 11 22  1  0  0  0  0
 12 23  1  0  0  0  0
M  END
> <FRED Chemgauss4 score>
-8.045403

$$$$
C54433554	P81923854
  -OEChem-05122015313D

 34 34  0     1  0  0  0  0  0999 V2000
  123.8134  106.7815  107.7267 C   0  0  0  0  0  0  0  0  0  0  0  0
  124.8775  105.8632  107.6484 C   0  0  0  0  0  0  0  0  0  0  0  0
  124.3120  104.7262  107.1252 C   0  0  0  0  0  0  0  0  0  0  0  0
  124.8939  103.4100  106.8004 C   0  0  0  0  0  0  0  0  0  0  0  0
  126.9816  107.2205  107.2742 C   0  0  0  0  0  0  0  0  0  0  0  0
  119.4102  103.9000  104.6335 C   0  0  0  0  0  0  0  0  0  0  0  0
  118.2459  103.9957  106.7330 C   0  0  0  0  0  0  0  0  0  0  0  0
  121.9680  104.1348  106.3895 C   0  0  0  0  0  0  0  0  0  0  0  0
  120.5522  104.6574  106.6069 C   0  0  0  0  0  0  0  0  0  0  0  0
  126.2801  106.0791  108.0407 C   0  0  1  0  0  0  0  0  0  0  0  0
  122.6592  106.2719  107.2882 N   0  0  0  0  0  0  0  0  0  0  0  0
  122.9949  105.0211  106.9293 N   0  0  0  0  0  0  0  0  0  0  0  0
  126.4438  106.3380  109.4686 N   0  0  0  0  0  0  0  0  0  0  0  0
  119.5325  103.7493  106.0830 N   0  0  0  0  0  0  0  0  0  0  0  0
  123.8282  107.8012  108.0843 H   0  0  0  0  0  0  0  0  0  0  0  0
  124.8353  102.7251  107.6626 H   0  0  0  0  0  0  0  0  0  0  0  0
  124.3778  102.9261  105.9533 H   0  0  0  0  0  0  0  0  0  0  0  0
  125.9549  103.4871  106.5060 H   0  0  0  0  0  0  0  0  0  0  0  0
  126.4323  108.1594  107.4040 H   0  0  0  0  0  0  0  0  0  0  0  0
  128.0085  107.3770  107.6234 H   0  0  0  0  0  0  0  0  0  0  0  0
  127.0359  107.0064  106.2009 H   0  0  0  0  0  0  0  0  0  0  0  0
  120.3747  103.7147  104.1537 H   0  0  0  0  0  0  0  0  0  0  0  0
  119.0825  104.9132  104.3852 H   0  0  0  0  0  0  0  0  0  0  0  0
  118.6789  103.1889  104.2399 H   0  0  0  0  0  0  0  0  0  0  0  0
  118.3439  103.8816  107.8157 H   0  0  0  0  0  0  0  0  0  0  0  0
  117.4973  103.2859  106.3706 H   0  0  0  0  0  0  0  0  0  0  0  0
  117.9009  105.0102  106.5158 H   0  0  0  0  0  0  0  0  0  0  0  0
  122.0916  103.1635  106.8835 H   0  0  0  0  0  0  0  0  0  0  0  0
  122.1764  103.9847  105.3234 H   0  0  0  0  0  0  0  0  0  0  0  0
  120.3555  104.7707  107.6775 H   0  0  0  0  0  0  0  0  0  0  0  0
  120.4047  105.6297  106.1257 H   0  0  0  0  0  0  0  0  0  0  0  0
  126.8908  105.1681  107.8623 H   0  0  0  0  0  0  0  0  0  0  0  0
  127.2534  106.8388  109.7646 H   0  0  0  0  0  0  0  0  0  0  0  0
  125.8613  105.8389  110.1054 H   0  0  0  0  0  0  0  0  0  0  0  0
  1  2  1  0  0  0  0
  1 11  2  0  0  0  0
  2  3  2  0  0  0  0
  2 10  1  0  0  0  0
  3  4  1  0  0  0  0
  3 12  1  0  0  0  0
  5 10  1  0  0  0  0
  6 14  1  0  0  0  0
  7 14  1  0  0  0  0
  8  9  1  0  0  0  0
  8 12  1  0  0  0  0
  9 14  1  0  0  0  0
 10 13  1  0  0  0  0
 11 12  1  0  0  0  0
  1 15  1  0  0  0  0
  4 16  1  0  0  0  0
  4 17  1  0  0  0  0
  4 18  1  0  0  0  0
  5 19  1  0  0  0  0
  5 20  1  0  0  0  0
  5 21  1  0  0  0  0
  6 22  1  0  0  0  0
  6 23  1  0  0  0  0
  6 24  1  0  0  0  0
  7 25  1  0  0  0  0
  7 26  1  0  0  0  0
  7 27  1  0  0  0  0
  8 28  1  0  0  0  0
  8 29  1  0  0  0  0
  9 30  1  0  0  0  0
  9 31  1  0  0  0  0
 10 32  1  0  0  0  0
 13 33  1  0  0  0  0
 13 34  1  0  0  0  0
M  END
> <FRED Chemgauss4 score>
-8.038330

$$$$
C39136597	P59287216
  -OEChem-05122015313D

 23 22  0     0  0  0  0  0  0999 V2000
  123.4909  105.0849  106.6925 C   0  0  0  0  0  0  0  0  0  0  0  0
  126.0319  106.6076  107.3921 C   0  0  0  0  0  0  0  0  0  0  0  0
  124.4012  107.8082  108.8599 C   0  0  0  0  0  0  0  0  0  0  0  0
  124.7718  104.4014  107.1448 C   0  0  0  0  0  0  0  0  0  0  0  0
  125.6407  105.2798  108.0425 C   0  0  0  0  0  0  0  0  0  0  0  0
  121.1198  104.8685  106.7915 N   0  0  0  0  0  0  0  0  0  0  0  0
  126.3637  108.9265  107.9854 N   0  0  0  0  0  0  0  0  0  0  0  0
  122.3717  104.3857  107.1130 N   0  0  0  0  0  0  0  0  0  0  0  0
  125.6138  107.7548  108.0602 N   0  0  0  0  0  0  0  0  0  0  0  0
  123.4773  106.1259  106.0404 O   0  0  0  0  0  0  0  0  0  0  0  0
  126.6812  106.6361  106.3443 O   0  0  0  0  0  0  0  0  0  0  0  0
  124.6213  107.5340  109.8949 H   0  0  0  0  0  0  0  0  0  0  0  0
  123.6557  107.1138  108.4628 H   0  0  0  0  0  0  0  0  0  0  0  0
  123.9826  108.8181  108.8447 H   0  0  0  0  0  0  0  0  0  0  0  0
  125.3409  104.1540  106.2399 H   0  0  0  0  0  0  0  0  0  0  0  0
  124.5151  103.4588  107.6421 H   0  0  0  0  0  0  0  0  0  0  0  0
  126.5489  104.7438  108.3405 H   0  0  0  0  0  0  0  0  0  0  0  0
  125.0667  105.5134  108.9475 H   0  0  0  0  0  0  0  0  0  0  0  0
  120.5025  104.6286  107.5662 H   0  0  0  0  0  0  0  0  0  0  0  0
  121.1866  105.8855  106.7899 H   0  0  0  0  0  0  0  0  0  0  0  0
  127.3437  108.6555  107.9152 H   0  0  0  0  0  0  0  0  0  0  0  0
  126.2599  109.4109  108.8760 H   0  0  0  0  0  0  0  0  0  0  0  0
  122.4710  103.5301  107.6503 H   0  0  0  0  0  0  0  0  0  0  0  0
  1  4  1  0  0  0  0
  1  8  1  0  0  0  0
  1 10  2  0  0  0  0
  2  5  1  0  0  0  0
  2  9  1  0  0  0  0
  2 11  2  0  0  0  0
  3  9  1  0  0  0  0
  4  5  1  0  0  0  0
  6  8  1  0  0  0  0
  7  9  1  0  0  0  0
  3 12  1  0  0  0  0
  3 13  1  0  0  0  0
  3 14  1  0  0  0  0
  4 15  1  0  0  0  0
  4 16  1  0  0  0  0
  5 17  1  0  0  0  0
  5 18  1  0  0  0  0
  6 19  1  0  0  0  0
  6 20  1  0  0  0  0
  7 21  1  0  0  0  0
  7 22  1  0  0  0  0
  8 23  1  0  0  0  0
M  END
> <FRED Chemgauss4 score>
-8.036782

$$$$
C40545288	P61562844
  -OEChem-05122015313D

 24 24  0     1  0  0  0  0  0999 V2000
  124.5781  106.4527  105.9786 C   0  0  0  0  0  0  0  0  0  0  0  0
  125.1677  107.7605  106.4924 C   0  0  1  0  0  0  0  0  0  0  0  0
  126.1153  107.5165  107.6680 C   0  0  2  0  0  0  0  0  0  0  0  0
  125.4461  106.6198  108.7098 C   0  0  1  0  0  0  0  0  0  0  0  0
  124.8384  105.3645  108.0772 C   0  0  1  0  0  0  0  0  0  0  0  0
  125.2576  103.2711  107.0662 C   0  0  0  0  0  0  0  0  0  0  0  0
  123.9414  105.7178  107.0209 O   0  0  0  0  0  0  0  0  0  0  0  0
  125.8648  108.3879  105.4213 O   0  0  0  0  0  0  0  0  0  0  0  0
  126.4274  108.7639  108.2910 O   0  0  0  0  0  0  0  0  0  0  0  0
  126.3983  106.2581  109.7042 O   0  0  0  0  0  0  0  0  0  0  0  0
  126.2208  102.2819  106.7327 O   0  0  0  0  0  0  0  0  0  0  0  0
  125.8315  104.4327  107.6519 O   0  0  0  0  0  0  0  0  0  0  0  0
  123.8279  106.6641  105.2085 H   0  0  0  0  0  0  0  0  0  0  0  0
  125.3406  105.8325  105.4909 H   0  0  0  0  0  0  0  0  0  0  0  0
  124.3586  108.4330  106.8019 H   0  0  0  0  0  0  0  0  0  0  0  0
  127.0643  107.0890  107.3304 H   0  0  0  0  0  0  0  0  0  0  0  0
  124.6565  107.1954  109.2077 H   0  0  0  0  0  0  0  0  0  0  0  0
  124.2295  104.8415  108.8512 H   0  0  0  0  0  0  0  0  0  0  0  0
  124.6538  103.5233  106.1867 H   0  0  0  0  0  0  0  0  0  0  0  0
  124.5894  102.8338  107.8135 H   0  0  0  0  0  0  0  0  0  0  0  0
  125.2132  108.5447  104.7198 H   0  0  0  0  0  0  0  0  0  0  0  0
  125.5858  109.1366  108.5941 H   0  0  0  0  0  0  0  0  0  0  0  0
  125.9337  105.6927  110.3412 H   0  0  0  0  0  0  0  0  0  0  0  0
  125.7402  101.5325  106.3423 H   0  0  0  0  0  0  0  0  0  0  0  0
  1  2  1  0  0  0  0
  1  7  1  0  0  0  0
  2  3  1  0  0  0  0
  2  8  1  0  0  0  0
  3  4  1  0  0  0  0
  3  9  1  0  0  0  0
  4  5  1  0  0  0  0
  4 10  1  0  0  0  0
  5  7  1  0  0  0  0
  5 12  1  0  0  0  0
  6 11  1  0  0  0  0
  6 12  1  0  0  0  0
  1 13  1  0  0  0  0
  1 14  1  0  0  0  0
  2 15  1  0  0  0  0
  3 16  1  0  0  0  0
  4 17  1  0  0  0  0
  5 18  1  0  0  0  0
  6 19  1  0  0  0  0
  6 20  1  0  0  0  0
  8 21  1  0  0  0  0
  9 22  1  0  0  0  0
 10 23  1  0  0  0  0
 11 24  1  0  0  0  0
M  END
> <FRED Chemgauss4 score>
-8.031672

$$$$
C70125679	P108093639
  -OEChem-05122015313D

 20 20  0     0  0  0  0  0  0999 V2000
  125.1323  107.5924  108.1318 C   0  0  0  0  0  0  0  0  0  0  0  0
  124.6050  108.7697  108.5929 C   0  0  0  0  0  0  0  0  0  0  0  0
  123.5887  108.8894  109.6700 C   0  0  0  0  0  0  0  0  0  0  0  0
  121.7090  110.2428  110.5594 C   0  0  0  0  0  0  0  0  0  0  0  0
  121.4507  111.7344  110.6575 C   0  0  0  0  0  0  0  0  0  0  0  0
  126.0149  109.2103  107.0451 N   0  5  0  0  0  0  0  0  0  0  0  0
  126.0219  107.8509  107.1575 N   0  0  0  0  0  0  0  0  0  0  0  0
  125.1491  109.7986  107.9201 N   0  0  0  0  0  0  0  0  0  0  0  0
  122.7582  109.9694  109.5520 N   0  0  0  0  0  0  0  0  0  0  0  0
  121.0529  112.2624  109.3291 N   0  3  0  0  0  0  0  0  0  0  0  0
  123.5712  108.0576  110.5734 O   0  0  0  0  0  0  0  0  0  0  0  0
  124.9050  106.5877  108.4627 H   0  0  0  0  0  0  0  0  0  0  0  0
  122.0271  109.8296  111.5224 H   0  0  0  0  0  0  0  0  0  0  0  0
  120.7960  109.7235  110.2511 H   0  0  0  0  0  0  0  0  0  0  0  0
  122.3540  112.2762  110.9517 H   0  0  0  0  0  0  0  0  0  0  0  0
  120.6371  111.9722  111.3495 H   0  0  0  0  0  0  0  0  0  0  0  0
  122.8490  110.6575  108.8329 H   0  0  0  0  0  0  0  0  0  0  0  0
  121.2559  113.2651  109.2572 H   0  0  0  0  0  0  0  0  0  0  0  0
  120.0484  112.1309  109.1687 H   0  0  0  0  0  0  0  0  0  0  0  0
  121.5590  111.7824  108.5772 H   0  0  0  0  0  0  0  0  0  0  0  0
  1  2  1  0  0  0  0
  1  7  2  0  0  0  0
  2  3  1  0  0  0  0
  2  8  2  0  0  0  0
  3  9  1  0  0  0  0
  3 11  2  0  0  0  0
  4  5  1  0  0  0  0
  4  9  1  0  0  0  0
  5 10  1  0  0  0  0
  6  7  1  0  0  0  0
  6  8  1  0  0  0  0
  1 12  1  0  0  0  0
  4 13  1  0  0  0  0
  4 14  1  0  0  0  0
  5 15  1  0  0  0  0
  5 16  1  0  0  0  0
  9 17  1  0  0  0  0
 10 18  1  0  0  0  0
 10 19  1  0  0  0  0
 10 20  1  0  0  0  0
M  CHG  2   6  -1  10   1
M  END
> <FRED Chemgauss4 score>
-8.031232

$$$$
C49714843	P74276194
  -OEChem-05122015313D

 24 24  0     1  0  0  0  0  0999 V2000
  124.5476  108.3440  106.7848 C   0  0  0  0  0  0  0  0  0  0  0  0
  125.8524  108.2086  107.1968 C   0  0  0  0  0  0  0  0  0  0  0  0
  124.5153  108.6596  108.8895 C   0  0  0  0  0  0  0  0  0  0  0  0
  123.1963  111.9747  112.2062 C   0  0  0  0  0  0  0  0  0  0  0  0
  124.1192  108.9282  110.3126 C   0  0  0  0  0  0  0  0  0  0  0  0
  123.3657  109.5320  112.7890 C   0  0  0  0  0  0  0  0  0  0  0  0
  123.9431  110.6716  111.9529 C   0  0  1  0  0  0  0  0  0  0  0  0
  123.7203  108.6249  107.8432 N   0  0  0  0  0  0  0  0  0  0  0  0
  125.8160  108.4139  108.5472 N   0  0  0  0  0  0  0  0  0  0  0  0
  123.8432  110.3421  110.5450 N   0  0  0  0  0  0  0  0  0  0  0  0
  123.4441  109.8728  114.1684 O   0  0  0  0  0  0  0  0  0  0  0  0
  124.1622  108.2550  105.7798 H   0  0  0  0  0  0  0  0  0  0  0  0
  126.7717  107.9922  106.6724 H   0  0  0  0  0  0  0  0  0  0  0  0
  122.1325  111.8674  111.9700 H   0  0  0  0  0  0  0  0  0  0  0  0
  123.6004  112.7916  111.5976 H   0  0  0  0  0  0  0  0  0  0  0  0
  123.2808  112.2739  113.2568 H   0  0  0  0  0  0  0  0  0  0  0  0
  123.2198  108.3612  110.5767 H   0  0  0  0  0  0  0  0  0  0  0  0
  124.9109  108.6234  111.0051 H   0  0  0  0  0  0  0  0  0  0  0  0
  122.3107  109.3698  112.5443 H   0  0  0  0  0  0  0  0  0  0  0  0
  123.9124  108.5960  112.6306 H   0  0  0  0  0  0  0  0  0  0  0  0
  125.0036  110.8034  112.1959 H   0  0  0  0  0  0  0  0  0  0  0  0
  126.6068  108.3859  109.1773 H   0  0  0  0  0  0  0  0  0  0  0  0
  122.9017  110.5548  110.2090 H   0  0  0  0  0  0  0  0  0  0  0  0
  123.0689  109.1259  114.6614 H   0  0  0  0  0  0  0  0  0  0  0  0
  1  2  2  0  0  0  0
  1  8  1  0  0  0  0
  2  9  1  0  0  0  0
  3  5  1  0  0  0  0
  3  8  2  0  0  0  0
  3  9  1  0  0  0  0
  4  7  1  0  0  0  0
  5 10  1  0  0  0  0
  6  7  1  0  0  0  0
  6 11  1  0  0  0  0
  7 10  1  0  0  0  0
  1 12  1  0  0  0  0
  2 13  1  0  0  0  0
  4 14  1  0  0  0  0
  4 15  1  0  0  0  0
  4 16  1  0  0  0  0
  5 17  1  0  0  0  0
  5 18  1  0  0  0  0
  6 19  1  0  0  0  0
  6 20  1  0  0  0  0
  7 21  1  0  0  0  0
  9 22  1  0  0  0  0
 10 23  1  0  0  0  0
 11 24  1  0  0  0  0
M  END
> <FRED Chemgauss4 score>
-8.026903

$$$$
C04329332	P05730540
  -OEChem-05122015313D

 23 23  0     1  0  0  0  0  0999 V2000
  126.0708  107.4058  107.1447 C   0  0  2  0  0  0  0  0  0  0  0  0
  124.7801  107.4753  106.3309 C   0  0  2  0  0  0  0  0  0  0  0  0
  125.9592  106.3531  108.2398 C   0  0  2  0  0  0  0  0  0  0  0  0
  125.5081  105.0156  107.6579 C   0  0  1  0  0  0  0  0  0  0  0  0
  124.3534  106.0812  105.8634 C   0  0  1  0  0  0  0  0  0  0  0  0
  125.2942  103.9770  108.7503 C   0  0  0  0  0  0  0  0  0  0  0  0
  124.2649  105.1820  106.9678 O   0  0  0  0  0  0  0  0  0  0  0  0
  126.3321  108.6786  107.7274 O   0  0  0  0  0  0  0  0  0  0  0  0
  124.9812  108.3175  105.1963 O   0  0  0  0  0  0  0  0  0  0  0  0
  123.0777  106.2016  105.2355 O   0  0  0  0  0  0  0  0  0  0  0  0
  126.5190  103.7793  109.4350 O   0  0  0  0  0  0  0  0  0  0  0  0
  125.0167  106.7689  109.1367 F   0  0  0  0  0  0  0  0  0  0  0  0
  126.9131  107.1760  106.4806 H   0  0  0  0  0  0  0  0  0  0  0  0
  123.9815  107.9395  106.9344 H   0  0  0  0  0  0  0  0  0  0  0  0
  126.9015  106.2597  108.7892 H   0  0  0  0  0  0  0  0  0  0  0  0
  126.2559  104.6357  106.9507 H   0  0  0  0  0  0  0  0  0  0  0  0
  125.0533  105.6885  105.1147 H   0  0  0  0  0  0  0  0  0  0  0  0
  124.9728  103.0311  108.3113 H   0  0  0  0  0  0  0  0  0  0  0  0
  124.5405  104.3259  109.4580 H   0  0  0  0  0  0  0  0  0  0  0  0
  127.1557  108.5887  108.2319 H   0  0  0  0  0  0  0  0  0  0  0  0
  125.6965  107.9160  104.6801 H   0  0  0  0  0  0  0  0  0  0  0  0
  122.8281  105.3102  104.9483 H   0  0  0  0  0  0  0  0  0  0  0  0
  126.3551  103.1141  110.1246 H   0  0  0  0  0  0  0  0  0  0  0  0
  1  2  1  0  0  0  0
  1  3  1  0  0  0  0
  1  8  1  0  0  0  0
  2  5  1  0  0  0  0
  2  9  1  0  0  0  0
  3  4  1  0  0  0  0
  3 12  1  0  0  0  0
  4  6  1  0  0  0  0
  4  7  1  0  0  0  0
  5  7  1  0  0  0  0
  5 10  1  0  0  0  0
  6 11  1  0  0  0  0
  1 13  1  0  0  0  0
  2 14  1  0  0  0  0
  3 15  1  0  0  0  0
  4 16  1  0  0  0  0
  5 17  1  0  0  0  0
  6 18  1  0  0  0  0
  6 19  1  0  0  0  0
  8 20  1  0  0  0  0
  9 21  1  0  0  0  0
 10 22  1  0  0  0  0
 11 23  1  0  0  0  0
M  END
> <FRED Chemgauss4 score>
-8.023682

$$$$
C87111177	P136357235
  -OEChem-05122015313D

 24 24  0     1  0  0  0  0  0999 V2000
  125.3254  108.4133  107.8579 C   0  0  0  0  0  0  0  0  0  0  0  0
  125.3730  106.1371  108.6329 C   0  0  0  0  0  0  0  0  0  0  0  0
  126.0053  107.9863  106.7286 C   0  0  0  0  0  0  0  0  0  0  0  0
  126.0506  105.8118  107.4689 C   0  0  0  0  0  0  0  0  0  0  0  0
  125.0070  107.4649  108.8234 C   0  0  0  0  0  0  0  0  0  0  0  0
  123.9035  110.3896  112.4598 C   0  0  0  0  0  0  0  0  0  0  0  0
  123.9558  109.7254  109.9627 C   0  0  0  0  0  0  0  0  0  0  0  0
  123.2154  110.4620  111.0902 C   0  0  2  0  0  0  0  0  0  0  0  0
  126.3774  106.7054  106.5085 N   0  0  0  0  0  0  0  0  0  0  0  0
  123.0725  111.8762  110.7183 N   0  0  0  0  0  0  0  0  0  0  0  0
  123.6243  109.1542  113.1050 O   0  0  0  0  0  0  0  0  0  0  0  0
  124.1417  107.9445  110.2859 S   0  0  0  0  0  0  0  0  0  0  0  0
  125.0580  109.4593  107.9674 H   0  0  0  0  0  0  0  0  0  0  0  0
  125.1438  105.3669  109.3623 H   0  0  0  0  0  0  0  0  0  0  0  0
  126.2769  108.6865  105.9455 H   0  0  0  0  0  0  0  0  0  0  0  0
  126.3579  104.7899  107.2724 H   0  0  0  0  0  0  0  0  0  0  0  0
  124.9902  110.4903  112.3562 H   0  0  0  0  0  0  0  0  0  0  0  0
  123.5597  111.2001  113.1106 H   0  0  0  0  0  0  0  0  0  0  0  0
  123.4034  109.8235  109.0212 H   0  0  0  0  0  0  0  0  0  0  0  0
  124.9532  110.1477  109.7984 H   0  0  0  0  0  0  0  0  0  0  0  0
  122.2023  110.0543  111.1921 H   0  0  0  0  0  0  0  0  0  0  0  0
  122.9212  112.5311  111.4490 H   0  0  0  0  0  0  0  0  0  0  0  0
  122.9297  112.0873  109.7588 H   0  0  0  0  0  0  0  0  0  0  0  0
  124.0858  109.1738  113.9589 H   0  0  0  0  0  0  0  0  0  0  0  0
  1  3  1  0  0  0  0
  1  5  2  0  0  0  0
  2  4  2  0  0  0  0
  2  5  1  0  0  0  0
  3  9  2  0  0  0  0
  4  9  1  0  0  0  0
  5 12  1  0  0  0  0
  6  8  1  0  0  0  0
  6 11  1  0  0  0  0
  7  8  1  0  0  0  0
  7 12  1  0  0  0  0
  8 10  1  0  0  0  0
  1 13  1  0  0  0  0
  2 14  1  0  0  0  0
  3 15  1  0  0  0  0
  4 16  1  0  0  0  0
  6 17  1  0  0  0  0
  6 18  1  0  0  0  0
  7 19  1  0  0  0  0
  7 20  1  0  0  0  0
  8 21  1  0  0  0  0
 10 22  1  0  0  0  0
 10 23  1  0  0  0  0
 11 24  1  0  0  0  0
M  END
> <FRED Chemgauss4 score>
-8.020723

$$$$
C37996101	P57098702
  -OEChem-05122015313D

 17 17  0     0  0  0  0  0  0999 V2000
  125.0120  107.3368  106.2101 C   0  0  0  0  0  0  0  0  0  0  0  0
  126.4984  108.0820  107.4721 C   0  0  0  0  0  0  0  0  0  0  0  0
  123.0002  105.3067  107.9185 C   0  0  0  0  0  0  0  0  0  0  0  0
  124.3954  105.1214  107.3681 C   0  0  0  0  0  0  0  0  0  0  0  0
  125.8588  108.3961  106.3695 N   0  0  0  0  0  0  0  0  0  0  0  0
  126.0450  106.8879  107.9397 N   0  0  0  0  0  0  0  0  0  0  0  0
  125.0872  106.3871  107.1448 N   0  0  0  0  0  0  0  0  0  0  0  0
  127.4536  108.8810  108.0004 N   0  0  0  0  0  0  0  0  0  0  0  0
  122.3640  104.1034  108.1377 N   0  0  0  0  0  0  0  0  0  0  0  0
  122.4873  106.3993  108.1429 O   0  0  0  0  0  0  0  0  0  0  0  0
  124.3233  107.2741  105.3770 H   0  0  0  0  0  0  0  0  0  0  0  0
  124.3479  104.5848  106.4138 H   0  0  0  0  0  0  0  0  0  0  0  0
  124.9954  104.5251  108.0649 H   0  0  0  0  0  0  0  0  0  0  0  0
  127.7563  109.7489  107.5372 H   0  0  0  0  0  0  0  0  0  0  0  0
  127.9874  108.6119  108.8383 H   0  0  0  0  0  0  0  0  0  0  0  0
  122.8077  103.2114  107.9430 H   0  0  0  0  0  0  0  0  0  0  0  0
  121.4195  104.0720  108.5073 H   0  0  0  0  0  0  0  0  0  0  0  0
  1  5  2  0  0  0  0
  1  7  1  0  0  0  0
  2  5  1  0  0  0  0
  2  6  2  0  0  0  0
  2  8  1  0  0  0  0
  3  4  1  0  0  0  0
  3  9  1  0  0  0  0
  3 10  2  0  0  0  0
  4  7  1  0  0  0  0
  6  7  1  0  0  0  0
  1 11  1  0  0  0  0
  4 12  1  0  0  0  0
  4 13  1  0  0  0  0
  8 14  1  0  0  0  0
  8 15  1  0  0  0  0
  9 16  1  0  0  0  0
  9 17  1  0  0  0  0
M  END
> <FRED Chemgauss4 score>
-8.019084

$$$$
C82915762	P129631292
  -OEChem-05122015313D

 29 29  0     1  0  0  0  0  0999 V2000
  123.9785  111.7293  112.2054 C   0  0  0  0  0  0  0  0  0  0  0  0
  123.2613  109.8260  112.6749 C   0  0  0  0  0  0  0  0  0  0  0  0
  126.3598  107.4341  107.2310 C   0  0  0  0  0  0  0  0  0  0  0  0
  124.6234  108.1908  109.8322 C   0  0  0  0  0  0  0  0  0  0  0  0
  124.4008  107.0964  108.7765 C   0  0  0  0  0  0  0  0  0  0  0  0
  123.3158  108.8500  110.2902 C   0  0  0  0  0  0  0  0  0  0  0  0
  125.5030  105.0727  107.5985 C   0  0  0  0  0  0  0  0  0  0  0  0
  125.7029  106.4670  108.2265 C   0  0  1  0  0  0  0  0  0  0  0  0
  123.5519  110.9672  113.2551 N   0  0  0  0  0  0  0  0  0  0  0  0
  123.9700  111.1314  111.0121 N   0  0  0  0  0  0  0  0  0  0  0  0
  123.5072  109.9155  111.3403 N   0  0  0  0  0  0  0  0  0  0  0  0
  124.8234  104.1237  108.4716 N   0  0  0  0  0  0  0  0  0  0  0  0
  126.6217  106.2926  109.3139 O   0  0  0  0  0  0  0  0  0  0  0  0
  124.3075  112.7519  112.3133 H   0  0  0  0  0  0  0  0  0  0  0  0
  122.8858  108.9342  113.1565 H   0  0  0  0  0  0  0  0  0  0  0  0
  127.2860  107.0082  106.8276 H   0  0  0  0  0  0  0  0  0  0  0  0
  126.6015  108.3979  107.6895 H   0  0  0  0  0  0  0  0  0  0  0  0
  125.7044  107.6110  106.3706 H   0  0  0  0  0  0  0  0  0  0  0  0
  125.1503  107.7772  110.6990 H   0  0  0  0  0  0  0  0  0  0  0  0
  125.2665  108.9734  109.4122 H   0  0  0  0  0  0  0  0  0  0  0  0
  123.7586  106.3089  109.1884 H   0  0  0  0  0  0  0  0  0  0  0  0
  123.8500  107.5482  107.9404 H   0  0  0  0  0  0  0  0  0  0  0  0
  122.8236  109.3097  109.4233 H   0  0  0  0  0  0  0  0  0  0  0  0
  122.6210  108.0818  110.6521 H   0  0  0  0  0  0  0  0  0  0  0  0
  126.4707  104.6539  107.2981 H   0  0  0  0  0  0  0  0  0  0  0  0
  124.9349  105.1705  106.6644 H   0  0  0  0  0  0  0  0  0  0  0  0
  125.0593  104.1226  109.4415 H   0  0  0  0  0  0  0  0  0  0  0  0
  124.3064  103.3813  108.0496 H   0  0  0  0  0  0  0  0  0  0  0  0
  127.4283  105.9259  108.9260 H   0  0  0  0  0  0  0  0  0  0  0  0
  1  9  1  0  0  0  0
  1 10  2  0  0  0  0
  2  9  2  0  0  0  0
  2 11  1  0  0  0  0
  3  8  1  0  0  0  0
  4  5  1  0  0  0  0
  4  6  1  0  0  0  0
  5  8  1  0  0  0  0
  6 11  1  0  0  0  0
  7  8  1  0  0  0  0
  7 12  1  0  0  0  0
  8 13  1  0  0  0  0
 10 11  1  0  0  0  0
  1 14  1  0  0  0  0
  2 15  1  0  0  0  0
  3 16  1  0  0  0  0
  3 17  1  0  0  0  0
  3 18  1  0  0  0  0
  4 19  1  0  0  0  0
  4 20  1  0  0  0  0
  5 21  1  0  0  0  0
  5 22  1  0  0  0  0
  6 23  1  0  0  0  0
  6 24  1  0  0  0  0
  7 25  1  0  0  0  0
  7 26  1  0  0  0  0
 12 27  1  0  0  0  0
 12 28  1  0  0  0  0
 13 29  1  0  0  0  0
M  END
> <FRED Chemgauss4 score>
-8.015964

$$$$
C05783668	P151021902
  -OEChem-05122015313D

 15 15  0     1  0  0  0  0  0999 V2000
  125.2060  108.0849  106.5854 C   0  0  0  0  0  0  0  0  0  0  0  0
  124.5479  106.7191  106.4350 C   0  0  0  0  0  0  0  0  0  0  0  0
  125.6204  105.9909  108.3792 C   0  0  0  0  0  0  0  0  0  0  0  0
  126.5136  108.0512  107.3184 C   0  0  2  0  0  0  0  0  0  0  0  0
  124.8020  105.7793  107.2897 N   0  0  0  0  0  0  0  0  0  0  0  0
  126.3417  107.1721  108.4442 N   0  0  0  0  0  0  0  0  0  0  0  0
  126.9180  109.3974  107.7816 N   0  3  0  0  0  0  0  0  0  0  0  0
  123.8485  106.7400  105.4101 O   0  5  0  0  0  0  0  0  0  0  0  0
  124.7619  109.0803  106.0307 O   0  0  0  0  0  0  0  0  0  0  0  0
  125.6984  105.1718  109.2963 O   0  0  0  0  0  0  0  0  0  0  0  0
  127.3053  107.6672  106.6684 H   0  0  0  0  0  0  0  0  0  0  0  0
  126.7695  107.4296  109.3288 H   0  0  0  0  0  0  0  0  0  0  0  0
  127.6572  109.7878  107.1853 H   0  0  0  0  0  0  0  0  0  0  0  0
  127.2761  109.3655  108.7437 H   0  0  0  0  0  0  0  0  0  0  0  0
  126.1245  110.0491  107.7641 H   0  0  0  0  0  0  0  0  0  0  0  0
  1  2  1  0  0  0  0
  1  4  1  0  0  0  0
  1  9  2  0  0  0  0
  2  5  2  0  0  0  0
  2  8  1  0  0  0  0
  3  5  1  0  0  0  0
  3  6  1  0  0  0  0
  3 10  2  0  0  0  0
  4  6  1  0  0  0  0
  4  7  1  0  0  0  0
  4 11  1  0  0  0  0
  6 12  1  0  0  0  0
  7 13  1  0  0  0  0
  7 14  1  0  0  0  0
  7 15  1  0  0  0  0
M  CHG  2   7   1   8  -1
M  END
> <FRED Chemgauss4 score>
-8.015865

$$$$
C50284112	P75224048
  -OEChem-05122015313D

 22 23  0     1  0  0  0  0  0999 V2000
  122.1338  104.5955  106.1439 C   0  0  0  0  0  0  0  0  0  0  0  0
  120.9193  104.3037  105.5680 C   0  0  0  0  0  0  0  0  0  0  0  0
  121.5043  106.2541  104.7913 C   0  0  0  0  0  0  0  0  0  0  0  0
  122.5137  105.8622  105.6397 C   0  0  0  0  0  0  0  0  0  0  0  0
  123.7329  106.6407  105.9352 C   0  0  0  0  0  0  0  0  0  0  0  0
  125.5863  107.2469  106.7183 C   0  0  0  0  0  0  0  0  0  0  0  0
  126.6249  106.2973  108.8186 C   0  0  0  0  0  0  0  0  0  0  0  0
  126.8404  107.1318  107.5577 C   0  0  2  0  0  0  0  0  0  0  0  0
  123.9809  107.8149  105.4038 N   0  0  0  0  0  0  0  0  0  0  0  0
  125.2003  108.2137  105.9189 N   0  0  0  0  0  0  0  0  0  0  0  0
  127.3678  108.4344  107.8940 N   0  0  0  0  0  0  0  0  0  0  0  0
  120.5286  105.3096  104.7420 O   0  0  0  0  0  0  0  0  0  0  0  0
  124.7069  106.2100  106.7827 O   0  0  0  0  0  0  0  0  0  0  0  0
  122.6734  103.9690  106.8402 H   0  0  0  0  0  0  0  0  0  0  0  0
  120.2402  103.4666  105.6386 H   0  0  0  0  0  0  0  0  0  0  0  0
  121.3352  107.1280  104.1782 H   0  0  0  0  0  0  0  0  0  0  0  0
  125.8475  106.7357  109.4539 H   0  0  0  0  0  0  0  0  0  0  0  0
  126.3151  105.2792  108.5570 H   0  0  0  0  0  0  0  0  0  0  0  0
  127.5402  106.2118  109.4151 H   0  0  0  0  0  0  0  0  0  0  0  0
  127.6255  106.6450  106.9662 H   0  0  0  0  0  0  0  0  0  0  0  0
  127.2843  109.1784  107.2246 H   0  0  0  0  0  0  0  0  0  0  0  0
  127.9779  108.5198  108.6872 H   0  0  0  0  0  0  0  0  0  0  0  0
  1  2  2  0  0  0  0
  1  4  1  0  0  0  0
  2 12  1  0  0  0  0
  3  4  2  0  0  0  0
  3 12  1  0  0  0  0
  4  5  1  0  0  0  0
  5  9  2  0  0  0  0
  5 13  1  0  0  0  0
  6  8  1  0  0  0  0
  6 10  2  0  0  0  0
  6 13  1  0  0  0  0
  7  8  1  0  0  0  0
  8 11  1  0  0  0  0
  9 10  1  0  0  0  0
  1 14  1  0  0  0  0
  2 15  1  0  0  0  0
  3 16  1  0  0  0  0
  7 17  1  0  0  0  0
  7 18  1  0  0  0  0
  7 19  1  0  0  0  0
  8 20  1  0  0  0  0
 11 21  1  0  0  0  0
 11 22  1  0  0  0  0
M  END
> <FRED Chemgauss4 score>
-8.015794

$$$$
C87226357	P136491744
  -OEChem-05122015313D

 30 31  0     1  0  0  0  0  0999 V2000
  123.6817  109.6670  110.3500 C   0  0  0  0  0  0  0  0  0  0  0  0
  124.7855  108.8334  108.8118 C   0  0  0  0  0  0  0  0  0  0  0  0
  123.7422  112.4516  112.7729 C   0  0  0  0  0  0  0  0  0  0  0  0
  123.9516  110.9794  112.5160 C   0  0  0  0  0  0  0  0  0  0  0  0
  123.6345  112.9925  111.3684 C   0  0  0  0  0  0  0  0  0  0  0  0
  123.0745  110.7097  111.2857 C   0  0  2  0  0  0  0  0  0  0  0  0
  121.6421  110.3190  111.6710 C   0  0  0  0  0  0  0  0  0  0  0  0
  126.2887  107.0873  107.7644 C   0  0  0  0  0  0  0  0  0  0  0  0
  125.6432  108.4916  107.6690 C   0  0  1  0  0  0  0  0  0  0  0  0
  124.5208  110.0065  109.3289 N   0  0  0  0  0  0  0  0  0  0  0  0
  123.4244  108.3623  110.4812 N   0  0  0  0  0  0  0  0  0  0  0  0
  124.9390  108.6021  106.3906 N   0  0  0  0  0  0  0  0  0  0  0  0
  124.1711  107.7969  109.4400 O   0  0  0  0  0  0  0  0  0  0  0  0
  122.9859  111.9777  110.5921 O   0  0  0  0  0  0  0  0  0  0  0  0
  126.6834  106.8046  109.1030 O   0  0  0  0  0  0  0  0  0  0  0  0
  122.8609  112.6695  113.3823 H   0  0  0  0  0  0  0  0  0  0  0  0
  124.6193  112.8747  113.2766 H   0  0  0  0  0  0  0  0  0  0  0  0
  125.0076  110.7184  112.3743 H   0  0  0  0  0  0  0  0  0  0  0  0
  123.5861  110.4134  113.3848 H   0  0  0  0  0  0  0  0  0  0  0  0
  123.0083  113.8896  111.3349 H   0  0  0  0  0  0  0  0  0  0  0  0
  124.6075  113.2276  110.9303 H   0  0  0  0  0  0  0  0  0  0  0  0
  121.2205  111.0698  112.3378 H   0  0  0  0  0  0  0  0  0  0  0  0
  121.6451  109.3548  112.1774 H   0  0  0  0  0  0  0  0  0  0  0  0
  121.0242  110.2498  110.7768 H   0  0  0  0  0  0  0  0  0  0  0  0
  125.5636  106.3228  107.4643 H   0  0  0  0  0  0  0  0  0  0  0  0
  127.1716  107.0055  107.1210 H   0  0  0  0  0  0  0  0  0  0  0  0
  126.4814  109.2148  107.5556 H   0  0  0  0  0  0  0  0  0  0  0  0
  125.2850  108.0739  105.6212 H   0  0  0  0  0  0  0  0  0  0  0  0
  124.2810  109.3414  106.2839 H   0  0  0  0  0  0  0  0  0  0  0  0
  127.0772  105.9180  109.0947 H   0  0  0  0  0  0  0  0  0  0  0  0
  1  6  1  0  0  0  0
  1 10  1  0  0  0  0
  1 11  2  0  0  0  0
  2  9  1  0  0  0  0
  2 10  2  0  0  0  0
  2 13  1  0  0  0  0
  3  4  1  0  0  0  0
  3  5  1  0  0  0  0
  4  6  1  0  0  0  0
  5 14  1  0  0  0  0
  6  7  1  0  0  0  0
  6 14  1  0  0  0  0
  8  9  1  0  0  0  0
  8 15  1  0  0  0  0
  9 12  1  0  0  0  0
 11 13  1  0  0  0  0
  3 16  1  0  0  0  0
  3 17  1  0  0  0  0
  4 18  1  0  0  0  0
  4 19  1  0  0  0  0
  5 20  1  0  0  0  0
  5 21  1  0  0  0  0
  7 22  1  0  0  0  0
  7 23  1  0  0  0  0
  7 24  1  0  0  0  0
  8 25  1  0  0  0  0
  8 26  1  0  0  0  0
  9 27  1  0  0  0  0
 12 28  1  0  0  0  0
 12 29  1  0  0  0  0
 15 30  1  0  0  0  0
M  END
> <FRED Chemgauss4 score>
-8.014971

$$$$
C40449126	P61405934
  -OEChem-05122015313D

 20 21  0     1  0  0  0  0  0999 V2000
  126.1847  108.2417  107.6918 C   0  0  0  0  0  0  0  0  0  0  0  0
  125.5893  106.9830  107.8882 C   0  0  0  0  0  0  0  0  0  0  0  0
  124.7211  106.8807  106.8313 C   0  0  0  0  0  0  0  0  0  0  0  0
  123.8108  105.7657  106.5045 C   0  0  0  0  0  0  0  0  0  0  0  0
  123.6920  104.8441  107.7374 C   0  0  0  0  0  0  0  0  0  0  0  0
  125.0555  104.6078  108.4281 C   0  0  0  0  0  0  0  0  0  0  0  0
  125.6968  105.9296  108.9327 C   0  0  1  0  0  0  0  0  0  0  0  0
  125.7319  108.8519  106.5880 N   0  0  0  0  0  0  0  0  0  0  0  0
  127.0968  105.7010  109.2764 N   0  0  0  0  0  0  0  0  0  0  0  0
  124.7953  107.9745  106.0407 O   0  0  0  0  0  0  0  0  0  0  0  0
  126.9239  108.7449  108.2979 H   0  0  0  0  0  0  0  0  0  0  0  0
  122.8215  106.1330  106.2136 H   0  0  0  0  0  0  0  0  0  0  0  0
  124.2219  105.1993  105.6613 H   0  0  0  0  0  0  0  0  0  0  0  0
  123.0036  105.2949  108.4646 H   0  0  0  0  0  0  0  0  0  0  0  0
  123.2541  103.8861  107.4351 H   0  0  0  0  0  0  0  0  0  0  0  0
  124.9269  103.9171  109.2703 H   0  0  0  0  0  0  0  0  0  0  0  0
  125.7221  104.1109  107.7094 H   0  0  0  0  0  0  0  0  0  0  0  0
  125.1634  106.2657  109.8240 H   0  0  0  0  0  0  0  0  0  0  0  0
  127.3428  104.8258  109.6861 H   0  0  0  0  0  0  0  0  0  0  0  0
  127.7128  106.4852  109.2817 H   0  0  0  0  0  0  0  0  0  0  0  0
  1  2  1  0  0  0  0
  1  8  2  0  0  0  0
  2  3  2  0  0  0  0
  2  7  1  0  0  0  0
  3  4  1  0  0  0  0
  3 10  1  0  0  0  0
  4  5  1  0  0  0  0
  5  6  1  0  0  0  0
  6  7  1  0  0  0  0
  7  9  1  0  0  0  0
  8 10  1  0  0  0  0
  1 11  1  0  0  0  0
  4 12  1  0  0  0  0
  4 13  1  0  0  0  0
  5 14  1  0  0  0  0
  5 15  1  0  0  0  0
  6 16  1  0  0  0  0
  6 17  1  0  0  0  0
  7 18  1  0  0  0  0
  9 19  1  0  0  0  0
  9 20  1  0  0  0  0
M  END
> <FRED Chemgauss4 score>
-8.013945

$$$$
C04097150	P05160868
  -OEChem-05122015313D

 24 24  0     1  0  0  0  0  0999 V2000
  125.5716  107.3154  106.3456 C   0  0  2  0  0  0  0  0  0  0  0  0
  124.5610  106.1983  106.0746 C   0  0  1  0  0  0  0  0  0  0  0  0
  125.1795  108.0988  107.5959 C   0  0  1  0  0  0  0  0  0  0  0  0
  124.3173  105.3280  107.3133 C   0  0  1  0  0  0  0  0  0  0  0  0
  124.9782  107.1578  108.7850 C   0  0  1  0  0  0  0  0  0  0  0  0
  125.4377  104.3229  107.5664 C   0  0  0  0  0  0  0  0  0  0  0  0
  124.0415  106.1235  108.4764 O   0  0  0  0  0  0  0  0  0  0  0  0
  125.6242  108.2049  105.2324 O   0  0  0  0  0  0  0  0  0  0  0  0
  123.3089  106.7723  105.6789 O   0  0  0  0  0  0  0  0  0  0  0  0
  126.1853  109.0553  107.9162 O   0  0  0  0  0  0  0  0  0  0  0  0
  126.2324  106.6453  109.2274 O   0  0  0  0  0  0  0  0  0  0  0  0
  125.1233  103.5815  108.7309 O   0  0  0  0  0  0  0  0  0  0  0  0
  126.5778  106.8711  106.4563 H   0  0  0  0  0  0  0  0  0  0  0  0
  124.9187  105.5816  105.2594 H   0  0  0  0  0  0  0  0  0  0  0  0
  124.2404  108.6608  107.4251 H   0  0  0  0  0  0  0  0  0  0  0  0
  123.3835  104.6971  107.1135 H   0  0  0  0  0  0  0  0  0  0  0  0
  124.5585  107.7472  109.6459 H   0  0  0  0  0  0  0  0  0  0  0  0
  126.3811  104.8477  107.7170 H   0  0  0  0  0  0  0  0  0  0  0  0
  125.5261  103.6429  106.7191 H   0  0  0  0  0  0  0  0  0  0  0  0
  125.8966  107.6725  104.4702 H   0  0  0  0  0  0  0  0  0  0  0  0
  122.7014  106.0327  105.5181 H   0  0  0  0  0  0  0  0  0  0  0  0
  125.8804  109.5161  108.7120 H   0  0  0  0  0  0  0  0  0  0  0  0
  126.0432  106.0597  109.9770 H   0  0  0  0  0  0  0  0  0  0  0  0
  125.8491  102.9496  108.8716 H   0  0  0  0  0  0  0  0  0  0  0  0
  1  2  1  0  0  0  0
  1  3  1  0  0  0  0
  1  8  1  0  0  0  0
  2  4  1  0  0  0  0
  2  9  1  0  0  0  0
  3  5  1  0  0  0  0
  3 10  1  0  0  0  0
  4  6  1  0  0  0  0
  4  7  1  0  0  0  0
  5  7  1  0  0  0  0
  5 11  1  0  0  0  0
  6 12  1  0  0  0  0
  1 13  1  0  0  0  0
  2 14  1  0  0  0  0
  3 15  1  0  0  0  0
  4 16  1  0  0  0  0
  5 17  1  0  0  0  0
  6 18  1  0  0  0  0
  6 19  1  0  0  0  0
  8 20  1  0  0  0  0
  9 21  1  0  0  0  0
 10 22  1  0  0  0  0
 11 23  1  0  0  0  0
 12 24  1  0  0  0  0
M  END
> <FRED Chemgauss4 score>
-8.013812

$$$$
C76135993	P118750968
  -OEChem-05122015313D

 22 22  0     1  0  0  0  0  0999 V2000
  124.2777  107.3004  109.1139 C   0  0  0  0  0  0  0  0  0  0  0  0
  123.4813  108.2324  109.7699 C   0  0  0  0  0  0  0  0  0  0  0  0
  125.4686  109.0996  108.1133 C   0  0  0  0  0  0  0  0  0  0  0  0
  125.2925  107.7340  108.2680 C   0  0  0  0  0  0  0  0  0  0  0  0
  123.7386  109.5757  109.5480 C   0  0  0  0  0  0  0  0  0  0  0  0
  126.9619  105.8426  108.4943 C   0  0  0  0  0  0  0  0  0  0  0  0
  126.1607  106.7616  107.5517 C   0  0  2  0  0  0  0  0  0  0  0  0
  124.7151  110.0350  108.7337 N   0  0  0  0  0  0  0  0  0  0  0  0
  122.9187  110.5130  110.2244 N   0  0  0  0  0  0  0  0  0  0  0  0
  127.0878  107.4229  106.6432 N   0  0  0  0  0  0  0  0  0  0  0  0
  128.0900  106.5388  109.0144 O   0  0  0  0  0  0  0  0  0  0  0  0
  124.1008  106.2393  109.2672 H   0  0  0  0  0  0  0  0  0  0  0  0
  122.6868  107.9027  110.4316 H   0  0  0  0  0  0  0  0  0  0  0  0
  126.2440  109.4976  107.4660 H   0  0  0  0  0  0  0  0  0  0  0  0
  126.3418  105.5355  109.3437 H   0  0  0  0  0  0  0  0  0  0  0  0
  127.3198  104.9451  107.9783 H   0  0  0  0  0  0  0  0  0  0  0  0
  125.5570  106.1106  106.8916 H   0  0  0  0  0  0  0  0  0  0  0  0
  122.1685  110.1773  110.7883 H   0  0  0  0  0  0  0  0  0  0  0  0
  123.0514  111.4846  110.0464 H   0  0  0  0  0  0  0  0  0  0  0  0
  126.7728  108.2351  106.1551 H   0  0  0  0  0  0  0  0  0  0  0  0
  127.9215  106.9382  106.3836 H   0  0  0  0  0  0  0  0  0  0  0  0
  128.5549  105.9179  109.5970 H   0  0  0  0  0  0  0  0  0  0  0  0
  1  2  1  0  0  0  0
  1  4  2  0  0  0  0
  2  5  2  0  0  0  0
  3  4  1  0  0  0  0
  3  8  2  0  0  0  0
  4  7  1  0  0  0  0
  5  8  1  0  0  0  0
  5  9  1  0  0  0  0
  6  7  1  0  0  0  0
  6 11  1  0  0  0  0
  7 10  1  0  0  0  0
  1 12  1  0  0  0  0
  2 13  1  0  0  0  0
  3 14  1  0  0  0  0
  6 15  1  0  0  0  0
  6 16  1  0  0  0  0
  7 17  1  0  0  0  0
  9 18  1  0  0  0  0
  9 19  1  0  0  0  0
 10 20  1  0  0  0  0
 10 21  1  0  0  0  0
 11 22  1  0  0  0  0
M  END
> <FRED Chemgauss4 score>
-8.006560

$$$$
C37730151	P56098300
  -OEChem-05122015313D

 24 24  0     1  0  0  0  0  0999 V2000
  124.2564  108.1074  109.9146 C   0  0  0  0  0  0  0  0  0  0  0  0
  123.5836  110.0020  110.4759 C   0  0  0  0  0  0  0  0  0  0  0  0
  124.4840  108.3076  106.4543 C   0  0  0  0  0  0  0  0  0  0  0  0
  122.7266  106.6794  105.8062 C   0  0  0  0  0  0  0  0  0  0  0  0
  126.4367  107.4441  107.8043 C   0  0  0  0  0  0  0  0  0  0  0  0
  125.4379  108.5886  107.6160 C   0  0  2  0  0  0  0  0  0  0  0  0
  123.5824  108.7616  110.9058 N   0  0  0  0  0  0  0  0  0  0  0  0
  124.2315  110.0720  109.2821 N   0  0  0  0  0  0  0  0  0  0  0  0
  124.6745  108.8650  108.8985 N   0  0  0  0  0  0  0  0  0  0  0  0
  123.0044  111.0046  111.1753 N   0  0  0  0  0  0  0  0  0  0  0  0
  122.1013  105.5562  106.3193 N   0  0  0  0  0  0  0  0  0  0  0  0
  123.6871  107.1841  106.6878 N   0  0  0  0  0  0  0  0  0  0  0  0
  124.4450  109.0014  105.4407 O   0  0  0  0  0  0  0  0  0  0  0  0
  122.4517  107.1542  104.7060 O   0  0  0  0  0  0  0  0  0  0  0  0
  124.4390  107.0409  109.9534 H   0  0  0  0  0  0  0  0  0  0  0  0
  125.9432  106.5060  108.0821 H   0  0  0  0  0  0  0  0  0  0  0  0
  127.1640  107.6836  108.5880 H   0  0  0  0  0  0  0  0  0  0  0  0
  126.9884  107.2589  106.8759 H   0  0  0  0  0  0  0  0  0  0  0  0
  126.0209  109.4788  107.3416 H   0  0  0  0  0  0  0  0  0  0  0  0
  122.4952  110.8340  112.0534 H   0  0  0  0  0  0  0  0  0  0  0  0
  122.9644  111.9682  110.8154 H   0  0  0  0  0  0  0  0  0  0  0  0
  122.3742  105.2140  107.2345 H   0  0  0  0  0  0  0  0  0  0  0  0
  121.3773  105.0663  105.8047 H   0  0  0  0  0  0  0  0  0  0  0  0
  123.8095  106.6837  107.5640 H   0  0  0  0  0  0  0  0  0  0  0  0
  1  7  2  0  0  0  0
  1  9  1  0  0  0  0
  2  7  1  0  0  0  0
  2  8  2  0  0  0  0
  2 10  1  0  0  0  0
  3  6  1  0  0  0  0
  3 12  1  0  0  0  0
  3 13  2  0  0  0  0
  4 11  1  0  0  0  0
  4 12  1  0  0  0  0
  4 14  2  0  0  0  0
  5  6  1  0  0  0  0
  6  9  1  0  0  0  0
  8  9  1  0  0  0  0
  1 15  1  0  0  0  0
  5 16  1  0  0  0  0
  5 17  1  0  0  0  0
  5 18  1  0  0  0  0
  6 19  1  0  0  0  0
 10 20  1  0  0  0  0
 10 21  1  0  0  0  0
 11 22  1  0  0  0  0
 11 23  1  0  0  0  0
 12 24  1  0  0  0  0
M  END
> <FRED Chemgauss4 score>
-8.001313

$$$$
C03830889	P56794640
  -OEChem-05122015313D

 25 25  0     1  0  0  0  0  0999 V2000
  126.4259  107.9133  107.1787 C   0  0  1  0  0  0  0  0  0  0  0  0
  126.7983  106.6210  107.9096 C   0  0  2  0  0  0  0  0  0  0  0  0
  125.5884  106.0181  108.6318 C   0  0  1  0  0  0  0  0  0  0  0  0
  124.3899  105.9074  107.6763 C   0  0  1  0  0  0  0  0  0  0  0  0
  125.2079  107.6599  106.2845 C   0  0  1  0  0  0  0  0  0  0  0  0
  123.1194  105.4714  108.3993 C   0  0  0  0  0  0  0  0  0  0  0  0
  126.1426  108.9993  108.1306 N   0  0  0  0  0  0  0  0  0  0  0  0
  124.1101  107.1680  107.0569 O   0  0  0  0  0  0  0  0  0  0  0  0
  127.8561  106.8713  108.8320 O   0  0  0  0  0  0  0  0  0  0  0  0
  125.9592  104.7244  109.1046 O   0  0  0  0  0  0  0  0  0  0  0  0
  124.8577  108.8644  105.6078 O   0  0  0  0  0  0  0  0  0  0  0  0
  122.8226  106.4243  109.4036 O   0  0  0  0  0  0  0  0  0  0  0  0
  127.2747  108.2520  106.5730 H   0  0  0  0  0  0  0  0  0  0  0  0
  127.1890  105.8967  107.1831 H   0  0  0  0  0  0  0  0  0  0  0  0
  125.3428  106.6287  109.5091 H   0  0  0  0  0  0  0  0  0  0  0  0
  124.5959  105.1658  106.8932 H   0  0  0  0  0  0  0  0  0  0  0  0
  125.4618  106.9192  105.5152 H   0  0  0  0  0  0  0  0  0  0  0  0
  123.2705  104.4959  108.8617 H   0  0  0  0  0  0  0  0  0  0  0  0
  122.2891  105.4199  107.6949 H   0  0  0  0  0  0  0  0  0  0  0  0
  125.5790  109.7509  107.8130 H   0  0  0  0  0  0  0  0  0  0  0  0
  126.6842  109.0331  108.9606 H   0  0  0  0  0  0  0  0  0  0  0  0
  128.6053  107.1981  108.3103 H   0  0  0  0  0  0  0  0  0  0  0  0
  126.2041  104.2058  108.3231 H   0  0  0  0  0  0  0  0  0  0  0  0
  124.0867  108.6576  105.0571 H   0  0  0  0  0  0  0  0  0  0  0  0
  122.0114  106.1260  109.8494 H   0  0  0  0  0  0  0  0  0  0  0  0
  1  2  1  0  0  0  0
  1  5  1  0  0  0  0
  1  7  1  0  0  0  0
  2  3  1  0  0  0  0
  2  9  1  0  0  0  0
  3  4  1  0  0  0  0
  3 10  1  0  0  0  0
  4  6  1  0  0  0  0
  4  8  1  0  0  0  0
  5  8  1  0  0  0  0
  5 11  1  0  0  0  0
  6 12  1  0  0  0  0
  1 13  1  0  0  0  0
  2 14  1  0  0  0  0
  3 15  1  0  0  0  0
  4 16  1  0  0  0  0
  5 17  1  0  0  0  0
  6 18  1  0  0  0  0
  6 19  1  0  0  0  0
  7 20  1  0  0  0  0
  7 21  1  0  0  0  0
  9 22  1  0  0  0  0
 10 23  1  0  0  0  0
 11 24  1  0  0  0  0
 12 25  1  0  0  0  0
M  END
> <FRED Chemgauss4 score>
-7.999517

$$$$
C88489803	P138410747
  -OEChem-05122015313D

 32 32  0     1  0  0  0  0  0999 V2000
  121.1910  109.7181  111.2754 C   0  0  0  0  0  0  0  0  0  0  0  0
  122.1777  109.3755  112.1890 C   0  0  0  0  0  0  0  0  0  0  0  0
  123.5367  108.5165  110.4777 C   0  0  0  0  0  0  0  0  0  0  0  0
  121.4013  109.4439  109.9274 C   0  0  0  0  0  0  0  0  0  0  0  0
  122.5852  108.8366  109.5197 C   0  0  0  0  0  0  0  0  0  0  0  0
  126.2114  106.6586  107.8370 C   0  0  0  0  0  0  0  0  0  0  0  0
  120.3318  109.8186  108.9509 C   0  0  0  0  0  0  0  0  0  0  0  0
  124.1391  104.4458  107.1734 C   0  0  0  0  0  0  0  0  0  0  0  0
  123.9476  105.9293  106.8914 C   0  0  0  0  0  0  0  0  0  0  0  0
  124.6995  106.8217  107.8855 C   0  0  2  0  0  0  0  0  0  0  0  0
  122.8280  108.5530  108.2169 N   0  5  0  0  0  0  0  0  0  0  0  0
  123.3083  108.7917  111.7691 N   0  3  0  0  0  0  0  0  0  0  0  0
  126.8303  106.3001  109.0038 N   0  0  0  0  0  0  0  0  0  0  0  0
  125.3113  109.2526  108.3567 O   0  0  0  0  0  0  0  0  0  0  0  0
  124.3721  108.6602  106.1482 O   0  0  0  0  0  0  0  0  0  0  0  0
  127.0813  106.8942  106.4255 S   0  0  0  0  0  0  0  0  0  0  0  0
  124.2916  108.5302  107.6007 S   0  0  0  0  0  0  0  0  0  0  0  0
  120.2758  110.1910  111.6173 H   0  0  0  0  0  0  0  0  0  0  0  0
  122.0999  109.5499  113.2532 H   0  0  0  0  0  0  0  0  0  0  0  0
  124.4882  108.0447  110.2689 H   0  0  0  0  0  0  0  0  0  0  0  0
  120.4958  110.8375  108.5841 H   0  0  0  0  0  0  0  0  0  0  0  0
  120.3226  109.1340  108.0949 H   0  0  0  0  0  0  0  0  0  0  0  0
  119.3397  109.7669  109.4142 H   0  0  0  0  0  0  0  0  0  0  0  0
  123.8462  104.1918  108.1966 H   0  0  0  0  0  0  0  0  0  0  0  0
  125.1920  104.1726  107.0501 H   0  0  0  0  0  0  0  0  0  0  0  0
  123.5485  103.8356  106.4828 H   0  0  0  0  0  0  0  0  0  0  0  0
  124.2513  106.1420  105.8599 H   0  0  0  0  0  0  0  0  0  0  0  0
  122.8749  106.1543  106.9440 H   0  0  0  0  0  0  0  0  0  0  0  0
  124.3300  106.6155  108.8978 H   0  0  0  0  0  0  0  0  0  0  0  0
  124.0208  108.5483  112.4569 H   0  0  0  0  0  0  0  0  0  0  0  0
  126.3215  106.1399  109.8666 H   0  0  0  0  0  0  0  0  0  0  0  0
  127.8356  106.1680  109.0408 H   0  0  0  0  0  0  0  0  0  0  0  0
  1  2  2  0  0  0  0
  1  4  1  0  0  0  0
  2 12  1  0  0  0  0
  3  5  1  0  0  0  0
  3 12  2  0  0  0  0
  4  5  2  0  0  0  0
  4  7  1  0  0  0  0
  5 11  1  0  0  0  0
  6 10  1  0  0  0  0
  6 13  1  0  0  0  0
  6 16  2  0  0  0  0
  8  9  1  0  0  0  0
  9 10  1  0  0  0  0
 10 17  1  0  0  0  0
 11 17  1  0  0  0  0
 14 17  2  0  0  0  0
 15 17  2  0  0  0  0
  1 18  1  0  0  0  0
  2 19  1  0  0  0  0
  3 20  1  0  0  0  0
  7 21  1  0  0  0  0
  7 22  1  0  0  0  0
  7 23  1  0  0  0  0
  8 24  1  0  0  0  0
  8 25  1  0  0  0  0
  8 26  1  0  0  0  0
  9 27  1  0  0  0  0
  9 28  1  0  0  0  0
 10 29  1  0  0  0  0
 12 30  1  0  0  0  0
 13 31  1  0  0  0  0
 13 32  1  0  0  0  0
M  CHG  2  11  -1  12   1
M  END
> <FRED Chemgauss4 score>
-7.995279

$$$$
C84132545	P131645543
  -OEChem-05122015313D

 28 29  0     1  0  0  0  0  0999 V2000
  125.0076  106.1295  108.3310 C   0  0  0  0  0  0  0  0  0  0  0  0
  125.9056  106.0790  107.2745 C   0  0  0  0  0  0  0  0  0  0  0  0
  126.1318  108.3968  107.0876 C   0  0  0  0  0  0  0  0  0  0  0  0
  125.2360  108.5554  108.1454 C   0  0  0  0  0  0  0  0  0  0  0  0
  124.6970  107.4191  108.7400 C   0  0  0  0  0  0  0  0  0  0  0  0
  123.9448  109.2711  109.6864 C   0  0  0  0  0  0  0  0  0  0  0  0
  121.8218  106.5700  109.9711 C   0  0  0  0  0  0  0  0  0  0  0  0
  123.9220  110.4503  111.9263 C   0  0  0  0  0  0  0  0  0  0  0  0
  123.0764  107.1145  110.6320 C   0  0  0  0  0  0  0  0  0  0  0  0
  123.1763  110.1232  110.6175 C   0  0  1  0  0  0  0  0  0  0  0  0
  126.4603  107.1526  106.6593 N   0  0  0  0  0  0  0  0  0  0  0  0
  124.7581  109.6966  108.7456 N   0  0  0  0  0  0  0  0  0  0  0  0
  123.8744  107.9060  109.7228 N   0  0  0  0  0  0  0  0  0  0  0  0
  122.7491  111.3811  110.0158 N   0  0  0  0  0  0  0  0  0  0  0  0
  124.5915  105.2431  108.7902 H   0  0  0  0  0  0  0  0  0  0  0  0
  126.2195  105.1192  106.8741 H   0  0  0  0  0  0  0  0  0  0  0  0
  126.5969  109.2264  106.5702 H   0  0  0  0  0  0  0  0  0  0  0  0
  121.1894  107.3807  109.5941 H   0  0  0  0  0  0  0  0  0  0  0  0
  121.2372  105.9869  110.6894 H   0  0  0  0  0  0  0  0  0  0  0  0
  122.0706  105.9201  109.1256 H   0  0  0  0  0  0  0  0  0  0  0  0
  124.8757  110.9439  111.7095 H   0  0  0  0  0  0  0  0  0  0  0  0
  123.3359  111.1134  112.5725 H   0  0  0  0  0  0  0  0  0  0  0  0
  124.1344  109.5436  112.5038 H   0  0  0  0  0  0  0  0  0  0  0  0
  123.7024  106.2964  111.0058 H   0  0  0  0  0  0  0  0  0  0  0  0
  122.8183  107.7449  111.4906 H   0  0  0  0  0  0  0  0  0  0  0  0
  122.2285  109.6294  110.9146 H   0  0  0  0  0  0  0  0  0  0  0  0
  122.5557  112.1508  110.6207 H   0  0  0  0  0  0  0  0  0  0  0  0
  122.4705  111.3741  109.0576 H   0  0  0  0  0  0  0  0  0  0  0  0
  1  2  2  0  0  0  0
  1  5  1  0  0  0  0
  2 11  1  0  0  0  0
  3  4  1  0  0  0  0
  3 11  2  0  0  0  0
  4  5  2  0  0  0  0
  4 12  1  0  0  0  0
  5 13  1  0  0  0  0
  6 10  1  0  0  0  0
  6 12  2  0  0  0  0
  6 13  1  0  0  0  0
  7  9  1  0  0  0  0
  8 10  1  0  0  0  0
  9 13  1  0  0  0  0
 10 14  1  0  0  0  0
  1 15  1  0  0  0  0
  2 16  1  0  0  0  0
  3 17  1  0  0  0  0
  7 18  1  0  0  0  0
  7 19  1  0  0  0  0
  7 20  1  0  0  0  0
  8 21  1  0  0  0  0
  8 22  1  0  0  0  0
  8 23  1  0  0  0  0
  9 24  1  0  0  0  0
  9 25  1  0  0  0  0
 10 26  1  0  0  0  0
 14 27  1  0  0  0  0
 14 28  1  0  0  0  0
M  END
> <FRED Chemgauss4 score>
-7.987916

$$$$
C71024810	P109615219
  -OEChem-05122015313D

 25 25  0     1  0  0  0  0  0999 V2000
  124.6329  105.0621  108.3711 C   0  0  0  0  0  0  0  0  0  0  0  0
  123.5312  105.8218  108.3469 C   0  0  0  0  0  0  0  0  0  0  0  0
  125.8887  105.6686  108.8674 C   0  0  0  0  0  0  0  0  0  0  0  0
  124.5497  107.6602  109.1812 C   0  0  0  0  0  0  0  0  0  0  0  0
  123.7732  108.4641  111.9596 C   0  0  0  0  0  0  0  0  0  0  0  0
  123.5641  110.8273  111.1766 C   0  0  0  0  0  0  0  0  0  0  0  0
  124.5745  109.0839  109.6400 C   0  0  2  0  0  0  0  0  0  0  0  0
  123.5354  109.3589  110.7381 C   0  0  0  0  0  0  0  0  0  0  0  0
  123.4478  107.1321  108.7452 N   0  0  0  0  0  0  0  0  0  0  0  0
  125.7530  106.9878  109.2569 N   0  0  0  0  0  0  0  0  0  0  0  0
  124.3097  109.8094  108.4259 N   0  0  0  0  0  0  0  0  0  0  0  0
  126.9315  105.0251  108.9126 O   0  0  0  0  0  0  0  0  0  0  0  0
  124.6366  104.0307  108.0428 H   0  0  0  0  0  0  0  0  0  0  0  0
  122.6017  105.3934  107.9855 H   0  0  0  0  0  0  0  0  0  0  0  0
  124.7648  108.6344  112.3910 H   0  0  0  0  0  0  0  0  0  0  0  0
  123.7149  107.4058  111.6826 H   0  0  0  0  0  0  0  0  0  0  0  0
  123.0267  108.6506  112.7392 H   0  0  0  0  0  0  0  0  0  0  0  0
  124.5475  111.1036  111.5722 H   0  0  0  0  0  0  0  0  0  0  0  0
  123.3327  111.4966  110.3418 H   0  0  0  0  0  0  0  0  0  0  0  0
  122.8206  111.0131  111.9594 H   0  0  0  0  0  0  0  0  0  0  0  0
  125.5883  109.3364  109.9670 H   0  0  0  0  0  0  0  0  0  0  0  0
  122.5298  109.1424  110.3529 H   0  0  0  0  0  0  0  0  0  0  0  0
  126.5678  107.4802  109.6115 H   0  0  0  0  0  0  0  0  0  0  0  0
  124.6302  109.4316  107.5490 H   0  0  0  0  0  0  0  0  0  0  0  0
  123.9965  110.7649  108.4841 H   0  0  0  0  0  0  0  0  0  0  0  0
  1  2  2  0  0  0  0
  1  3  1  0  0  0  0
  2  9  1  0  0  0  0
  3 10  1  0  0  0  0
  3 12  2  0  0  0  0
  4  7  1  0  0  0  0
  4  9  2  0  0  0  0
  4 10  1  0  0  0  0
  5  8  1  0  0  0  0
  6  8  1  0  0  0  0
  7  8  1  0  0  0  0
  7 11  1  0  0  0  0
  1 13  1  0  0  0  0
  2 14  1  0  0  0  0
  5 15  1  0  0  0  0
  5 16  1  0  0  0  0
  5 17  1  0  0  0  0
  6 18  1  0  0  0  0
  6 19  1  0  0  0  0
  6 20  1  0  0  0  0
  7 21  1  0  0  0  0
  8 22  1  0  0  0  0
 10 23  1  0  0  0  0
 11 24  1  0  0  0  0
 11 25  1  0  0  0  0
M  END
> <FRED Chemgauss4 score>
-7.987301

$$$$
C85169106	P133261548
  -OEChem-05122015313D

 29 30  0     1  0  0  0  0  0999 V2000
  125.6907  108.9654  108.1807 C   0  0  0  0  0  0  0  0  0  0  0  0
  123.8015  109.5828  108.9425 C   0  0  0  0  0  0  0  0  0  0  0  0
  124.8986  107.8418  108.1538 C   0  0  0  0  0  0  0  0  0  0  0  0
  125.4375  104.1088  108.3082 C   0  0  0  0  0  0  0  0  0  0  0  0
  124.3496  104.2632  107.2484 C   0  0  0  0  0  0  0  0  0  0  0  0
  125.1805  106.4214  107.7071 C   0  0  1  0  0  0  0  0  0  0  0  0
  125.6617  105.5176  108.8527 C   0  0  2  0  0  0  0  0  0  0  0  0
  122.5080  107.4456  108.8236 C   0  0  0  0  0  0  0  0  0  0  0  0
  123.4915  106.1201  105.9516 C   0  0  0  0  0  0  0  0  0  0  0  0
  125.0020  110.0456  108.6730 N   0  0  0  0  0  0  0  0  0  0  0  0
  123.6916  108.2528  108.6452 N   0  0  0  0  0  0  0  0  0  0  0  0
  123.9832  105.6849  107.2540 N   0  0  1  0  0  0  0  0  0  0  0  0
  127.0495  105.7393  109.2377 N   0  0  0  0  0  0  0  0  0  0  0  0
  126.7222  109.0539  107.8712 H   0  0  0  0  0  0  0  0  0  0  0  0
  122.9805  110.1568  109.3499 H   0  0  0  0  0  0  0  0  0  0  0  0
  125.1389  103.4213  109.1070 H   0  0  0  0  0  0  0  0  0  0  0  0
  126.3455  103.7038  107.8440 H   0  0  0  0  0  0  0  0  0  0  0  0
  124.7492  103.9409  106.2785 H   0  0  0  0  0  0  0  0  0  0  0  0
  123.4786  103.6408  107.4784 H   0  0  0  0  0  0  0  0  0  0  0  0
  125.9472  106.4494  106.8961 H   0  0  0  0  0  0  0  0  0  0  0  0
  125.0268  105.6550  109.7444 H   0  0  0  0  0  0  0  0  0  0  0  0
  121.9221  107.4979  107.9021 H   0  0  0  0  0  0  0  0  0  0  0  0
  122.7999  106.4127  109.0329 H   0  0  0  0  0  0  0  0  0  0  0  0
  121.9304  107.8326  109.6677 H   0  0  0  0  0  0  0  0  0  0  0  0
  123.2267  107.1801  105.9850 H   0  0  0  0  0  0  0  0  0  0  0  0
  122.6052  105.5447  105.6707 H   0  0  0  0  0  0  0  0  0  0  0  0
  124.2609  105.9733  105.1888 H   0  0  0  0  0  0  0  0  0  0  0  0
  127.5535  104.9813  109.6492 H   0  0  0  0  0  0  0  0  0  0  0  0
  127.3875  106.6789  109.2694 H   0  0  0  0  0  0  0  0  0  0  0  0
  1  3  2  0  0  0  0
  1 10  1  0  0  0  0
  2 10  2  0  0  0  0
  2 11  1  0  0  0  0
  3  6  1  0  0  0  0
  3 11  1  0  0  0  0
  4  5  1  0  0  0  0
  4  7  1  0  0  0  0
  5 12  1  0  0  0  0
  6  7  1  0  0  0  0
  6 12  1  0  0  0  0
  7 13  1  0  0  0  0
  8 11  1  0  0  0  0
  9 12  1  0  0  0  0
  1 14  1  0  0  0  0
  2 15  1  0  0  0  0
  4 16  1  0  0  0  0
  4 17  1  0  0  0  0
  5 18  1  0  0  0  0
  5 19  1  0  0  0  0
  6 20  1  0  0  0  0
  7 21  1  0  0  0  0
  8 22  1  0  0  0  0
  8 23  1  0  0  0  0
  8 24  1  0  0  0  0
  9 25  1  0  0  0  0
  9 26  1  0  0  0  0
  9 27  1  0  0  0  0
 13 28  1  0  0  0  0
 13 29  1  0  0  0  0
M  END
> <FRED Chemgauss4 score>
-7.986626

$$$$
C22113380	P59990568
  -OEChem-05122015313D

 15 14  0     1  0  0  0  0  0999 V2000
  123.6282  105.1906  107.9116 C   0  0  0  0  0  0  0  0  0  0  0  0
  125.3061  107.0679  108.1131 C   0  0  0  0  0  0  0  0  0  0  0  0
  122.6269  105.3887  108.7221 N   0  0  0  0  0  0  0  0  0  0  0  0
  125.9211  106.8807  109.2362 N   0  0  0  0  0  0  0  0  0  0  0  0
  123.9486  103.9468  107.4278 N   0  0  0  0  0  0  0  0  0  0  0  0
  124.4715  106.1882  107.4499 N   0  0  0  0  0  0  0  0  0  0  0  0
  124.5272  109.5880  107.8321 O   0  0  0  0  0  0  0  0  0  0  0  0
  126.9969  108.9790  108.0248 O   0  0  0  0  0  0  0  0  0  0  0  0
  125.5953  108.6831  107.2930 S   0  0  1  0  0  0  0  0  0  0  0  0
  122.5807  106.3885  108.9478 H   0  0  0  0  0  0  0  0  0  0  0  0
  125.6922  105.9482  109.5955 H   0  0  0  0  0  0  0  0  0  0  0  0
  123.4111  103.1265  107.6867 H   0  0  0  0  0  0  0  0  0  0  0  0
  124.7306  103.8066  106.7976 H   0  0  0  0  0  0  0  0  0  0  0  0
  124.4706  106.2874  106.4361 H   0  0  0  0  0  0  0  0  0  0  0  0
  127.2717  109.9140  107.8755 H   0  0  0  0  0  0  0  0  0  0  0  0
  1  3  2  0  0  0  0
  1  5  1  0  0  0  0
  1  6  1  0  0  0  0
  2  4  2  0  0  0  0
  2  6  1  0  0  0  0
  2  9  1  0  0  0  0
  7  9  2  0  0  0  0
  8  9  1  0  0  0  0
  3 10  1  0  0  0  0
  4 11  1  0  0  0  0
  5 12  1  0  0  0  0
  5 13  1  0  0  0  0
  6 14  1  0  0  0  0
  8 15  1  0  0  0  0
M  END
> <FRED Chemgauss4 score>
-7.983137

$$$$
C85254231	P133394284
  -OEChem-05122015313D

 28 28  0     1  0  0  0  0  0999 V2000
  125.8812  105.9346  106.8807 C   0  0  0  0  0  0  0  0  0  0  0  0
  125.2705  103.8572  107.2794 C   0  0  0  0  0  0  0  0  0  0  0  0
  124.9042  106.0590  108.0422 C   0  0  0  0  0  0  0  0  0  0  0  0
  124.3883  104.6441  108.2009 C   0  0  1  0  0  0  0  0  0  0  0  0
  120.4891  105.7788  106.5559 C   0  0  0  0  0  0  0  0  0  0  0  0
  122.7842  104.6805  106.2936 C   0  0  0  0  0  0  0  0  0  0  0  0
  121.1073  104.6779  104.3971 C   0  0  0  0  0  0  0  0  0  0  0  0
  121.2934  104.6395  105.9234 C   0  0  2  0  0  0  0  0  0  0  0  0
  126.0585  104.6948  106.5246 N   0  0  0  0  0  0  0  0  0  0  0  0
  122.9766  104.5558  107.7613 N   0  3  0  0  0  0  0  0  0  0  0  0
  126.4056  106.9654  106.4178 O   0  5  0  0  0  0  0  0  0  0  0  0
  125.2422  102.6357  107.1940 O   0  0  0  0  0  0  0  0  0  0  0  0
  121.5372  105.9301  103.8744 O   0  0  0  0  0  0  0  0  0  0  0  0
  120.7345  103.4100  106.3991 O   0  0  0  0  0  0  0  0  0  0  0  0
  125.4549  106.3741  108.9367 H   0  0  0  0  0  0  0  0  0  0  0  0
  124.1217  106.7966  107.8328 H   0  0  0  0  0  0  0  0  0  0  0  0
  124.4477  104.2823  109.2310 H   0  0  0  0  0  0  0  0  0  0  0  0
  119.4307  105.7292  106.2784 H   0  0  0  0  0  0  0  0  0  0  0  0
  120.8846  106.7580  106.2671 H   0  0  0  0  0  0  0  0  0  0  0  0
  120.5119  105.7077  107.6499 H   0  0  0  0  0  0  0  0  0  0  0  0
  123.3452  103.8606  105.8344 H   0  0  0  0  0  0  0  0  0  0  0  0
  123.2441  105.6361  106.0226 H   0  0  0  0  0  0  0  0  0  0  0  0
  120.0509  104.5590  104.1325 H   0  0  0  0  0  0  0  0  0  0  0  0
  121.6889  103.8872  103.9111 H   0  0  0  0  0  0  0  0  0  0  0  0
  122.5810  103.6599  108.0796 H   0  0  0  0  0  0  0  0  0  0  0  0
  122.4300  105.2868  108.2379 H   0  0  0  0  0  0  0  0  0  0  0  0
  121.3963  105.8941  102.9151 H   0  0  0  0  0  0  0  0  0  0  0  0
  120.8246  103.4279  107.3626 H   0  0  0  0  0  0  0  0  0  0  0  0
  1  3  1  0  0  0  0
  1  9  2  0  0  0  0
  1 11  1  0  0  0  0
  2  4  1  0  0  0  0
  2  9  1  0  0  0  0
  2 12  2  0  0  0  0
  3  4  1  0  0  0  0
  4 10  1  0  0  0  0
  5  8  1  0  0  0  0
  6  8  1  0  0  0  0
  6 10  1  0  0  0  0
  7  8  1  0  0  0  0
  7 13  1  0  0  0  0
  8 14  1  0  0  0  0
  3 15  1  0  0  0  0
  3 16  1  0  0  0  0
  4 17  1  0  0  0  0
  5 18  1  0  0  0  0
  5 19  1  0  0  0  0
  5 20  1  0  0  0  0
  6 21  1  0  0  0  0
  6 22  1  0  0  0  0
  7 23  1  0  0  0  0
  7 24  1  0  0  0  0
 10 25  1  0  0  0  0
 10 26  1  0  0  0  0
 13 27  1  0  0  0  0
 14 28  1  0  0  0  0
M  CHG  2  10   1  11  -1
M  END
> <FRED Chemgauss4 score>
-7.982790

$$$$
C40545676	P61563278
  -OEChem-05122015313D

 25 25  0     0  0  0  0  0  0999 V2000
  124.5048  106.4224  108.6175 C   0  0  0  0  0  0  0  0  0  0  0  0
  126.3435  106.3977  107.0505 C   0  0  0  0  0  0  0  0  0  0  0  0
  124.5462  107.8164  108.6441 C   0  0  0  0  0  0  0  0  0  0  0  0
  126.3849  107.7917  107.0770 C   0  0  0  0  0  0  0  0  0  0  0  0
  125.4862  108.5011  107.8739 C   0  0  0  0  0  0  0  0  0  0  0  0
  125.4034  105.7131  107.8207 C   0  0  0  0  0  0  0  0  0  0  0  0
  123.5961  108.5335  109.4844 C   0  0  0  0  0  0  0  0  0  0  0  0
  123.4952  108.4304  110.8278 C   0  0  0  0  0  0  0  0  0  0  0  0
  128.5706  108.7168  106.9263 C   0  0  0  0  0  0  0  0  0  0  0  0
  122.5121  109.1999  111.6504 C   0  0  0  0  0  0  0  0  0  0  0  0
  125.5382  109.8647  107.8903 O   0  0  0  0  0  0  0  0  0  0  0  0
  121.6912  108.2811  112.3581 O   0  0  0  0  0  0  0  0  0  0  0  0
  127.3080  108.4475  106.3199 O   0  0  0  0  0  0  0  0  0  0  0  0
  125.3480  103.8242  107.7841 Br  0  0  0  0  0  0  0  0  0  0  0  0
  123.7711  105.8880  109.2184 H   0  0  0  0  0  0  0  0  0  0  0  0
  127.0483  105.8537  106.4260 H   0  0  0  0  0  0  0  0  0  0  0  0
  122.9220  109.2282  108.9733 H   0  0  0  0  0  0  0  0  0  0  0  0
  124.1647  107.7737  111.3767 H   0  0  0  0  0  0  0  0  0  0  0  0
  129.2122  109.2432  106.2154 H   0  0  0  0  0  0  0  0  0  0  0  0
  129.0384  107.7765  107.2287 H   0  0  0  0  0  0  0  0  0  0  0  0
  128.4153  109.3440  107.8073 H   0  0  0  0  0  0  0  0  0  0  0  0
  123.0444  109.8232  112.3757 H   0  0  0  0  0  0  0  0  0  0  0  0
  121.8699  109.8410  111.0382 H   0  0  0  0  0  0  0  0  0  0  0  0
  126.2433  110.1778  107.3036 H   0  0  0  0  0  0  0  0  0  0  0  0
  121.0658  108.8087  112.8810 H   0  0  0  0  0  0  0  0  0  0  0  0
  1  3  2  0  0  0  0
  1  6  1  0  0  0  0
  2  4  1  0  0  0  0
  2  6  2  0  0  0  0
  3  5  1  0  0  0  0
  3  7  1  0  0  0  0
  4  5  2  0  0  0  0
  4 13  1  0  0  0  0
  5 11  1  0  0  0  0
  6 14  1  0  0  0  0
  7  8  2  0  0  0  0
  8 10  1  0  0  0  0
  9 13  1  0  0  0  0
 10 12  1  0  0  0  0
  1 15  1  0  0  0  0
  2 16  1  0  0  0  0
  7 17  1  0  0  0  0
  8 18  1  0  0  0  0
  9 19  1  0  0  0  0
  9 20  1  0  0  0  0
  9 21  1  0  0  0  0
 10 22  1  0  0  0  0
 10 23  1  0  0  0  0
 11 24  1  0  0  0  0
 12 25  1  0  0  0  0
M  END
> <FRED Chemgauss4 score>
-7.970927

$$$$
C95660646	P150432542
  -OEChem-05122015313D

 27 27  0     1  0  0  0  0  0999 V2000
  126.6315  105.8356  107.5267 C   0  0  0  0  0  0  0  0  0  0  0  0
  126.6364  107.2142  107.8474 C   0  0  0  0  0  0  0  0  0  0  0  0
  125.3338  105.5259  107.1923 C   0  0  0  0  0  0  0  0  0  0  0  0
  125.3413  107.6486  107.6857 C   0  0  0  0  0  0  0  0  0  0  0  0
  125.5401  103.0353  106.9898 C   0  0  0  0  0  0  0  0  0  0  0  0
  123.0072  108.1642  109.6464 C   0  0  0  0  0  0  0  0  0  0  0  0
  124.6730  104.2826  106.7705 C   0  0  0  0  0  0  0  0  0  0  0  0
  124.6673  109.0022  107.8629 C   0  0  1  0  0  0  0  0  0  0  0  0
  124.1015  109.1699  109.2943 C   0  0  1  0  0  0  0  0  0  0  0  0
  125.5972  110.0830  107.5170 N   0  0  0  0  0  0  0  0  0  0  0  0
  124.5410  106.6255  107.2865 O   0  0  0  0  0  0  0  0  0  0  0  0
  123.5317  110.4772  109.4220 O   0  0  0  0  0  0  0  0  0  0  0  0
  127.4706  105.1548  107.5387 H   0  0  0  0  0  0  0  0  0  0  0  0
  127.4807  107.8134  108.1571 H   0  0  0  0  0  0  0  0  0  0  0  0
  126.5027  103.1393  106.4777 H   0  0  0  0  0  0  0  0  0  0  0  0
  125.0493  102.1340  106.6093 H   0  0  0  0  0  0  0  0  0  0  0  0
  125.7411  102.8875  108.0563 H   0  0  0  0  0  0  0  0  0  0  0  0
  122.1812  108.1919  108.9304 H   0  0  0  0  0  0  0  0  0  0  0  0
  122.6104  108.3524  110.6501 H   0  0  0  0  0  0  0  0  0  0  0  0
  123.4147  107.1470  109.6562 H   0  0  0  0  0  0  0  0  0  0  0  0
  123.7124  104.1321  107.3053 H   0  0  0  0  0  0  0  0  0  0  0  0
  124.3868  104.3186  105.6990 H   0  0  0  0  0  0  0  0  0  0  0  0
  123.8263  109.0569  107.1588 H   0  0  0  0  0  0  0  0  0  0  0  0
  124.8971  109.0949  110.0443 H   0  0  0  0  0  0  0  0  0  0  0  0
  125.4066  110.9896  107.8766 H   0  0  0  0  0  0  0  0  0  0  0  0
  126.2496  109.9151  106.7863 H   0  0  0  0  0  0  0  0  0  0  0  0
  123.2455  110.5578  110.3431 H   0  0  0  0  0  0  0  0  0  0  0  0
  1  2  1  0  0  0  0
  1  3  2  0  0  0  0
  2  4  2  0  0  0  0
  3  7  1  0  0  0  0
  3 11  1  0  0  0  0
  4  8  1  0  0  0  0
  4 11  1  0  0  0  0
  5  7  1  0  0  0  0
  6  9  1  0  0  0  0
  8  9  1  0  0  0  0
  8 10  1  0  0  0  0
  9 12  1  0  0  0  0
  1 13  1  0  0  0  0
  2 14  1  0  0  0  0
  5 15  1  0  0  0  0
  5 16  1  0  0  0  0
  5 17  1  0  0  0  0
  6 18  1  0  0  0  0
  6 19  1  0  0  0  0
  6 20  1  0  0  0  0
  7 21  1  0  0  0  0
  7 22  1  0  0  0  0
  8 23  1  0  0  0  0
  9 24  1  0  0  0  0
 10 25  1  0  0  0  0
 10 26  1  0  0  0  0
 12 27  1  0  0  0  0
M  END
> <FRED Chemgauss4 score>
-7.967765

$$$$
C20216890	P30117378
  -OEChem-05122015313D

 36 36  0     1  0  0  0  0  0999 V2000
  123.0648  107.4842  106.3306 C   0  0  0  0  0  0  0  0  0  0  0  0
  123.0111  104.7452  106.8577 C   0  0  0  0  0  0  0  0  0  0  0  0
  124.2257  106.8307  106.7439 C   0  0  0  0  0  0  0  0  0  0  0  0
  121.8770  106.7683  106.1810 C   0  0  0  0  0  0  0  0  0  0  0  0
  124.1989  105.4612  107.0074 C   0  0  0  0  0  0  0  0  0  0  0  0
  121.8502  105.3988  106.4446 C   0  0  0  0  0  0  0  0  0  0  0  0
  124.5246  108.4238  109.1472 C   0  0  0  0  0  0  0  0  0  0  0  0
  119.9165  107.9649  106.7979 C   0  0  0  0  0  0  0  0  0  0  0  0
  125.5653  104.7349  108.8132 C   0  0  0  0  0  0  0  0  0  0  0  0
  120.4465  104.1105  105.0212 C   0  0  0  0  0  0  0  0  0  0  0  0
  125.5067  107.6249  106.9023 C   0  0  2  0  0  0  0  0  0  0  0  0
  125.3729  108.7724  107.9249 C   0  0  1  0  0  0  0  0  0  0  0  0
  124.8181  109.9386  107.2693 N   0  0  0  0  0  0  0  0  0  0  0  0
  125.9423  108.1296  105.6401 O   0  0  0  0  0  0  0  0  0  0  0  0
  120.7491  107.4172  105.7777 O   0  0  0  0  0  0  0  0  0  0  0  0
  125.3244  104.8069  107.4095 O   0  0  0  0  0  0  0  0  0  0  0  0
  120.6971  104.6878  106.3011 O   0  0  0  0  0  0  0  0  0  0  0  0
  123.0817  108.5519  106.1258 H   0  0  0  0  0  0  0  0  0  0  0  0
  122.9902  103.6780  107.0637 H   0  0  0  0  0  0  0  0  0  0  0  0
  123.5171  108.1101  108.8598 H   0  0  0  0  0  0  0  0  0  0  0  0
  124.4242  109.2953  109.8043 H   0  0  0  0  0  0  0  0  0  0  0  0
  124.9798  107.6240  109.7410 H   0  0  0  0  0  0  0  0  0  0  0  0
  119.0529  108.4541  106.3409 H   0  0  0  0  0  0  0  0  0  0  0  0
  120.4878  108.6865  107.3873 H   0  0  0  0  0  0  0  0  0  0  0  0
  119.5729  107.1570  107.4482 H   0  0  0  0  0  0  0  0  0  0  0  0
  126.4933  104.1879  108.9968 H   0  0  0  0  0  0  0  0  0  0  0  0
  124.7289  104.2291  109.3019 H   0  0  0  0  0  0  0  0  0  0  0  0
  125.6579  105.7486  109.2104 H   0  0  0  0  0  0  0  0  0  0  0  0
  119.4959  103.5719  105.0434 H   0  0  0  0  0  0  0  0  0  0  0  0
  121.2591  103.4266  104.7636 H   0  0  0  0  0  0  0  0  0  0  0  0
  120.3937  104.9077  104.2759 H   0  0  0  0  0  0  0  0  0  0  0  0
  126.2889  106.9276  107.2312 H   0  0  0  0  0  0  0  0  0  0  0  0
  126.3682  109.0789  108.2690 H   0  0  0  0  0  0  0  0  0  0  0  0
  125.0632  110.1152  106.3132 H   0  0  0  0  0  0  0  0  0  0  0  0
  124.3762  110.6416  107.8313 H   0  0  0  0  0  0  0  0  0  0  0  0
  126.7587  108.6235  105.8095 H   0  0  0  0  0  0  0  0  0  0  0  0
  1  3  1  0  0  0  0
  1  4  2  0  0  0  0
  2  5  1  0  0  0  0
  2  6  2  0  0  0  0
  3  5  2  0  0  0  0
  3 11  1  0  0  0  0
  4  6  1  0  0  0  0
  4 15  1  0  0  0  0
  5 16  1  0  0  0  0
  6 17  1  0  0  0  0
  7 12  1  0  0  0  0
  8 15  1  0  0  0  0
  9 16  1  0  0  0  0
 10 17  1  0  0  0  0
 11 12  1  0  0  0  0
 11 14  1  0  0  0  0
 12 13  1  0  0  0  0
  1 18  1  0  0  0  0
  2 19  1  0  0  0  0
  7 20  1  0  0  0  0
  7 21  1  0  0  0  0
  7 22  1  0  0  0  0
  8 23  1  0  0  0  0
  8 24  1  0  0  0  0
  8 25  1  0  0  0  0
  9 26  1  0  0  0  0
  9 27  1  0  0  0  0
  9 28  1  0  0  0  0
 10 29  1  0  0  0  0
 10 30  1  0  0  0  0
 10 31  1  0  0  0  0
 11 32  1  0  0  0  0
 12 33  1  0  0  0  0
 13 34  1  0  0  0  0
 13 35  1  0  0  0  0
 14 36  1  0  0  0  0
M  END
> <FRED Chemgauss4 score>
-7.963286

$$$$
C03881806	P04582166
  -OEChem-05122015313D

 22 22  0     1  0  0  0  0  0999 V2000
  125.5459  105.6992  108.1526 C   0  0  0  0  0  0  0  0  0  0  0  0
  125.8046  106.2715  106.7817 C   0  0  1  0  0  0  0  0  0  0  0  0
  124.9900  107.5165  106.4752 C   0  0  1  0  0  0  0  0  0  0  0  0
  125.0498  108.5216  107.6165 C   0  0  1  0  0  0  0  0  0  0  0  0
  124.5805  107.8620  108.9094 C   0  0  1  0  0  0  0  0  0  0  0  0
  123.0668  107.6838  108.9757 C   0  0  0  0  0  0  0  0  0  0  0  0
  125.7620  104.5136  108.3963 O   0  0  0  0  0  0  0  0  0  0  0  0
  125.1860  106.5606  109.1338 O   0  0  0  0  0  0  0  0  0  0  0  0
  127.1977  106.5515  106.7392 O   0  0  0  0  0  0  0  0  0  0  0  0
  125.4323  108.1166  105.2622 O   0  0  0  0  0  0  0  0  0  0  0  0
  126.3873  108.9789  107.8208 O   0  0  0  0  0  0  0  0  0  0  0  0
  122.6942  107.5033  110.3294 O   0  0  0  0  0  0  0  0  0  0  0  0
  125.6034  105.4857  106.0633 H   0  0  0  0  0  0  0  0  0  0  0  0
  123.9196  107.2300  106.2745 H   0  0  0  0  0  0  0  0  0  0  0  0
  124.4268  109.3850  107.3839 H   0  0  0  0  0  0  0  0  0  0  0  0
  124.8666  108.4908  109.7771 H   0  0  0  0  0  0  0  0  0  0  0  0
  122.7708  106.8073  108.3999 H   0  0  0  0  0  0  0  0  0  0  0  0
  122.5710  108.5697  108.5798 H   0  0  0  0  0  0  0  0  0  0  0  0
  127.6612  105.7093  106.8831 H   0  0  0  0  0  0  0  0  0  0  0  0
  124.8765  108.8984  105.1261 H   0  0  0  0  0  0  0  0  0  0  0  0
  126.3565  109.6118  108.5559 H   0  0  0  0  0  0  0  0  0  0  0  0
  121.7282  107.3920  110.3476 H   0  0  0  0  0  0  0  0  0  0  0  0
  1  2  1  0  0  0  0
  1  7  2  0  0  0  0
  1  8  1  0  0  0  0
  2  3  1  0  0  0  0
  2  9  1  0  0  0  0
  3  4  1  0  0  0  0
  3 10  1  0  0  0  0
  4  5  1  0  0  0  0
  4 11  1  0  0  0  0
  5  6  1  0  0  0  0
  5  8  1  0  0  0  0
  6 12  1  0  0  0  0
  2 13  1  0  0  0  0
  3 14  1  0  0  0  0
  4 15  1  0  0  0  0
  5 16  1  0  0  0  0
  6 17  1  0  0  0  0
  6 18  1  0  0  0  0
  9 19  1  0  0  0  0
 10 20  1  0  0  0  0
 11 21  1  0  0  0  0
 12 22  1  0  0  0  0
M  END
> <FRED Chemgauss4 score>
-7.961641

$$$$
C34519122	P151017257
  -OEChem-05122015313D

 24 24  0     1  0  0  0  0  0999 V2000
  124.6870  106.2466  106.2837 C   0  0  1  0  0  0  0  0  0  0  0  0
  125.8313  107.2332  106.3901 C   0  0  2  0  0  0  0  0  0  0  0  0
  124.6514  105.6466  107.6823 C   0  0  1  0  0  0  0  0  0  0  0  0
  125.7199  107.7433  107.8304 C   0  0  1  0  0  0  0  0  0  0  0  0
  125.6038  104.4709  107.8577 C   0  0  0  0  0  0  0  0  0  0  0  0
  124.9027  109.0209  108.0044 C   0  0  0  0  0  0  0  0  0  0  0  0
  125.0649  106.6988  108.5797 O   0  0  0  0  0  0  0  0  0  0  0  0
  123.4529  106.9203  106.0528 O   0  0  0  0  0  0  0  0  0  0  0  0
  125.7630  108.2465  105.4076 O   0  0  0  0  0  0  0  0  0  0  0  0
  127.0140  108.0131  108.3676 O   0  0  0  0  0  0  0  0  0  0  0  0
  125.2406  103.4479  106.9452 O   0  0  0  0  0  0  0  0  0  0  0  0
  125.5132  110.0554  107.2531 O   0  0  0  0  0  0  0  0  0  0  0  0
  124.8498  105.5211  105.5279 H   0  0  0  0  0  0  0  0  0  0  0  0
  126.8217  106.6849  106.2151 H   0  0  0  0  0  0  0  0  0  0  0  0
  123.6482  105.3397  107.9646 H   0  0  0  0  0  0  0  0  0  0  0  0
  125.5388  104.0793  108.8754 H   0  0  0  0  0  0  0  0  0  0  0  0
  126.6310  104.7814  107.6538 H   0  0  0  0  0  0  0  0  0  0  0  0
  124.8771  109.3090  109.0563 H   0  0  0  0  0  0  0  0  0  0  0  0
  123.8851  108.8674  107.6424 H   0  0  0  0  0  0  0  0  0  0  0  0
  122.7590  106.2401  105.9937 H   0  0  0  0  0  0  0  0  0  0  0  0
  126.5279  108.8255  105.5521 H   0  0  0  0  0  0  0  0  0  0  0  0
  127.4993  107.1755  108.3400 H   0  0  0  0  0  0  0  0  0  0  0  0
  125.8633  102.7140  107.0799 H   0  0  0  0  0  0  0  0  0  0  0  0
  124.9753  110.8552  107.3805 H   0  0  0  0  0  0  0  0  0  0  0  0
  1  2  1  0  0  0  0
  1  3  1  0  0  0  0
  1  8  1  0  0  0  0
  2  4  1  0  0  0  0
  2  9  1  0  0  0  0
  3  5  1  0  0  0  0
  3  7  1  0  0  0  0
  4  6  1  0  0  0  0
  4  7  1  0  0  0  0
  4 10  1  0  0  0  0
  5 11  1  0  0  0  0
  6 12  1  0  0  0  0
  1 13  1  0  0  0  0
  2 14  1  0  0  0  0
  3 15  1  0  0  0  0
  5 16  1  0  0  0  0
  5 17  1  0  0  0  0
  6 18  1  0  0  0  0
  6 19  1  0  0  0  0
  8 20  1  0  0  0  0
  9 21  1  0  0  0  0
 10 22  1  0  0  0  0
 11 23  1  0  0  0  0
 12 24  1  0  0  0  0
M  END
> <FRED Chemgauss4 score>
-7.959362

$$$$
C16939872	P46811267
  -OEChem-05122015313D

 16 17  0     0  0  0  0  0  0999 V2000
  123.2607  109.1710  109.7826 C   0  0  0  0  0  0  0  0  0  0  0  0
  124.8056  107.5304  108.3043 C   0  0  0  0  0  0  0  0  0  0  0  0
  124.9102  108.8619  108.3127 C   0  0  0  0  0  0  0  0  0  0  0  0
  123.7906  106.8836  109.1459 C   0  0  0  0  0  0  0  0  0  0  0  0
  126.4997  108.1239  106.8624 C   0  0  0  0  0  0  0  0  0  0  0  0
  125.7892  106.8824  107.3931 C   0  0  0  0  0  0  0  0  0  0  0  0
  124.1575  109.7392  109.0391 N   0  0  0  0  0  0  0  0  0  0  0  0
  123.0445  107.8058  109.8688 N   0  0  0  0  0  0  0  0  0  0  0  0
  125.9074  109.2333  107.4656 N   0  0  0  0  0  0  0  0  0  0  0  0
  123.6471  105.6678  109.1815 O   0  0  0  0  0  0  0  0  0  0  0  0
  127.4175  108.1202  106.0563 O   0  0  0  0  0  0  0  0  0  0  0  0
  122.5831  109.7580  110.4212 H   0  0  0  0  0  0  0  0  0  0  0  0
  126.4954  106.2460  107.9311 H   0  0  0  0  0  0  0  0  0  0  0  0
  125.3044  106.3473  106.5735 H   0  0  0  0  0  0  0  0  0  0  0  0
  122.3131  107.4618  110.4842 H   0  0  0  0  0  0  0  0  0  0  0  0
  126.1729  110.1974  107.3048 H   0  0  0  0  0  0  0  0  0  0  0  0
  1  7  2  0  0  0  0
  1  8  1  0  0  0  0
  2  3  2  0  0  0  0
  2  4  1  0  0  0  0
  2  6  1  0  0  0  0
  3  7  1  0  0  0  0
  3  9  1  0  0  0  0
  4  8  1  0  0  0  0
  4 10  2  0  0  0  0
  5  6  1  0  0  0  0
  5  9  1  0  0  0  0
  5 11  2  0  0  0  0
  1 12  1  0  0  0  0
  6 13  1  0  0  0  0
  6 14  1  0  0  0  0
  8 15  1  0  0  0  0
  9 16  1  0  0  0  0
M  END
> <FRED Chemgauss4 score>
-7.958085

$$$$
C72198462	P112155832
  -OEChem-05122015313D

 30 30  0     1  0  0  0  0  0999 V2000
  122.0060  106.7191  105.0050 C   0  0  0  0  0  0  0  0  0  0  0  0
  123.8279  105.1504  108.4755 C   0  0  0  0  0  0  0  0  0  0  0  0
  122.5029  104.8255  108.1849 C   0  0  0  0  0  0  0  0  0  0  0  0
  122.6095  106.1786  106.1863 C   0  0  0  0  0  0  0  0  0  0  0  0
  124.5436  105.9895  107.6216 C   0  0  0  0  0  0  0  0  0  0  0  0
  121.8937  105.3396  107.0403 C   0  0  0  0  0  0  0  0  0  0  0  0
  123.9344  106.5036  106.4769 C   0  0  0  0  0  0  0  0  0  0  0  0
  120.1753  103.6069  106.5872 C   0  0  0  0  0  0  0  0  0  0  0  0
  119.5326  106.0203  106.6911 C   0  0  0  0  0  0  0  0  0  0  0  0
  126.4675  105.6971  109.2426 C   0  0  0  0  0  0  0  0  0  0  0  0
  125.9602  106.3344  107.9362 C   0  0  2  0  0  0  0  0  0  0  0  0
  121.5170  107.1570  104.0480 N   0  0  0  0  0  0  0  0  0  0  0  0
  126.1660  107.7737  108.0007 N   0  0  0  0  0  0  0  0  0  0  0  0
  120.5497  104.9931  106.7713 N   0  0  0  0  0  0  0  0  0  0  0  0
  127.8112  106.0984  109.4896 O   0  0  0  0  0  0  0  0  0  0  0  0
  124.6297  107.3104  105.6600 F   0  0  0  0  0  0  0  0  0  0  0  0
  124.2943  104.7452  109.3696 H   0  0  0  0  0  0  0  0  0  0  0  0
  121.9554  104.1706  108.8582 H   0  0  0  0  0  0  0  0  0  0  0  0
  119.1030  103.5304  106.3895 H   0  0  0  0  0  0  0  0  0  0  0  0
  120.4096  103.0296  107.4858 H   0  0  0  0  0  0  0  0  0  0  0  0
  120.7205  103.1771  105.7426 H   0  0  0  0  0  0  0  0  0  0  0  0
  118.5598  105.5699  106.4773 H   0  0  0  0  0  0  0  0  0  0  0  0
  119.7742  106.7302  105.8954 H   0  0  0  0  0  0  0  0  0  0  0  0
  119.4685  106.5634  107.6378 H   0  0  0  0  0  0  0  0  0  0  0  0
  125.8607  106.0312  110.0914 H   0  0  0  0  0  0  0  0  0  0  0  0
  126.4380  104.6029  109.1990 H   0  0  0  0  0  0  0  0  0  0  0  0
  126.6294  106.0016  107.1225 H   0  0  0  0  0  0  0  0  0  0  0  0
  125.6566  108.3543  107.3667 H   0  0  0  0  0  0  0  0  0  0  0  0
  126.9452  108.1181  108.5231 H   0  0  0  0  0  0  0  0  0  0  0  0
  128.0802  105.6720  110.3184 H   0  0  0  0  0  0  0  0  0  0  0  0
  1  4  1  0  0  0  0
  1 12  3  0  0  0  0
  2  3  2  0  0  0  0
  2  5  1  0  0  0  0
  3  6  1  0  0  0  0
  4  6  2  0  0  0  0
  4  7  1  0  0  0  0
  5  7  2  0  0  0  0
  5 11  1  0  0  0  0
  6 14  1  0  0  0  0
  7 16  1  0  0  0  0
  8 14  1  0  0  0  0
  9 14  1  0  0  0  0
 10 11  1  0  0  0  0
 10 15  1  0  0  0  0
 11 13  1  0  0  0  0
  2 17  1  0  0  0  0
  3 18  1  0  0  0  0
  8 19  1  0  0  0  0
  8 20  1  0  0  0  0
  8 21  1  0  0  0  0
  9 22  1  0  0  0  0
  9 23  1  0  0  0  0
  9 24  1  0  0  0  0
 10 25  1  0  0  0  0
 10 26  1  0  0  0  0
 11 27  1  0  0  0  0
 13 28  1  0  0  0  0
 13 29  1  0  0  0  0
 15 30  1  0  0  0  0
M  END
> <FRED Chemgauss4 score>
-7.956468

$$$$
C43115293	P65342176
  -OEChem-05122015313D

 30 31  0     1  0  0  0  0  0999 V2000
  117.2457  105.4539  103.0753 C   0  0  0  0  0  0  0  0  0  0  0  0
  116.0151  105.0430  102.6124 C   0  0  0  0  0  0  0  0  0  0  0  0
  115.8422  106.2540  104.7463 C   0  0  0  0  0  0  0  0  0  0  0  0
  117.1457  106.1553  104.3115 C   0  0  0  0  0  0  0  0  0  0  0  0
  121.3376  105.1492  106.6885 C   0  0  0  0  0  0  0  0  0  0  0  0
  120.3883  106.2272  106.2051 C   0  0  0  0  0  0  0  0  0  0  0  0
  119.4607  103.5134  106.5664 C   0  0  0  0  0  0  0  0  0  0  0  0
  118.5394  104.6976  106.3356 C   0  0  0  0  0  0  0  0  0  0  0  0
  119.1106  107.7812  104.2519 C   0  0  0  0  0  0  0  0  0  0  0  0
  118.3375  106.7270  105.0597 C   0  0  2  0  0  0  0  0  0  0  0  0
  120.7934  103.9147  106.9618 N   0  0  0  0  0  0  0  0  0  0  0  0
  119.2438  105.6599  105.4848 N   0  0  1  0  0  0  0  0  0  0  0  0
  119.9756  107.1828  103.2688 N   0  0  0  0  0  0  0  0  0  0  0  0
  122.5230  105.4091  106.9047 O   0  0  0  0  0  0  0  0  0  0  0  0
  114.7461  105.5027  103.6664 S   0  0  0  0  0  0  0  0  0  0  0  0
  118.1713  105.2588  102.5485 H   0  0  0  0  0  0  0  0  0  0  0  0
  115.8003  104.4956  101.7056 H   0  0  0  0  0  0  0  0  0  0  0  0
  115.4769  106.7313  105.6451 H   0  0  0  0  0  0  0  0  0  0  0  0
  120.0727  106.8112  107.0786 H   0  0  0  0  0  0  0  0  0  0  0  0
  120.9555  106.8833  105.5344 H   0  0  0  0  0  0  0  0  0  0  0  0
  119.0641  102.8557  107.3462 H   0  0  0  0  0  0  0  0  0  0  0  0
  119.5684  102.9224  105.6496 H   0  0  0  0  0  0  0  0  0  0  0  0
  117.6243  104.3373  105.8507 H   0  0  0  0  0  0  0  0  0  0  0  0
  118.2491  105.1527  107.2917 H   0  0  0  0  0  0  0  0  0  0  0  0
  118.4183  108.4284  103.7014 H   0  0  0  0  0  0  0  0  0  0  0  0
  119.7311  108.4233  104.8861 H   0  0  0  0  0  0  0  0  0  0  0  0
  117.9699  107.2112  105.9740 H   0  0  0  0  0  0  0  0  0  0  0  0
  121.3616  103.2452  107.4717 H   0  0  0  0  0  0  0  0  0  0  0  0
  120.7776  107.6976  102.9441 H   0  0  0  0  0  0  0  0  0  0  0  0
  119.6629  106.3624  102.7761 H   0  0  0  0  0  0  0  0  0  0  0  0
  1  2  2  0  0  0  0
  1  4  1  0  0  0  0
  2 15  1  0  0  0  0
  3  4  2  0  0  0  0
  3 15  1  0  0  0  0
  4 10  1  0  0  0  0
  5  6  1  0  0  0  0
  5 11  1  0  0  0  0
  5 14  2  0  0  0  0
  6 12  1  0  0  0  0
  7  8  1  0  0  0  0
  7 11  1  0  0  0  0
  8 12  1  0  0  0  0
  9 10  1  0  0  0  0
  9 13  1  0  0  0  0
 10 12  1  0  0  0  0
  1 16  1  0  0  0  0
  2 17  1  0  0  0  0
  3 18  1  0  0  0  0
  6 19  1  0  0  0  0
  6 20  1  0  0  0  0
  7 21  1  0  0  0  0
  7 22  1  0  0  0  0
  8 23  1  0  0  0  0
  8 24  1  0  0  0  0
  9 25  1  0  0  0  0
  9 26  1  0  0  0  0
 10 27  1  0  0  0  0
 11 28  1  0  0  0  0
 13 29  1  0  0  0  0
 13 30  1  0  0  0  0
M  END
> <FRED Chemgauss4 score>
-7.954172

$$$$
C48630575	P72706512
  -OEChem-05122015313D

 28 28  0     1  0  0  0  0  0999 V2000
  124.8013  108.2479  107.9187 C   0  0  0  0  0  0  0  0  0  0  0  0
  123.9863  109.4047  109.4532 C   0  0  0  0  0  0  0  0  0  0  0  0
  123.2862  109.9452  110.6295 C   0  0  0  0  0  0  0  0  0  0  0  0
  125.4344  104.4512  106.9131 C   0  0  0  0  0  0  0  0  0  0  0  0
  123.7796  105.4109  108.5261 C   0  0  0  0  0  0  0  0  0  0  0  0
  126.2163  105.6762  108.9419 C   0  0  0  0  0  0  0  0  0  0  0  0
  125.1317  107.0300  107.0622 C   0  0  2  0  0  0  0  0  0  0  0  0
  125.1379  105.6534  107.8313 C   0  0  0  0  0  0  0  0  0  0  0  0
  124.0108  108.1626  109.0289 N   0  0  0  0  0  0  0  0  0  0  0  0
  125.2673  109.4646  107.6294 N   0  0  0  0  0  0  0  0  0  0  0  0
  124.7315  110.1857  108.6259 N   0  0  0  0  0  0  0  0  0  0  0  0
  126.3836  107.2450  106.3168 N   0  0  0  0  0  0  0  0  0  0  0  0
  123.9264  109.9118  111.5282 H   0  0  0  0  0  0  0  0  0  0  0  0
  122.9735  110.9951  110.4842 H   0  0  0  0  0  0  0  0  0  0  0  0
  122.3618  109.3851  110.8599 H   0  0  0  0  0  0  0  0  0  0  0  0
  126.3896  104.5657  106.3904 H   0  0  0  0  0  0  0  0  0  0  0  0
  125.4910  103.5220  107.4929 H   0  0  0  0  0  0  0  0  0  0  0  0
  124.6500  104.3078  106.1640 H   0  0  0  0  0  0  0  0  0  0  0  0
  123.5227  106.2422  109.1931 H   0  0  0  0  0  0  0  0  0  0  0  0
  123.7916  104.5041  109.1397 H   0  0  0  0  0  0  0  0  0  0  0  0
  122.9719  105.3160  107.7917 H   0  0  0  0  0  0  0  0  0  0  0  0
  126.0572  106.5142  109.6297 H   0  0  0  0  0  0  0  0  0  0  0  0
  126.1928  104.7544  109.5350 H   0  0  0  0  0  0  0  0  0  0  0  0
  127.2269  105.7620  108.5294 H   0  0  0  0  0  0  0  0  0  0  0  0
  124.3484  106.9640  106.2934 H   0  0  0  0  0  0  0  0  0  0  0  0
  124.9164  111.1810  108.6716 H   0  0  0  0  0  0  0  0  0  0  0  0
  126.5997  108.1735  106.0452 H   0  0  0  0  0  0  0  0  0  0  0  0
  126.8393  106.4451  105.9493 H   0  0  0  0  0  0  0  0  0  0  0  0
  1  7  1  0  0  0  0
  1  9  1  0  0  0  0
  1 10  2  0  0  0  0
  2  3  1  0  0  0  0
  2  9  2  0  0  0  0
  2 11  1  0  0  0  0
  4  8  1  0  0  0  0
  5  8  1  0  0  0  0
  6  8  1  0  0  0  0
  7  8  1  0  0  0  0
  7 12  1  0  0  0  0
 10 11  1  0  0  0  0
  3 13  1  0  0  0  0
  3 14  1  0  0  0  0
  3 15  1  0  0  0  0
  4 16  1  0  0  0  0
  4 17  1  0  0  0  0
  4 18  1  0  0  0  0
  5 19  1  0  0  0  0
  5 20  1  0  0  0  0
  5 21  1  0  0  0  0
  6 22  1  0  0  0  0
  6 23  1  0  0  0  0
  6 24  1  0  0  0  0
  7 25  1  0  0  0  0
 11 26  1  0  0  0  0
 12 27  1  0  0  0  0
 12 28  1  0  0  0  0
M  END
> <FRED Chemgauss4 score>
-7.952668

$$$$
C85618496	P134076390
  -OEChem-05122015313D

 24 25  0     1  0  0  0  0  0999 V2000
  125.4622  108.7278  107.9347 C   0  0  0  0  0  0  0  0  0  0  0  0
  125.5068  106.9352  106.8661 C   0  0  0  0  0  0  0  0  0  0  0  0
  121.3967  105.4250  108.0358 C   0  0  0  0  0  0  0  0  0  0  0  0
  123.7479  104.9852  108.2498 C   0  0  0  0  0  0  0  0  0  0  0  0
  121.5672  105.4746  106.5226 C   0  0  0  0  0  0  0  0  0  0  0  0
  123.8756  105.0363  106.7249 C   0  0  2  0  0  0  0  0  0  0  0  0
  125.2414  105.5628  106.3065 C   0  0  0  0  0  0  0  0  0  0  0  0
  124.8149  107.5320  107.8087 N   0  0  0  0  0  0  0  0  0  0  0  0
  126.5177  107.7476  106.4564 N   0  0  0  0  0  0  0  0  0  0  0  0
  126.5110  108.9084  107.1292 N   0  0  0  0  0  0  0  0  0  0  0  0
  122.4036  104.5446  108.6301 N   0  0  0  0  0  0  0  0  0  0  0  0
  122.8829  105.9168  106.1846 O   0  0  0  0  0  0  0  0  0  0  0  0
  125.1458  109.4826  108.6425 H   0  0  0  0  0  0  0  0  0  0  0  0
  121.4973  106.4317  108.4593 H   0  0  0  0  0  0  0  0  0  0  0  0
  120.3967  105.0560  108.2855 H   0  0  0  0  0  0  0  0  0  0  0  0
  124.4843  104.2891  108.6656 H   0  0  0  0  0  0  0  0  0  0  0  0
  123.9406  105.9730  108.6872 H   0  0  0  0  0  0  0  0  0  0  0  0
  121.3808  104.4969  106.0618 H   0  0  0  0  0  0  0  0  0  0  0  0
  120.8558  106.1853  106.0904 H   0  0  0  0  0  0  0  0  0  0  0  0
  123.7361  104.0375  106.2909 H   0  0  0  0  0  0  0  0  0  0  0  0
  125.3071  105.5899  105.2126 H   0  0  0  0  0  0  0  0  0  0  0  0
  126.0223  104.8695  106.6406 H   0  0  0  0  0  0  0  0  0  0  0  0
  127.1888  109.6479  106.9663 H   0  0  0  0  0  0  0  0  0  0  0  0
  122.3148  104.5637  109.6456 H   0  0  0  0  0  0  0  0  0  0  0  0
  1  8  2  0  0  0  0
  1 10  1  0  0  0  0
  2  7  1  0  0  0  0
  2  8  1  0  0  0  0
  2  9  2  0  0  0  0
  3  5  1  0  0  0  0
  3 11  1  0  0  0  0
  4  6  1  0  0  0  0
  4 11  1  0  0  0  0
  5 12  1  0  0  0  0
  6  7  1  0  0  0  0
  6 12  1  0  0  0  0
  9 10  1  0  0  0  0
  1 13  1  0  0  0  0
  3 14  1  0  0  0  0
  3 15  1  0  0  0  0
  4 16  1  0  0  0  0
  4 17  1  0  0  0  0
  5 18  1  0  0  0  0
  5 19  1  0  0  0  0
  6 20  1  0  0  0  0
  7 21  1  0  0  0  0
  7 22  1  0  0  0  0
 10 23  1  0  0  0  0
 11 24  1  0  0  0  0
M  END
> <FRED Chemgauss4 score>
-7.949819

$$$$
C34321792	P151021124
  -OEChem-05122015313D

 24 24  0     1  0  0  0  0  0999 V2000
  123.0069  105.6158  107.7530 C   0  0  0  0  0  0  0  0  0  0  0  0
  125.0874  107.6867  106.5728 C   0  0  0  0  0  0  0  0  0  0  0  0
  125.7464  104.1236  107.3924 C   0  0  0  0  0  0  0  0  0  0  0  0
  125.1094  104.6655  108.6691 C   0  0  0  0  0  0  0  0  0  0  0  0
  126.1590  105.3880  106.6541 C   0  0  0  0  0  0  0  0  0  0  0  0
  124.3770  105.9215  108.1938 C   0  0  1  0  0  0  0  0  0  0  0  0
  124.0025  108.5373  107.1838 C   0  0  0  0  0  0  0  0  0  0  0  0
  121.9265  105.3748  107.4054 N   0  0  0  0  0  0  0  0  0  0  0  0
  125.1895  106.3979  107.0734 N   0  0  0  0  0  0  0  0  0  0  0  0
  123.5908  110.0588  108.9106 N   0  0  0  0  0  0  0  0  0  0  0  0
  124.5808  109.2134  108.3051 N   0  0  0  0  0  0  0  0  0  0  0  0
  125.8182  108.1468  105.6940 O   0  0  0  0  0  0  0  0  0  0  0  0
  126.5908  103.4566  107.5867 H   0  0  0  0  0  0  0  0  0  0  0  0
  125.0013  103.5704  106.8081 H   0  0  0  0  0  0  0  0  0  0  0  0
  124.4637  103.9311  109.1606 H   0  0  0  0  0  0  0  0  0  0  0  0
  125.9039  104.9454  109.3726 H   0  0  0  0  0  0  0  0  0  0  0  0
  127.1529  105.7260  106.9672 H   0  0  0  0  0  0  0  0  0  0  0  0
  126.1490  105.2636  105.5679 H   0  0  0  0  0  0  0  0  0  0  0  0
  124.3482  106.6872  108.9767 H   0  0  0  0  0  0  0  0  0  0  0  0
  123.1927  107.8831  107.4930 H   0  0  0  0  0  0  0  0  0  0  0  0
  123.6607  109.2424  106.4319 H   0  0  0  0  0  0  0  0  0  0  0  0
  122.7118  109.9601  108.4034 H   0  0  0  0  0  0  0  0  0  0  0  0
  123.4013  109.7411  109.8603 H   0  0  0  0  0  0  0  0  0  0  0  0
  125.3676  109.8052  108.0094 H   0  0  0  0  0  0  0  0  0  0  0  0
  1  6  1  0  0  0  0
  1  8  3  0  0  0  0
  2  7  1  0  0  0  0
  2  9  1  0  0  0  0
  2 12  2  0  0  0  0
  3  4  1  0  0  0  0
  3  5  1  0  0  0  0
  4  6  1  0  0  0  0
  5  9  1  0  0  0  0
  6  9  1  0  0  0  0
  7 11  1  0  0  0  0
 10 11  1  0  0  0  0
  3 13  1  0  0  0  0
  3 14  1  0  0  0  0
  4 15  1  0  0  0  0
  4 16  1  0  0  0  0
  5 17  1  0  0  0  0
  5 18  1  0  0  0  0
  6 19  1  0  0  0  0
  7 20  1  0  0  0  0
  7 21  1  0  0  0  0
 10 22  1  0  0  0  0
 10 23  1  0  0  0  0
 11 24  1  0  0  0  0
M  END
> <FRED Chemgauss4 score>
-7.948439

$$$$
C34604564	P120599899
  -OEChem-05122015313D

 26 26  0     1  0  0  0  0  0999 V2000
  123.1134  104.7462  106.9070 C   0  0  0  0  0  0  0  0  0  0  0  0
  123.7777  106.0451  107.2306 C   0  0  2  0  0  0  0  0  0  0  0  0
  124.2056  106.7698  105.9613 C   0  0  2  0  0  0  0  0  0  0  0  0
  125.1172  107.9521  106.2942 C   0  0  1  0  0  0  0  0  0  0  0  0
  126.2298  107.5456  107.2608 C   0  0  2  0  0  0  0  0  0  0  0  0
  125.6700  106.7685  108.4521 C   0  0  1  0  0  0  0  0  0  0  0  0
  121.2226  103.8179  105.8359 C   0  0  0  0  0  0  0  0  0  0  0  0
  123.5560  103.6516  107.2278 O   0  0  0  0  0  0  0  0  0  0  0  0
  124.9070  105.6531  107.9998 O   0  0  0  0  0  0  0  0  0  0  0  0
  123.0410  107.2525  105.2937 O   0  0  0  0  0  0  0  0  0  0  0  0
  125.6981  108.4287  105.0795 O   0  0  0  0  0  0  0  0  0  0  0  0
  126.8752  108.7305  107.7252 O   0  0  0  0  0  0  0  0  0  0  0  0
  126.7725  106.3152  109.2361 O   0  0  0  0  0  0  0  0  0  0  0  0
  121.9638  104.9826  106.2130 O   0  0  0  0  0  0  0  0  0  0  0  0
  123.0827  106.6362  107.8388 H   0  0  0  0  0  0  0  0  0  0  0  0
  124.7191  106.0868  105.2726 H   0  0  0  0  0  0  0  0  0  0  0  0
  124.5300  108.7839  106.7031 H   0  0  0  0  0  0  0  0  0  0  0  0
  126.9873  106.9536  106.7321 H   0  0  0  0  0  0  0  0  0  0  0  0
  125.0553  107.4160  109.0903 H   0  0  0  0  0  0  0  0  0  0  0  0
  120.3257  104.1173  105.2883 H   0  0  0  0  0  0  0  0  0  0  0  0
  120.9452  103.2557  106.7312 H   0  0  0  0  0  0  0  0  0  0  0  0
  121.8468  103.1918  105.1938 H   0  0  0  0  0  0  0  0  0  0  0  0
  122.6002  107.8557  105.9114 H   0  0  0  0  0  0  0  0  0  0  0  0
  126.1993  107.6877  104.7073 H   0  0  0  0  0  0  0  0  0  0  0  0
  126.1941  109.2579  108.1694 H   0  0  0  0  0  0  0  0  0  0  0  0
  126.3955  105.8266  109.9836 H   0  0  0  0  0  0  0  0  0  0  0  0
  1  2  1  0  0  0  0
  1  8  2  0  0  0  0
  1 14  1  0  0  0  0
  2  3  1  0  0  0  0
  2  9  1  0  0  0  0
  3  4  1  0  0  0  0
  3 10  1  0  0  0  0
  4  5  1  0  0  0  0
  4 11  1  0  0  0  0
  5  6  1  0  0  0  0
  5 12  1  0  0  0  0
  6  9  1  0  0  0  0
  6 13  1  0  0  0  0
  7 14  1  0  0  0  0
  2 15  1  0  0  0  0
  3 16  1  0  0  0  0
  4 17  1  0  0  0  0
  5 18  1  0  0  0  0
  6 19  1  0  0  0  0
  7 20  1  0  0  0  0
  7 21  1  0  0  0  0
  7 22  1  0  0  0  0
 10 23  1  0  0  0  0
 11 24  1  0  0  0  0
 12 25  1  0  0  0  0
 13 26  1  0  0  0  0
M  END
> <FRED Chemgauss4 score>
-7.945235

$$$$
C83270613	P130167392
  -OEChem-05122015313D

 24 24  0     1  0  0  0  0  0999 V2000
  125.1103  109.2508  108.2529 C   0  0  0  0  0  0  0  0  0  0  0  0
  125.7801  108.0511  108.0323 C   0  0  0  0  0  0  0  0  0  0  0  0
  124.0487  108.2750  110.1615 C   0  0  0  0  0  0  0  0  0  0  0  0
  124.2343  109.3685  109.3277 C   0  0  0  0  0  0  0  0  0  0  0  0
  125.5555  106.9909  108.8990 C   0  0  0  0  0  0  0  0  0  0  0  0
  125.2711  104.4787  108.5412 C   0  0  0  0  0  0  0  0  0  0  0  0
  124.3593  104.6406  107.3293 C   0  0  0  0  0  0  0  0  0  0  0  0
  126.2447  105.6532  108.7294 C   0  0  2  0  0  0  0  0  0  0  0  0
  124.7065  107.1315  109.9262 N   0  3  0  0  0  0  0  0  0  0  0  0
  127.1283  105.3986  109.8469 N   0  0  0  0  0  0  0  0  0  0  0  0
  123.6102  110.4645  109.5453 O   0  5  0  0  0  0  0  0  0  0  0  0
  123.6053  105.8364  107.4821 O   0  0  0  0  0  0  0  0  0  0  0  0
  125.2885  110.0802  107.5705 H   0  0  0  0  0  0  0  0  0  0  0  0
  126.4646  107.9542  107.1956 H   0  0  0  0  0  0  0  0  0  0  0  0
  123.3924  108.2544  111.0226 H   0  0  0  0  0  0  0  0  0  0  0  0
  125.8420  103.5469  108.4253 H   0  0  0  0  0  0  0  0  0  0  0  0
  124.6594  104.3202  109.4391 H   0  0  0  0  0  0  0  0  0  0  0  0
  124.9356  104.7170  106.4025 H   0  0  0  0  0  0  0  0  0  0  0  0
  123.6634  103.7996  107.2500 H   0  0  0  0  0  0  0  0  0  0  0  0
  126.9036  105.6915  107.8528 H   0  0  0  0  0  0  0  0  0  0  0  0
  124.5536  106.3430  110.5547 H   0  0  0  0  0  0  0  0  0  0  0  0
  127.6058  106.1727  110.2701 H   0  0  0  0  0  0  0  0  0  0  0  0
  127.4004  104.4526  110.0405 H   0  0  0  0  0  0  0  0  0  0  0  0
  123.0374  105.9107  106.6984 H   0  0  0  0  0  0  0  0  0  0  0  0
  1  2  1  0  0  0  0
  1  4  2  0  0  0  0
  2  5  2  0  0  0  0
  3  4  1  0  0  0  0
  3  9  2  0  0  0  0
  4 11  1  0  0  0  0
  5  8  1  0  0  0  0
  5  9  1  0  0  0  0
  6  7  1  0  0  0  0
  6  8  1  0  0  0  0
  7 12  1  0  0  0  0
  8 10  1  0  0  0  0
  1 13  1  0  0  0  0
  2 14  1  0  0  0  0
  3 15  1  0  0  0  0
  6 16  1  0  0  0  0
  6 17  1  0  0  0  0
  7 18  1  0  0  0  0
  7 19  1  0  0  0  0
  8 20  1  0  0  0  0
  9 21  1  0  0  0  0
 10 22  1  0  0  0  0
 10 23  1  0  0  0  0
 12 24  1  0  0  0  0
M  CHG  2   9   1  11  -1
M  END
> <FRED Chemgauss4 score>
-7.933809

$$$$
C44509817	P128444641
  -OEChem-05122015313D

 18 17  0     0  0  0  0  0  0999 V2000
  123.7134  106.3408  107.1087 C   0  0  0  0  0  0  0  0  0  0  0  0
  125.0217  105.8319  107.5041 C   0  0  0  0  0  0  0  0  0  0  0  0
  125.0821  109.2263  108.0103 C   0  0  0  0  0  0  0  0  0  0  0  0
  124.2091  109.1890  109.2513 C   0  0  0  0  0  0  0  0  0  0  0  0
  122.6701  106.7418  106.7969 N   0  0  0  0  0  0  0  0  0  0  0  0
  126.1311  108.1959  108.1126 N   0  0  0  0  0  0  0  0  0  0  0  0
  127.5314  106.3458  106.9678 O   0  0  0  0  0  0  0  0  0  0  0  0
  125.7331  107.5382  105.6635 O   0  0  0  0  0  0  0  0  0  0  0  0
  123.2210  110.2078  109.1644 O   0  0  0  0  0  0  0  0  0  0  0  0
  126.2335  106.9893  106.9092 S   0  0  0  0  0  0  0  0  0  0  0  0
  125.2402  104.8609  107.0543 H   0  0  0  0  0  0  0  0  0  0  0  0
  125.1289  105.7668  108.5891 H   0  0  0  0  0  0  0  0  0  0  0  0
  124.4960  109.0306  107.1068 H   0  0  0  0  0  0  0  0  0  0  0  0
  125.5697  110.2014  107.9169 H   0  0  0  0  0  0  0  0  0  0  0  0
  124.8153  109.3815  110.1419 H   0  0  0  0  0  0  0  0  0  0  0  0
  123.7086  108.2216  109.3625 H   0  0  0  0  0  0  0  0  0  0  0  0
  126.3418  107.9094  109.0774 H   0  0  0  0  0  0  0  0  0  0  0  0
  122.6873  110.1493  109.9731 H   0  0  0  0  0  0  0  0  0  0  0  0
  1  2  1  0  0  0  0
  1  5  3  0  0  0  0
  2 10  1  0  0  0  0
  3  4  1  0  0  0  0
  3  6  1  0  0  0  0
  4  9  1  0  0  0  0
  6 10  1  0  0  0  0
  7 10  2  0  0  0  0
  8 10  2  0  0  0  0
  2 11  1  0  0  0  0
  2 12  1  0  0  0  0
  3 13  1  0  0  0  0
  3 14  1  0  0  0  0
  4 15  1  0  0  0  0
  4 16  1  0  0  0  0
  6 17  1  0  0  0  0
  9 18  1  0  0  0  0
M  END
> <FRED Chemgauss4 score>
-7.933377

$$$$
C70005397	P107943213
  -OEChem-05122015313D

 23 24  0     1  0  0  0  0  0999 V2000
  123.5462  106.6442  105.8277 C   0  0  0  0  0  0  0  0  0  0  0  0
  125.3003  107.4281  106.6789 C   0  0  0  0  0  0  0  0  0  0  0  0
  121.3856  106.0744  104.5995 C   0  0  0  0  0  0  0  0  0  0  0  0
  120.3510  104.9614  104.5506 C   0  0  0  0  0  0  0  0  0  0  0  0
  121.7510  105.1624  106.8387 C   0  0  0  0  0  0  0  0  0  0  0  0
  122.4776  105.6051  105.5671 C   0  0  2  0  0  0  0  0  0  0  0  0
  126.5089  107.4237  107.5127 C   0  0  0  0  0  0  0  0  0  0  0  0
  123.6618  107.8630  105.3545 N   0  0  0  0  0  0  0  0  0  0  0  0
  124.8158  108.3786  105.9144 N   0  0  0  0  0  0  0  0  0  0  0  0
  127.0603  108.7476  107.7257 N   0  0  0  0  0  0  0  0  0  0  0  0
  124.5497  106.2926  106.6774 O   0  0  0  0  0  0  0  0  0  0  0  0
  120.2322  104.3532  106.2555 S   0  0  0  0  0  0  0  0  0  0  0  0
  121.7883  106.2773  103.6006 H   0  0  0  0  0  0  0  0  0  0  0  0
  120.9239  107.0074  104.9513 H   0  0  0  0  0  0  0  0  0  0  0  0
  119.3823  105.3194  104.1916 H   0  0  0  0  0  0  0  0  0  0  0  0
  120.6852  104.1422  103.9063 H   0  0  0  0  0  0  0  0  0  0  0  0
  122.3549  104.4710  107.4342 H   0  0  0  0  0  0  0  0  0  0  0  0
  121.4722  106.0109  107.4737 H   0  0  0  0  0  0  0  0  0  0  0  0
  122.9932  104.7177  105.1217 H   0  0  0  0  0  0  0  0  0  0  0  0
  126.3232  106.9971  108.5178 H   0  0  0  0  0  0  0  0  0  0  0  0
  127.3248  106.8146  107.0771 H   0  0  0  0  0  0  0  0  0  0  0  0
  128.0424  108.8351  107.9037 H   0  0  0  0  0  0  0  0  0  0  0  0
  126.4299  109.5085  107.8918 H   0  0  0  0  0  0  0  0  0  0  0  0
  1  6  1  0  0  0  0
  1  8  2  0  0  0  0
  1 11  1  0  0  0  0
  2  7  1  0  0  0  0
  2  9  2  0  0  0  0
  2 11  1  0  0  0  0
  3  4  1  0  0  0  0
  3  6  1  0  0  0  0
  4 12  1  0  0  0  0
  5  6  1  0  0  0  0
  5 12  1  0  0  0  0
  7 10  1  0  0  0  0
  8  9  1  0  0  0  0
  3 13  1  0  0  0  0
  3 14  1  0  0  0  0
  4 15  1  0  0  0  0
  4 16  1  0  0  0  0
  5 17  1  0  0  0  0
  5 18  1  0  0  0  0
  6 19  1  0  0  0  0
  7 20  1  0  0  0  0
  7 21  1  0  0  0  0
 10 22  1  0  0  0  0
 10 23  1  0  0  0  0
M  END
> <FRED Chemgauss4 score>
-7.932852

$$$$
C45626663	P120958679
  -OEChem-05122015313D

 24 24  0     1  0  0  0  0  0999 V2000
  124.9039  109.0573  108.6363 C   0  0  0  0  0  0  0  0  0  0  0  0
  126.4112  107.8135  107.4148 C   0  0  0  0  0  0  0  0  0  0  0  0
  124.1483  108.6375  107.4061 C   0  0  0  0  0  0  0  0  0  0  0  0
  125.1271  107.7649  106.6287 C   0  0  2  0  0  0  0  0  0  0  0  0
  125.1272  103.5338  107.1046 C   0  0  0  0  0  0  0  0  0  0  0  0
  124.4785  105.8324  107.8957 C   0  0  0  0  0  0  0  0  0  0  0  0
  124.0578  104.3683  107.7966 C   0  0  1  0  0  0  0  0  0  0  0  0
  126.1831  108.5727  108.5357 N   0  0  0  0  0  0  0  0  0  0  0  0
  124.6944  106.3768  106.5616 N   0  0  0  0  0  0  0  0  0  0  0  0
  124.4384  109.7272  109.5464 O   0  0  0  0  0  0  0  0  0  0  0  0
  127.4538  107.2543  107.1068 O   0  0  0  0  0  0  0  0  0  0  0  0
  122.8546  104.2906  107.0344 O   0  0  0  0  0  0  0  0  0  0  0  0
  123.2328  108.1120  107.6961 H   0  0  0  0  0  0  0  0  0  0  0  0
  123.8758  109.5283  106.8308 H   0  0  0  0  0  0  0  0  0  0  0  0
  125.2946  108.1647  105.6233 H   0  0  0  0  0  0  0  0  0  0  0  0
  125.3505  103.9218  106.1061 H   0  0  0  0  0  0  0  0  0  0  0  0
  126.0524  103.5174  107.6914 H   0  0  0  0  0  0  0  0  0  0  0  0
  124.7983  102.4935  107.0073 H   0  0  0  0  0  0  0  0  0  0  0  0
  123.7050  106.4265  108.3942 H   0  0  0  0  0  0  0  0  0  0  0  0
  125.4078  105.9301  108.4665 H   0  0  0  0  0  0  0  0  0  0  0  0
  123.8539  103.9585  108.7926 H   0  0  0  0  0  0  0  0  0  0  0  0
  126.8987  108.7592  109.2295 H   0  0  0  0  0  0  0  0  0  0  0  0
  123.8243  106.3207  106.0323 H   0  0  0  0  0  0  0  0  0  0  0  0
  122.6070  103.3537  107.0060 H   0  0  0  0  0  0  0  0  0  0  0  0
  1  3  1  0  0  0  0
  1  8  1  0  0  0  0
  1 10  2  0  0  0  0
  2  4  1  0  0  0  0
  2  8  1  0  0  0  0
  2 11  2  0  0  0  0
  3  4  1  0  0  0  0
  4  9  1  0  0  0  0
  5  7  1  0  0  0  0
  6  7  1  0  0  0  0
  6  9  1  0  0  0  0
  7 12  1  0  0  0  0
  3 13  1  0  0  0  0
  3 14  1  0  0  0  0
  4 15  1  0  0  0  0
  5 16  1  0  0  0  0
  5 17  1  0  0  0  0
  5 18  1  0  0  0  0
  6 19  1  0  0  0  0
  6 20  1  0  0  0  0
  7 21  1  0  0  0  0
  8 22  1  0  0  0  0
  9 23  1  0  0  0  0
 12 24  1  0  0  0  0
M  END
> <FRED Chemgauss4 score>
-7.932792

$$$$
C01719293	P06382694
  -OEChem-05122015313D

 16 16  0     0  0  0  0  0  0999 V2000
  125.6394  105.4205  108.2239 C   0  0  0  0  0  0  0  0  0  0  0  0
  124.9396  107.4124  108.7737 C   0  0  0  0  0  0  0  0  0  0  0  0
  123.5135  107.0855  106.0456 C   0  0  0  0  0  0  0  0  0  0  0  0
  125.6766  104.0999  107.5328 C   0  0  0  0  0  0  0  0  0  0  0  0
  126.5094  105.8027  109.1166 N   0  0  0  0  0  0  0  0  0  0  0  0
  126.0934  107.0578  109.4819 N   0  0  0  0  0  0  0  0  0  0  0  0
  124.6775  106.3288  107.9713 N   0  0  0  0  0  0  0  0  0  0  0  0
  123.6502  106.1944  107.0996 N   0  0  0  0  0  0  0  0  0  0  0  0
  122.6416  107.0869  105.1853 O   0  0  0  0  0  0  0  0  0  0  0  0
  124.1226  108.8477  108.9257 S   0  0  0  0  0  0  0  0  0  0  0  0
  124.3157  107.8423  106.0536 H   0  0  0  0  0  0  0  0  0  0  0  0
  125.1033  103.3665  108.1011 H   0  0  0  0  0  0  0  0  0  0  0  0
  126.7079  103.7556  107.4426 H   0  0  0  0  0  0  0  0  0  0  0  0
  125.2496  104.1910  106.5331 H   0  0  0  0  0  0  0  0  0  0  0  0
  126.6033  107.5902  110.1751 H   0  0  0  0  0  0  0  0  0  0  0  0
  122.9732  105.4322  107.2214 H   0  0  0  0  0  0  0  0  0  0  0  0
  1  4  1  0  0  0  0
  1  5  2  0  0  0  0
  1  7  1  0  0  0  0
  2  6  1  0  0  0  0
  2  7  1  0  0  0  0
  2 10  2  0  0  0  0
  3  8  1  0  0  0  0
  3  9  2  0  0  0  0
  5  6  1  0  0  0  0
  7  8  1  0  0  0  0
  3 11  1  0  0  0  0
  4 12  1  0  0  0  0
  4 13  1  0  0  0  0
  4 14  1  0  0  0  0
  6 15  1  0  0  0  0
  8 16  1  0  0  0  0
M  END
> <FRED Chemgauss4 score>
-7.924835

$$$$
C72226568	P112212622
  -OEChem-05122015313D

 23 23  0     1  0  0  0  0  0999 V2000
  124.4104  107.0549  109.4678 C   0  0  0  0  0  0  0  0  0  0  0  0
  123.8060  108.0695  110.2944 C   0  0  0  0  0  0  0  0  0  0  0  0
  125.0599  107.3594  108.3327 C   0  0  0  0  0  0  0  0  0  0  0  0
  123.8822  109.3603  109.9385 C   0  0  0  0  0  0  0  0  0  0  0  0
  125.1504  108.8022  107.9259 C   0  0  0  0  0  0  0  0  0  0  0  0
  123.2863  110.4761  110.7349 C   0  0  0  0  0  0  0  0  0  0  0  0
  125.1543  106.4199  106.0353 C   0  0  0  0  0  0  0  0  0  0  0  0
  125.7020  106.3413  107.4462 C   0  0  1  0  0  0  0  0  0  0  0  0
  124.5414  109.7092  108.7790 N   0  0  0  0  0  0  0  0  0  0  0  0
  127.1044  106.6415  107.4986 N   0  0  0  0  0  0  0  0  0  0  0  0
  125.7346  109.1344  106.8965 O   0  0  0  0  0  0  0  0  0  0  0  0
  124.3188  106.0268  109.8032 H   0  0  0  0  0  0  0  0  0  0  0  0
  123.2975  107.7528  111.1983 H   0  0  0  0  0  0  0  0  0  0  0  0
  124.0154  110.8439  111.4559 H   0  0  0  0  0  0  0  0  0  0  0  0
  122.4031  110.1201  111.2647 H   0  0  0  0  0  0  0  0  0  0  0  0
  122.9952  111.2886  110.0698 H   0  0  0  0  0  0  0  0  0  0  0  0
  125.3031  107.4147  105.5996 H   0  0  0  0  0  0  0  0  0  0  0  0
  125.6540  105.6952  105.3838 H   0  0  0  0  0  0  0  0  0  0  0  0
  124.0795  106.2109  106.0224 H   0  0  0  0  0  0  0  0  0  0  0  0
  125.5508  105.3473  107.8753 H   0  0  0  0  0  0  0  0  0  0  0  0
  124.5834  110.6945  108.5341 H   0  0  0  0  0  0  0  0  0  0  0  0
  127.7113  106.2963  106.7701 H   0  0  0  0  0  0  0  0  0  0  0  0
  127.4991  107.0109  108.3507 H   0  0  0  0  0  0  0  0  0  0  0  0
  1  2  1  0  0  0  0
  1  3  2  0  0  0  0
  2  4  2  0  0  0  0
  3  5  1  0  0  0  0
  3  8  1  0  0  0  0
  4  6  1  0  0  0  0
  4  9  1  0  0  0  0
  5  9  1  0  0  0  0
  5 11  2  0  0  0  0
  7  8  1  0  0  0  0
  8 10  1  0  0  0  0
  1 12  1  0  0  0  0
  2 13  1  0  0  0  0
  6 14  1  0  0  0  0
  6 15  1  0  0  0  0
  6 16  1  0  0  0  0
  7 17  1  0  0  0  0
  7 18  1  0  0  0  0
  7 19  1  0  0  0  0
  8 20  1  0  0  0  0
  9 21  1  0  0  0  0
 10 22  1  0  0  0  0
 10 23  1  0  0  0  0
M  END
> <FRED Chemgauss4 score>
-7.922885

$$$$
C97640698	P154806939
  -OEChem-05122015313D

 25 25  0     1  0  0  0  0  0999 V2000
  125.7909  108.7620  107.6824 C   0  0  0  0  0  0  0  0  0  0  0  0
  124.4633  109.2488  109.2732 C   0  0  0  0  0  0  0  0  0  0  0  0
  125.4300  107.5586  108.2411 C   0  0  0  0  0  0  0  0  0  0  0  0
  124.9550  103.8480  107.1781 C   0  0  0  0  0  0  0  0  0  0  0  0
  123.9171  106.9759  110.1626 C   0  0  0  0  0  0  0  0  0  0  0  0
  124.5887  105.2867  107.5216 C   0  0  0  0  0  0  0  0  0  0  0  0
  125.8160  106.1337  107.8995 C   0  0  2  0  0  0  0  0  0  0  0  0
  125.1860  109.8102  108.3296 N   0  0  0  0  0  0  0  0  0  0  0  0
  124.5797  107.8866  109.2592 N   0  0  0  0  0  0  0  0  0  0  0  0
  127.7535  106.2841  109.1992 N   0  0  0  0  0  0  0  0  0  0  0  0
  126.5559  105.5304  108.9854 N   0  0  0  0  0  0  0  0  0  0  0  0
  126.4554  108.9294  106.8469 H   0  0  0  0  0  0  0  0  0  0  0  0
  123.8428  109.7715  109.9884 H   0  0  0  0  0  0  0  0  0  0  0  0
  125.4852  103.3696  108.0077 H   0  0  0  0  0  0  0  0  0  0  0  0
  124.0492  103.2674  106.9760 H   0  0  0  0  0  0  0  0  0  0  0  0
  125.5901  103.7990  106.2883 H   0  0  0  0  0  0  0  0  0  0  0  0
  122.9562  106.7010  109.7197 H   0  0  0  0  0  0  0  0  0  0  0  0
  124.5396  106.0884  110.3065 H   0  0  0  0  0  0  0  0  0  0  0  0
  123.7676  107.4687  111.1273 H   0  0  0  0  0  0  0  0  0  0  0  0
  124.0610  105.7273  106.6665 H   0  0  0  0  0  0  0  0  0  0  0  0
  123.8788  105.2713  108.3585 H   0  0  0  0  0  0  0  0  0  0  0  0
  126.5063  106.1453  107.0468 H   0  0  0  0  0  0  0  0  0  0  0  0
  127.7676  107.0825  108.5651 H   0  0  0  0  0  0  0  0  0  0  0  0
  127.7390  106.6761  110.1399 H   0  0  0  0  0  0  0  0  0  0  0  0
  126.8116  104.5696  108.7451 H   0  0  0  0  0  0  0  0  0  0  0  0
  1  3  2  0  0  0  0
  1  8  1  0  0  0  0
  2  8  2  0  0  0  0
  2  9  1  0  0  0  0
  3  7  1  0  0  0  0
  3  9  1  0  0  0  0
  4  6  1  0  0  0  0
  5  9  1  0  0  0  0
  6  7  1  0  0  0  0
  7 11  1  0  0  0  0
 10 11  1  0  0  0  0
  1 12  1  0  0  0  0
  2 13  1  0  0  0  0
  4 14  1  0  0  0  0
  4 15  1  0  0  0  0
  4 16  1  0  0  0  0
  5 17  1  0  0  0  0
  5 18  1  0  0  0  0
  5 19  1  0  0  0  0
  6 20  1  0  0  0  0
  6 21  1  0  0  0  0
  7 22  1  0  0  0  0
 10 23  1  0  0  0  0
 10 24  1  0  0  0  0
 11 25  1  0  0  0  0
M  END
> <FRED Chemgauss4 score>
-7.922381

$$$$
C01529206	P22833959
  -OEChem-05122015313D

 24 24  0     1  0  0  0  0  0999 V2000
  124.8653  108.1767  107.3551 C   0  0  1  0  0  0  0  0  0  0  0  0
  124.4924  107.3463  106.1256 C   0  0  2  0  0  0  0  0  0  0  0  0
  126.3779  108.2139  107.5770 C   0  0  1  0  0  0  0  0  0  0  0  0
  125.1502  105.9618  106.1651 C   0  0  2  0  0  0  0  0  0  0  0  0
  126.9586  106.7995  107.5880 C   0  0  2  0  0  0  0  0  0  0  0  0
  124.4515  104.9927  107.1152 C   0  0  0  0  0  0  0  0  0  0  0  0
  126.5552  106.0458  106.4394 O   0  0  0  0  0  0  0  0  0  0  0  0
  124.3645  109.5038  107.2377 O   0  0  0  0  0  0  0  0  0  0  0  0
  124.9144  108.0149  104.9333 O   0  0  0  0  0  0  0  0  0  0  0  0
  127.0193  108.9455  106.5330 O   0  0  0  0  0  0  0  0  0  0  0  0
  126.6304  106.1578  108.8146 O   0  0  0  0  0  0  0  0  0  0  0  0
  123.1081  104.8395  106.6951 O   0  0  0  0  0  0  0  0  0  0  0  0
  124.3583  107.7569  108.2681 H   0  0  0  0  0  0  0  0  0  0  0  0
  123.4060  107.2381  106.0831 H   0  0  0  0  0  0  0  0  0  0  0  0
  126.6054  108.7114  108.5198 H   0  0  0  0  0  0  0  0  0  0  0  0
  125.0452  105.4929  105.1259 H   0  0  0  0  0  0  0  0  0  0  0  0
  128.0954  106.8670  107.5770 H   0  0  0  0  0  0  0  0  0  0  0  0
  124.4686  105.3896  108.1303 H   0  0  0  0  0  0  0  0  0  0  0  0
  124.9495  104.0234  107.0909 H   0  0  0  0  0  0  0  0  0  0  0  0
  123.4027  109.4240  107.1615 H   0  0  0  0  0  0  0  0  0  0  0  0
  124.6549  107.4488  104.1887 H   0  0  0  0  0  0  0  0  0  0  0  0
  127.9695  108.9335  106.7288 H   0  0  0  0  0  0  0  0  0  0  0  0
  127.0204  106.6971  109.5191 H   0  0  0  0  0  0  0  0  0  0  0  0
  122.6845  104.2198  107.3133 H   0  0  0  0  0  0  0  0  0  0  0  0
  1  2  1  0  0  0  0
  1  3  1  0  0  0  0
  1  8  1  0  0  0  0
  2  4  1  0  0  0  0
  2  9  1  0  0  0  0
  3  5  1  0  0  0  0
  3 10  1  0  0  0  0
  4  6  1  0  0  0  0
  4  7  1  0  0  0  0
  5  7  1  0  0  0  0
  5 11  1  0  0  0  0
  6 12  1  0  0  0  0
  1 13  1  0  0  0  0
  2 14  1  0  0  0  0
  3 15  1  0  0  0  0
  4 16  1  0  0  0  0
  5 17  1  0  0  0  0
  6 18  1  0  0  0  0
  6 19  1  0  0  0  0
  8 20  1  0  0  0  0
  9 21  1  0  0  0  0
 10 22  1  0  0  0  0
 11 23  1  0  0  0  0
 12 24  1  0  0  0  0
M  END
> <FRED Chemgauss4 score>
-7.918371

$$$$
C69691212	P107337996
  -OEChem-05122015313D

 30 30  0     1  0  0  0  0  0999 V2000
  125.0930  107.8462  108.2145 C   0  0  0  0  0  0  0  0  0  0  0  0
  124.1899  109.2531  109.4877 C   0  0  0  0  0  0  0  0  0  0  0  0
  126.4440  105.8210  108.7555 C   0  0  0  0  0  0  0  0  0  0  0  0
  122.9342  108.5812  111.5767 C   0  0  0  0  0  0  0  0  0  0  0  0
  123.3641  105.3756  108.6431 C   0  0  0  0  0  0  0  0  0  0  0  0
  124.6778  104.1696  106.9021 C   0  0  0  0  0  0  0  0  0  0  0  0
  125.4935  106.4582  107.7304 C   0  0  1  0  0  0  0  0  0  0  0  0
  123.4228  109.7173  110.6504 C   0  0  2  0  0  0  0  0  0  0  0  0
  124.2636  105.5559  107.4112 C   0  0  0  0  0  0  0  0  0  0  0  0
  125.3434  109.0215  107.6867 N   0  0  0  0  0  0  0  0  0  0  0  0
  124.7494  109.9470  108.5244 N   0  0  0  0  0  0  0  0  0  0  0  0
  122.2771  110.5476  110.2823 N   0  0  0  0  0  0  0  0  0  0  0  0
  124.3640  107.9089  109.3623 O   0  0  0  0  0  0  0  0  0  0  0  0
  125.9420  105.6712  109.7186 H   0  0  0  0  0  0  0  0  0  0  0  0
  126.7879  104.8379  108.4189 H   0  0  0  0  0  0  0  0  0  0  0  0
  127.3267  106.4452  108.9324 H   0  0  0  0  0  0  0  0  0  0  0  0
  122.3213  107.8697  111.0127 H   0  0  0  0  0  0  0  0  0  0  0  0
  123.7676  108.0295  112.0260 H   0  0  0  0  0  0  0  0  0  0  0  0
  122.3262  108.9724  112.4002 H   0  0  0  0  0  0  0  0  0  0  0  0
  123.9130  104.9096  109.4686 H   0  0  0  0  0  0  0  0  0  0  0  0
  122.9658  106.3322  108.9950 H   0  0  0  0  0  0  0  0  0  0  0  0
  122.5053  104.7378  108.4071 H   0  0  0  0  0  0  0  0  0  0  0  0
  125.2883  103.6415  107.6422 H   0  0  0  0  0  0  0  0  0  0  0  0
  123.7976  103.5532  106.6886 H   0  0  0  0  0  0  0  0  0  0  0  0
  125.2486  104.2408  105.9712 H   0  0  0  0  0  0  0  0  0  0  0  0
  126.0696  106.5732  106.8014 H   0  0  0  0  0  0  0  0  0  0  0  0
  124.0317  110.3894  111.2949 H   0  0  0  0  0  0  0  0  0  0  0  0
  123.6588  106.0246  106.6242 H   0  0  0  0  0  0  0  0  0  0  0  0
  122.3814  111.1747  109.5153 H   0  0  0  0  0  0  0  0  0  0  0  0
  121.5174  110.6066  110.9240 H   0  0  0  0  0  0  0  0  0  0  0  0
  1  7  1  0  0  0  0
  1 10  2  0  0  0  0
  1 13  1  0  0  0  0
  2  8  1  0  0  0  0
  2 11  2  0  0  0  0
  2 13  1  0  0  0  0
  3  7  1  0  0  0  0
  4  8  1  0  0  0  0
  5  9  1  0  0  0  0
  6  9  1  0  0  0  0
  7  9  1  0  0  0  0
  8 12  1  0  0  0  0
 10 11  1  0  0  0  0
  3 14  1  0  0  0  0
  3 15  1  0  0  0  0
  3 16  1  0  0  0  0
  4 17  1  0  0  0  0
  4 18  1  0  0  0  0
  4 19  1  0  0  0  0
  5 20  1  0  0  0  0
  5 21  1  0  0  0  0
  5 22  1  0  0  0  0
  6 23  1  0  0  0  0
  6 24  1  0  0  0  0
  6 25  1  0  0  0  0
  7 26  1  0  0  0  0
  8 27  1  0  0  0  0
  9 28  1  0  0  0  0
 12 29  1  0  0  0  0
 12 30  1  0  0  0  0
M  END
> <FRED Chemgauss4 score>
-7.909690

$$$$
C69972231	P107842260
  -OEChem-05122015313D

 24 24  0     1  0  0  0  0  0999 V2000
  125.7950  106.4766  107.2721 C   0  0  0  0  0  0  0  0  0  0  0  0
  122.7598  105.2738  106.7829 C   0  0  0  0  0  0  0  0  0  0  0  0
  126.3894  107.8011  107.6959 C   0  0  0  0  0  0  0  0  0  0  0  0
  124.2996  107.4415  108.8317 C   0  0  0  0  0  0  0  0  0  0  0  0
  125.2068  108.5418  108.3115 C   0  0  2  0  0  0  0  0  0  0  0  0
  120.8871  104.0123  105.7267 C   0  0  0  0  0  0  0  0  0  0  0  0
  123.7460  105.1553  107.9167 C   0  0  0  0  0  0  0  0  0  0  0  0
  124.5890  106.3309  107.9517 N   0  0  0  0  0  0  0  0  0  0  0  0
  121.9293  104.1643  106.7164 N   0  0  0  0  0  0  0  0  0  0  0  0
  126.3310  105.6889  106.5067 O   0  0  0  0  0  0  0  0  0  0  0  0
  122.7124  106.2404  106.0267 O   0  0  0  0  0  0  0  0  0  0  0  0
  124.5409  109.2775  107.2887 O   0  0  0  0  0  0  0  0  0  0  0  0
  127.1652  107.5992  108.4412 H   0  0  0  0  0  0  0  0  0  0  0  0
  126.8101  108.3184  106.8296 H   0  0  0  0  0  0  0  0  0  0  0  0
  124.5688  107.1385  109.8485 H   0  0  0  0  0  0  0  0  0  0  0  0
  123.2368  107.6934  108.7736 H   0  0  0  0  0  0  0  0  0  0  0  0
  125.5117  109.2483  109.0888 H   0  0  0  0  0  0  0  0  0  0  0  0
  119.9501  104.4335  106.1001 H   0  0  0  0  0  0  0  0  0  0  0  0
  120.7318  102.9538  105.5008 H   0  0  0  0  0  0  0  0  0  0  0  0
  121.1631  104.5306  104.8045 H   0  0  0  0  0  0  0  0  0  0  0  0
  123.2082  105.0693  108.8654 H   0  0  0  0  0  0  0  0  0  0  0  0
  124.3713  104.2691  107.7732 H   0  0  0  0  0  0  0  0  0  0  0  0
  122.0603  103.4218  107.3972 H   0  0  0  0  0  0  0  0  0  0  0  0
  123.7985  109.7332  107.7148 H   0  0  0  0  0  0  0  0  0  0  0  0
  1  3  1  0  0  0  0
  1  8  1  0  0  0  0
  1 10  2  0  0  0  0
  2  7  1  0  0  0  0
  2  9  1  0  0  0  0
  2 11  2  0  0  0  0
  3  5  1  0  0  0  0
  4  5  1  0  0  0  0
  4  8  1  0  0  0  0
  5 12  1  0  0  0  0
  6  9  1  0  0  0  0
  7  8  1  0  0  0  0
  3 13  1  0  0  0  0
  3 14  1  0  0  0  0
  4 15  1  0  0  0  0
  4 16  1  0  0  0  0
  5 17  1  0  0  0  0
  6 18  1  0  0  0  0
  6 19  1  0  0  0  0
  6 20  1  0  0  0  0
  7 21  1  0  0  0  0
  7 22  1  0  0  0  0
  9 23  1  0  0  0  0
 12 24  1  0  0  0  0
M  END
> <FRED Chemgauss4 score>
-7.903128

$$$$
C93934539	P147229462
  -OEChem-05122015313D

 41 42  0     1  0  0  0  0  0999 V2000
  123.0144  106.9813  107.0490 C   0  0  0  0  0  0  0  0  0  0  0  0
  116.8938  107.4305  103.5642 C   0  0  0  0  0  0  0  0  0  0  0  0
  118.0073  108.2842  104.1628 C   0  0  0  0  0  0  0  0  0  0  0  0
  117.3128  105.9675  103.4263 C   0  0  0  0  0  0  0  0  0  0  0  0
  118.5275  107.7113  105.4785 C   0  0  0  0  0  0  0  0  0  0  0  0
  119.8804  104.3188  106.4540 C   0  0  0  0  0  0  0  0  0  0  0  0
  120.5691  106.5342  107.1019 C   0  0  0  0  0  0  0  0  0  0  0  0
  121.2115  104.1457  105.7243 C   0  0  0  0  0  0  0  0  0  0  0  0
  121.8793  106.3110  106.3477 C   0  0  2  0  0  0  0  0  0  0  0  0
  117.8256  105.3644  104.7451 C   0  0  1  0  0  0  0  0  0  0  0  0
  118.9523  106.2467  105.3252 C   0  0  2  0  0  0  0  0  0  0  0  0
  115.6224  104.2444  105.1427 C   0  0  0  0  0  0  0  0  0  0  0  0
  116.6693  105.1325  105.7276 C   0  0  0  0  0  0  0  0  0  0  0  0
  119.4642  105.7237  106.5699 N   0  0  1  0  0  0  0  0  0  0  0  0
  123.2017  106.6169  108.3537 N   0  0  0  0  0  0  0  0  0  0  0  0
  122.2285  104.9293  106.3498 O   0  0  0  0  0  0  0  0  0  0  0  0
  123.9855  108.1046  106.2841 S   0  0  0  0  0  0  0  0  0  0  0  0
  115.9984  107.4999  104.1903 H   0  0  0  0  0  0  0  0  0  0  0  0
  116.6256  107.8247  102.5773 H   0  0  0  0  0  0  0  0  0  0  0  0
  118.8343  108.3595  103.4445 H   0  0  0  0  0  0  0  0  0  0  0  0
  117.6395  109.3075  104.3187 H   0  0  0  0  0  0  0  0  0  0  0  0
  116.4609  105.3795  103.0448 H   0  0  0  0  0  0  0  0  0  0  0  0
  118.0972  105.8936  102.6550 H   0  0  0  0  0  0  0  0  0  0  0  0
  119.3898  108.3003  105.8075 H   0  0  0  0  0  0  0  0  0  0  0  0
  117.7622  107.8141  106.2534 H   0  0  0  0  0  0  0  0  0  0  0  0
  119.1036  103.7370  105.9150 H   0  0  0  0  0  0  0  0  0  0  0  0
  119.9597  103.8629  107.4653 H   0  0  0  0  0  0  0  0  0  0  0  0
  120.7127  106.3123  108.1832 H   0  0  0  0  0  0  0  0  0  0  0  0
  120.3057  107.6124  107.0541 H   0  0  0  0  0  0  0  0  0  0  0  0
  121.5254  103.0979  105.7663 H   0  0  0  0  0  0  0  0  0  0  0  0
  121.1317  104.4263  104.6671 H   0  0  0  0  0  0  0  0  0  0  0  0
  121.8356  106.6850  105.3197 H   0  0  0  0  0  0  0  0  0  0  0  0
  118.2590  104.3880  104.5185 H   0  0  0  0  0  0  0  0  0  0  0  0
  119.8041  106.2215  104.5970 H   0  0  0  0  0  0  0  0  0  0  0  0
  115.2278  104.6987  104.2263 H   0  0  0  0  0  0  0  0  0  0  0  0
  114.7891  104.1087  105.8403 H   0  0  0  0  0  0  0  0  0  0  0  0
  116.0392  103.2652  104.8842 H   0  0  0  0  0  0  0  0  0  0  0  0
  117.0657  104.6841  106.6411 H   0  0  0  0  0  0  0  0  0  0  0  0
  116.2301  106.0969  105.9912 H   0  0  0  0  0  0  0  0  0  0  0  0
  122.5966  105.9335  108.7969 H   0  0  0  0  0  0  0  0  0  0  0  0
  123.9417  107.0071  108.9284 H   0  0  0  0  0  0  0  0  0  0  0  0
  1  9  1  0  0  0  0
  1 15  1  0  0  0  0
  1 17  2  0  0  0  0
  2  3  1  0  0  0  0
  2  4  1  0  0  0  0
  3  5  1  0  0  0  0
  4 10  1  0  0  0  0
  5 11  1  0  0  0  0
  6  8  1  0  0  0  0
  6 14  1  0  0  0  0
  7  9  1  0  0  0  0
  7 14  1  0  0  0  0
  8 16  1  0  0  0  0
  9 16  1  0  0  0  0
 10 11  1  0  0  0  0
 10 13  1  0  0  0  0
 11 14  1  0  0  0  0
 12 13  1  0  0  0  0
  2 18  1  0  0  0  0
  2 19  1  0  0  0  0
  3 20  1  0  0  0  0
  3 21  1  0  0  0  0
  4 22  1  0  0  0  0
  4 23  1  0  0  0  0
  5 24  1  0  0  0  0
  5 25  1  0  0  0  0
  6 26  1  0  0  0  0
  6 27  1  0  0  0  0
  7 28  1  0  0  0  0
  7 29  1  0  0  0  0
  8 30  1  0  0  0  0
  8 31  1  0  0  0  0
  9 32  1  0  0  0  0
 10 33  1  0  0  0  0
 11 34  1  0  0  0  0
 12 35  1  0  0  0  0
 12 36  1  0  0  0  0
 12 37  1  0  0  0  0
 13 38  1  0  0  0  0
 13 39  1  0  0  0  0
 15 40  1  0  0  0  0
 15 41  1  0  0  0  0
M  END
> <FRED Chemgauss4 score>
-7.899636

$$$$
C86525867	P135471773
  -OEChem-05122015313D

 20 20  0     1  0  0  0  0  0999 V2000
  127.4497  107.9585  107.2572 C   0  0  0  0  0  0  0  0  0  0  0  0
  125.5850  107.1000  106.8791 C   0  0  0  0  0  0  0  0  0  0  0  0
  125.0108  103.7998  107.5968 C   0  0  0  0  0  0  0  0  0  0  0  0
  123.5667  105.6264  107.2791 C   0  0  0  0  0  0  0  0  0  0  0  0
  124.3749  106.4341  106.2602 C   0  0  1  0  0  0  0  0  0  0  0  0
  126.7127  107.3760  106.2662 N   0  0  0  0  0  0  0  0  0  0  0  0
  125.6581  107.5041  108.1757 N   0  0  0  0  0  0  0  0  0  0  0  0
  126.8491  108.0604  108.4447 N   0  0  0  0  0  0  0  0  0  0  0  0
  123.5346  107.4093  105.5988 N   0  0  0  0  0  0  0  0  0  0  0  0
  124.4602  104.9740  108.1756 O   0  0  0  0  0  0  0  0  0  0  0  0
  128.4577  108.3157  107.0916 H   0  0  0  0  0  0  0  0  0  0  0  0
  125.6899  103.3253  108.3095 H   0  0  0  0  0  0  0  0  0  0  0  0
  125.5495  104.0613  106.6826 H   0  0  0  0  0  0  0  0  0  0  0  0
  124.1998  103.1090  107.3545 H   0  0  0  0  0  0  0  0  0  0  0  0
  122.9205  106.2814  107.8737 H   0  0  0  0  0  0  0  0  0  0  0  0
  122.9453  104.8636  106.7973 H   0  0  0  0  0  0  0  0  0  0  0  0
  124.7004  105.7560  105.4612 H   0  0  0  0  0  0  0  0  0  0  0  0
  127.0970  108.4246  109.3605 H   0  0  0  0  0  0  0  0  0  0  0  0
  122.5718  107.1823  105.4324 H   0  0  0  0  0  0  0  0  0  0  0  0
  123.9692  108.1914  105.1451 H   0  0  0  0  0  0  0  0  0  0  0  0
  1  6  2  0  0  0  0
  1  8  1  0  0  0  0
  2  5  1  0  0  0  0
  2  6  1  0  0  0  0
  2  7  2  0  0  0  0
  3 10  1  0  0  0  0
  4  5  1  0  0  0  0
  4 10  1  0  0  0  0
  5  9  1  0  0  0  0
  7  8  1  0  0  0  0
  1 11  1  0  0  0  0
  3 12  1  0  0  0  0
  3 13  1  0  0  0  0
  3 14  1  0  0  0  0
  4 15  1  0  0  0  0
  4 16  1  0  0  0  0
  5 17  1  0  0  0  0
  8 18  1  0  0  0  0
  9 19  1  0  0  0  0
  9 20  1  0  0  0  0
M  END
> <FRED Chemgauss4 score>
-7.897949

$$$$
C85004499	P133054972
  -OEChem-05122015313D

 29 29  0     1  0  0  0  0  0999 V2000
  125.6765  107.8816  106.8214 C   0  0  0  0  0  0  0  0  0  0  0  0
  124.8245  108.6510  108.6629 C   0  0  0  0  0  0  0  0  0  0  0  0
  126.1362  105.8010  109.5254 C   0  0  0  0  0  0  0  0  0  0  0  0
  122.3799  109.3558  111.6261 C   0  0  0  0  0  0  0  0  0  0  0  0
  124.2202  108.6818  110.0488 C   0  0  0  0  0  0  0  0  0  0  0  0
  125.0537  106.1477  108.5177 C   0  0  0  0  0  0  0  0  0  0  0  0
  121.7704  108.8816  109.2081 C   0  0  0  0  0  0  0  0  0  0  0  0
  122.8578  109.4113  110.1660 C   0  0  1  0  0  0  0  0  0  0  0  0
  125.6351  109.1910  106.7203 N   0  0  0  0  0  0  0  0  0  0  0  0
  125.0930  109.6805  107.8919 N   0  0  0  0  0  0  0  0  0  0  0  0
  125.1759  107.4983  108.0286 N   0  0  0  0  0  0  0  0  0  0  0  0
  121.9747  109.2559  107.8143 N   0  0  0  0  0  0  0  0  0  0  0  0
  123.0397  110.7983  109.8480 O   0  0  0  0  0  0  0  0  0  0  0  0
  126.0456  107.1892  106.0783 H   0  0  0  0  0  0  0  0  0  0  0  0
  127.1339  105.9059  109.0861 H   0  0  0  0  0  0  0  0  0  0  0  0
  126.0203  104.7675  109.8662 H   0  0  0  0  0  0  0  0  0  0  0  0
  126.0864  106.4570  110.4008 H   0  0  0  0  0  0  0  0  0  0  0  0
  121.4161  109.8652  111.7393 H   0  0  0  0  0  0  0  0  0  0  0  0
  122.2762  108.3286  111.9890 H   0  0  0  0  0  0  0  0  0  0  0  0
  123.0823  109.8788  112.2857 H   0  0  0  0  0  0  0  0  0  0  0  0
  124.1258  107.6524  110.4193 H   0  0  0  0  0  0  0  0  0  0  0  0
  124.9524  109.1650  110.7110 H   0  0  0  0  0  0  0  0  0  0  0  0
  124.0596  106.0398  108.9661 H   0  0  0  0  0  0  0  0  0  0  0  0
  125.0969  105.4717  107.6563 H   0  0  0  0  0  0  0  0  0  0  0  0
  120.7826  109.2301  109.5325 H   0  0  0  0  0  0  0  0  0  0  0  0
  121.7219  107.7874  109.2804 H   0  0  0  0  0  0  0  0  0  0  0  0
  122.2990  110.1789  107.6163 H   0  0  0  0  0  0  0  0  0  0  0  0
  121.5965  108.6623  107.1063 H   0  0  0  0  0  0  0  0  0  0  0  0
  122.1758  111.2155  109.9702 H   0  0  0  0  0  0  0  0  0  0  0  0
  1  9  2  0  0  0  0
  1 11  1  0  0  0  0
  2  5  1  0  0  0  0
  2 10  2  0  0  0  0
  2 11  1  0  0  0  0
  3  6  1  0  0  0  0
  4  8  1  0  0  0  0
  5  8  1  0  0  0  0
  6 11  1  0  0  0  0
  7  8  1  0  0  0  0
  7 12  1  0  0  0  0
  8 13  1  0  0  0  0
  9 10  1  0  0  0  0
  1 14  1  0  0  0  0
  3 15  1  0  0  0  0
  3 16  1  0  0  0  0
  3 17  1  0  0  0  0
  4 18  1  0  0  0  0
  4 19  1  0  0  0  0
  4 20  1  0  0  0  0
  5 21  1  0  0  0  0
  5 22  1  0  0  0  0
  6 23  1  0  0  0  0
  6 24  1  0  0  0  0
  7 25  1  0  0  0  0
  7 26  1  0  0  0  0
 12 27  1  0  0  0  0
 12 28  1  0  0  0  0
 13 29  1  0  0  0  0
M  END
> <FRED Chemgauss4 score>
-7.897914

$$$$
C63135344	P96965078
  -OEChem-05122015313D

 23 23  0     0  0  0  0  0  0999 V2000
  117.0971  103.8533  103.6242 C   0  0  0  0  0  0  0  0  0  0  0  0
  116.1125  104.0815  104.5625 C   0  0  0  0  0  0  0  0  0  0  0  0
  118.3494  103.8457  105.4246 C   0  0  0  0  0  0  0  0  0  0  0  0
  123.0819  105.0048  106.4285 C   0  0  0  0  0  0  0  0  0  0  0  0
  119.5609  103.7583  106.3200 C   0  0  0  0  0  0  0  0  0  0  0  0
  124.1368  104.6467  107.4439 C   0  0  0  0  0  0  0  0  0  0  0  0
  120.8371  104.2554  105.6454 C   0  0  0  0  0  0  0  0  0  0  0  0
  118.3805  103.7182  104.1166 N   0  0  0  0  0  0  0  0  0  0  0  0
  125.4624  105.0237  106.9319 N   0  0  0  0  0  0  0  0  0  0  0  0
  121.9964  104.1436  106.5011 N   0  0  0  0  0  0  0  0  0  0  0  0
  123.1884  105.9459  105.6466 O   0  0  0  0  0  0  0  0  0  0  0  0
  116.8102  104.1290  106.1285 S   0  0  0  0  0  0  0  0  0  0  0  0
  116.9309  103.7753  102.5581 H   0  0  0  0  0  0  0  0  0  0  0  0
  115.0513  104.2158  104.4079 H   0  0  0  0  0  0  0  0  0  0  0  0
  119.6949  102.7122  106.6231 H   0  0  0  0  0  0  0  0  0  0  0  0
  119.3796  104.3197  107.2455 H   0  0  0  0  0  0  0  0  0  0  0  0
  123.9458  105.1827  108.3783 H   0  0  0  0  0  0  0  0  0  0  0  0
  124.1182  103.5695  107.6340 H   0  0  0  0  0  0  0  0  0  0  0  0
  121.0446  103.6568  104.7529 H   0  0  0  0  0  0  0  0  0  0  0  0
  120.7512  105.3037  105.3410 H   0  0  0  0  0  0  0  0  0  0  0  0
  126.2503  104.5477  107.3027 H   0  0  0  0  0  0  0  0  0  0  0  0
  125.5291  105.8602  106.4022 H   0  0  0  0  0  0  0  0  0  0  0  0
  122.0177  103.3972  107.1899 H   0  0  0  0  0  0  0  0  0  0  0  0
  1  2  2  0  0  0  0
  1  8  1  0  0  0  0
  2 12  1  0  0  0  0
  3  5  1  0  0  0  0
  3  8  2  0  0  0  0
  3 12  1  0  0  0  0
  4  6  1  0  0  0  0
  4 10  1  0  0  0  0
  4 11  2  0  0  0  0
  5  7  1  0  0  0  0
  6  9  1  0  0  0  0
  7 10  1  0  0  0  0
  1 13  1  0  0  0  0
  2 14  1  0  0  0  0
  5 15  1  0  0  0  0
  5 16  1  0  0  0  0
  6 17  1  0  0  0  0
  6 18  1  0  0  0  0
  7 19  1  0  0  0  0
  7 20  1  0  0  0  0
  9 21  1  0  0  0  0
  9 22  1  0  0  0  0
 10 23  1  0  0  0  0
M  END
> <FRED Chemgauss4 score>
-7.894786

$$$$
C54497644	P82017894
  -OEChem-05122015313D

 25 25  0     1  0  0  0  0  0999 V2000
  124.7684  109.1112  107.9190 C   0  0  0  0  0  0  0  0  0  0  0  0
  125.6577  107.1426  108.1263 C   0  0  0  0  0  0  0  0  0  0  0  0
  124.1061  104.6400  107.4108 C   0  0  0  0  0  0  0  0  0  0  0  0
  122.9854  108.8789  110.1409 C   0  0  0  0  0  0  0  0  0  0  0  0
  125.5963  104.6482  107.7292 C   0  0  0  0  0  0  0  0  0  0  0  0
  124.0696  107.8313  109.9550 C   0  0  0  0  0  0  0  0  0  0  0  0
  125.9865  105.7781  108.6973 C   0  0  1  0  0  0  0  0  0  0  0  0
  125.5583  108.9241  106.8858 N   0  0  0  0  0  0  0  0  0  0  0  0
  126.1241  107.6717  107.0177 N   0  0  0  0  0  0  0  0  0  0  0  0
  124.8005  108.0146  108.7260 N   0  0  0  0  0  0  0  0  0  0  0  0
  127.3825  105.7053  109.0667 N   0  0  0  0  0  0  0  0  0  0  0  0
  124.1722  109.9889  108.1238 H   0  0  0  0  0  0  0  0  0  0  0  0
  123.7889  105.6013  106.9942 H   0  0  0  0  0  0  0  0  0  0  0  0
  123.8834  103.8620  106.6737 H   0  0  0  0  0  0  0  0  0  0  0  0
  123.5079  104.4366  108.3043 H   0  0  0  0  0  0  0  0  0  0  0  0
  123.4089  109.8887  110.1540 H   0  0  0  0  0  0  0  0  0  0  0  0
  122.4596  108.7169  111.0869 H   0  0  0  0  0  0  0  0  0  0  0  0
  122.2507  108.8357  109.3300 H   0  0  0  0  0  0  0  0  0  0  0  0
  125.8713  103.6698  108.1429 H   0  0  0  0  0  0  0  0  0  0  0  0
  126.1493  104.7611  106.7878 H   0  0  0  0  0  0  0  0  0  0  0  0
  123.6364  106.8248  109.9431 H   0  0  0  0  0  0  0  0  0  0  0  0
  124.7870  107.8669  110.7827 H   0  0  0  0  0  0  0  0  0  0  0  0
  125.4318  105.6396  109.6337 H   0  0  0  0  0  0  0  0  0  0  0  0
  127.8129  104.8027  109.1548 H   0  0  0  0  0  0  0  0  0  0  0  0
  127.8323  106.5296  109.4217 H   0  0  0  0  0  0  0  0  0  0  0  0
  1  8  2  0  0  0  0
  1 10  1  0  0  0  0
  2  7  1  0  0  0  0
  2  9  2  0  0  0  0
  2 10  1  0  0  0  0
  3  5  1  0  0  0  0
  4  6  1  0  0  0  0
  5  7  1  0  0  0  0
  6 10  1  0  0  0  0
  7 11  1  0  0  0  0
  8  9  1  0  0  0  0
  1 12  1  0  0  0  0
  3 13  1  0  0  0  0
  3 14  1  0  0  0  0
  3 15  1  0  0  0  0
  4 16  1  0  0  0  0
  4 17  1  0  0  0  0
  4 18  1  0  0  0  0
  5 19  1  0  0  0  0
  5 20  1  0  0  0  0
  6 21  1  0  0  0  0
  6 22  1  0  0  0  0
  7 23  1  0  0  0  0
 11 24  1  0  0  0  0
 11 25  1  0  0  0  0
M  END
> <FRED Chemgauss4 score>
-7.893765

$$$$
C45014850	P67846596
  -OEChem-05122015313D

 24 24  0     0  0  0  0  0  0999 V2000
  123.7540  109.1341  110.9522 C   0  0  0  0  0  0  0  0  0  0  0  0
  123.5406  110.1453  111.9050 C   0  0  0  0  0  0  0  0  0  0  0  0
  124.1465  109.8190  109.8328 C   0  0  0  0  0  0  0  0  0  0  0  0
  126.1278  107.7462  107.5171 C   0  0  0  0  0  0  0  0  0  0  0  0
  126.5889  106.3307  107.6824 C   0  0  0  0  0  0  0  0  0  0  0  0
  123.1028  109.9908  113.3015 C   0  0  0  0  0  0  0  0  0  0  0  0
  124.5362  109.4038  108.4436 C   0  0  0  0  0  0  0  0  0  0  0  0
  123.7823  111.3640  111.4140 N   0  0  0  0  0  0  0  0  0  0  0  0
  127.6479  104.8427  109.1924 N   0  0  0  0  0  0  0  0  0  0  0  0
  125.1532  108.0982  108.4229 N   0  0  0  0  0  0  0  0  0  0  0  0
  127.1586  106.1009  108.9109 N   0  0  0  0  0  0  0  0  0  0  0  0
  126.6271  108.4095  106.6224 O   0  0  0  0  0  0  0  0  0  0  0  0
  126.4333  105.5662  106.7432 O   0  0  0  0  0  0  0  0  0  0  0  0
  124.1673  111.1507  110.0959 O   0  0  0  0  0  0  0  0  0  0  0  0
  123.6393  108.0657  111.0618 H   0  0  0  0  0  0  0  0  0  0  0  0
  123.9642  109.8736  113.9819 H   0  0  0  0  0  0  0  0  0  0  0  0
  122.5172  110.8588  113.6547 H   0  0  0  0  0  0  0  0  0  0  0  0
  122.4490  109.1105  113.4398 H   0  0  0  0  0  0  0  0  0  0  0  0
  123.6581  109.3723  107.7894 H   0  0  0  0  0  0  0  0  0  0  0  0
  125.2435  110.1153  108.0047 H   0  0  0  0  0  0  0  0  0  0  0  0
  128.4589  104.9690  109.7966 H   0  0  0  0  0  0  0  0  0  0  0  0
  128.0060  104.4620  108.3175 H   0  0  0  0  0  0  0  0  0  0  0  0
  124.8383  107.4150  109.1054 H   0  0  0  0  0  0  0  0  0  0  0  0
  127.2184  106.8442  109.5997 H   0  0  0  0  0  0  0  0  0  0  0  0
  1  2  1  0  0  0  0
  1  3  2  0  0  0  0
  2  6  1  0  0  0  0
  2  8  2  0  0  0  0
  3  7  1  0  0  0  0
  3 14  1  0  0  0  0
  4  5  1  0  0  0  0
  4 10  1  0  0  0  0
  4 12  2  0  0  0  0
  5 11  1  0  0  0  0
  5 13  2  0  0  0  0
  7 10  1  0  0  0  0
  8 14  1  0  0  0  0
  9 11  1  0  0  0  0
  1 15  1  0  0  0  0
  6 16  1  0  0  0  0
  6 17  1  0  0  0  0
  6 18  1  0  0  0  0
  7 19  1  0  0  0  0
  7 20  1  0  0  0  0
  9 21  1  0  0  0  0
  9 22  1  0  0  0  0
 10 23  1  0  0  0  0
 11 24  1  0  0  0  0
M  END
> <FRED Chemgauss4 score>
-7.889126

$$$$
C63169607	P97020609
  -OEChem-05122015313D

 24 24  0     0  0  0  0  0  0999 V2000
  123.2139  110.7004  110.8338 C   0  0  0  0  0  0  0  0  0  0  0  0
  123.7802  108.5929  110.5639 C   0  0  0  0  0  0  0  0  0  0  0  0
  123.0666  109.4189  111.3976 C   0  0  0  0  0  0  0  0  0  0  0  0
  125.1350  107.4771  108.2738 C   0  0  0  0  0  0  0  0  0  0  0  0
  126.3795  105.4520  109.0066 C   0  0  0  0  0  0  0  0  0  0  0  0
  122.3192  109.0459  112.6090 C   0  0  0  0  0  0  0  0  0  0  0  0
  125.1263  108.9783  108.4681 C   0  0  0  0  0  0  0  0  0  0  0  0
  123.9624  110.6941  109.7276 N   0  0  0  0  0  0  0  0  0  0  0  0
  124.2919  109.3986  109.5896 N   0  0  0  0  0  0  0  0  0  0  0  0
  121.4179  110.0853  113.0626 N   0  0  0  0  0  0  0  0  0  0  0  0
  126.1453  106.8774  109.0117 N   0  0  0  0  0  0  0  0  0  0  0  0
  124.3414  106.8838  107.5484 O   0  0  0  0  0  0  0  0  0  0  0  0
  122.8087  111.6401  111.1815 H   0  0  0  0  0  0  0  0  0  0  0  0
  123.9640  107.5272  110.5813 H   0  0  0  0  0  0  0  0  0  0  0  0
  125.8283  104.9777  109.8227 H   0  0  0  0  0  0  0  0  0  0  0  0
  127.4453  105.2436  109.1340 H   0  0  0  0  0  0  0  0  0  0  0  0
  126.0483  105.0179  108.0593 H   0  0  0  0  0  0  0  0  0  0  0  0
  121.7032  108.1398  112.4553 H   0  0  0  0  0  0  0  0  0  0  0  0
  122.9845  108.8153  113.4621 H   0  0  0  0  0  0  0  0  0  0  0  0
  124.7505  109.4670  107.5622 H   0  0  0  0  0  0  0  0  0  0  0  0
  126.1460  109.3356  108.6513 H   0  0  0  0  0  0  0  0  0  0  0  0
  121.1828  110.1267  114.0362 H   0  0  0  0  0  0  0  0  0  0  0  0
  120.8973  110.6020  112.3790 H   0  0  0  0  0  0  0  0  0  0  0  0
  126.7752  107.4586  109.5570 H   0  0  0  0  0  0  0  0  0  0  0  0
  1  3  1  0  0  0  0
  1  8  2  0  0  0  0
  2  3  2  0  0  0  0
  2  9  1  0  0  0  0
  3  6  1  0  0  0  0
  4  7  1  0  0  0  0
  4 11  1  0  0  0  0
  4 12  2  0  0  0  0
  5 11  1  0  0  0  0
  6 10  1  0  0  0  0
  7  9  1  0  0  0  0
  8  9  1  0  0  0  0
  1 13  1  0  0  0  0
  2 14  1  0  0  0  0
  5 15  1  0  0  0  0
  5 16  1  0  0  0  0
  5 17  1  0  0  0  0
  6 18  1  0  0  0  0
  6 19  1  0  0  0  0
  7 20  1  0  0  0  0
  7 21  1  0  0  0  0
 10 22  1  0  0  0  0
 10 23  1  0  0  0  0
 11 24  1  0  0  0  0
M  END
> <FRED Chemgauss4 score>
-7.887203

$$$$
C82897318	P129593492
  -OEChem-05122015313D

 27 27  0     1  0  0  0  0  0999 V2000
  124.1121  107.0568  106.0301 C   0  0  0  0  0  0  0  0  0  0  0  0
  125.8826  106.6871  107.1522 C   0  0  0  0  0  0  0  0  0  0  0  0
  125.1200  105.5507  107.2840 C   0  0  0  0  0  0  0  0  0  0  0  0
  127.2079  106.9719  107.7249 C   0  0  0  0  0  0  0  0  0  0  0  0
  125.3541  104.2879  108.0069 C   0  0  0  0  0  0  0  0  0  0  0  0
  122.8107  104.8779  106.3670 C   0  0  0  0  0  0  0  0  0  0  0  0
  120.2652  104.6650  106.7135 C   0  0  0  0  0  0  0  0  0  0  0  0
  121.5860  105.2590  107.2203 C   0  0  1  0  0  0  0  0  0  0  0  0
  125.2495  107.6210  106.3707 N   0  0  0  0  0  0  0  0  0  0  0  0
  123.9887  105.8026  106.5602 N   0  0  0  0  0  0  0  0  0  0  0  0
  121.8150  104.7969  108.5942 N   0  0  0  0  0  0  0  0  0  0  0  0
  120.3157  103.2447  106.6997 O   0  0  0  0  0  0  0  0  0  0  0  0
  123.3472  107.5025  105.4090 H   0  0  0  0  0  0  0  0  0  0  0  0
  128.0166  106.6527  107.0446 H   0  0  0  0  0  0  0  0  0  0  0  0
  127.3526  108.0482  107.9296 H   0  0  0  0  0  0  0  0  0  0  0  0
  127.3653  106.4583  108.6908 H   0  0  0  0  0  0  0  0  0  0  0  0
  124.9714  104.3421  109.0401 H   0  0  0  0  0  0  0  0  0  0  0  0
  124.8640  103.4296  107.5146 H   0  0  0  0  0  0  0  0  0  0  0  0
  126.4272  104.0328  108.0620 H   0  0  0  0  0  0  0  0  0  0  0  0
  122.5445  104.9008  105.3008 H   0  0  0  0  0  0  0  0  0  0  0  0
  123.1143  103.8416  106.5667 H   0  0  0  0  0  0  0  0  0  0  0  0
  119.4352  104.9707  107.3591 H   0  0  0  0  0  0  0  0  0  0  0  0
  120.0414  105.0153  105.6993 H   0  0  0  0  0  0  0  0  0  0  0  0
  121.4811  106.3504  107.2508 H   0  0  0  0  0  0  0  0  0  0  0  0
  121.0200  104.6625  109.1749 H   0  0  0  0  0  0  0  0  0  0  0  0
  122.7438  104.8345  108.9453 H   0  0  0  0  0  0  0  0  0  0  0  0
  119.4554  102.9370  106.3714 H   0  0  0  0  0  0  0  0  0  0  0  0
  1  9  2  0  0  0  0
  1 10  1  0  0  0  0
  2  3  2  0  0  0  0
  2  4  1  0  0  0  0
  2  9  1  0  0  0  0
  3  5  1  0  0  0  0
  3 10  1  0  0  0  0
  6  8  1  0  0  0  0
  6 10  1  0  0  0  0
  7  8  1  0  0  0  0
  7 12  1  0  0  0  0
  8 11  1  0  0  0  0
  1 13  1  0  0  0  0
  4 14  1  0  0  0  0
  4 15  1  0  0  0  0
  4 16  1  0  0  0  0
  5 17  1  0  0  0  0
  5 18  1  0  0  0  0
  5 19  1  0  0  0  0
  6 20  1  0  0  0  0
  6 21  1  0  0  0  0
  7 22  1  0  0  0  0
  7 23  1  0  0  0  0
  8 24  1  0  0  0  0
 11 25  1  0  0  0  0
 11 26  1  0  0  0  0
 12 27  1  0  0  0  0
M  END
> <FRED Chemgauss4 score>
-7.884593

$$$$
C84405759	P132074113
  -OEChem-05122015313D

 18 18  0     1  0  0  0  0  0999 V2000
  123.1428  107.6399  107.2719 C   0  0  0  0  0  0  0  0  0  0  0  0
  126.6556  107.7898  107.1943 C   0  0  0  0  0  0  0  0  0  0  0  0
  125.0893  108.7499  108.8984 C   0  0  0  0  0  0  0  0  0  0  0  0
  126.1234  106.4096  107.4902 C   0  0  0  0  0  0  0  0  0  0  0  0
  125.6448  106.2919  108.9272 C   0  0  0  0  0  0  0  0  0  0  0  0
  124.6181  107.3620  109.2584 C   0  0  2  0  0  0  0  0  0  0  0  0
  122.9506  108.0629  106.2089 N   0  0  0  0  0  0  0  0  0  0  0  0
  126.0720  108.8248  107.9166 N   0  0  0  0  0  0  0  0  0  0  0  0
  123.3641  107.1476  108.5047 N   0  0  0  0  0  0  0  0  0  0  0  0
  127.5077  107.9771  106.3263 O   0  0  0  0  0  0  0  0  0  0  0  0
  124.5919  109.7510  109.4157 O   0  0  0  0  0  0  0  0  0  0  0  0
  125.2897  106.2038  106.8084 H   0  0  0  0  0  0  0  0  0  0  0  0
  126.9193  105.6839  107.2829 H   0  0  0  0  0  0  0  0  0  0  0  0
  125.2139  105.2856  109.0913 H   0  0  0  0  0  0  0  0  0  0  0  0
  126.5081  106.3633  109.6131 H   0  0  0  0  0  0  0  0  0  0  0  0
  124.3766  107.3618  110.3370 H   0  0  0  0  0  0  0  0  0  0  0  0
  126.4087  109.7601  107.6977 H   0  0  0  0  0  0  0  0  0  0  0  0
  122.8582  106.3089  108.8216 H   0  0  0  0  0  0  0  0  0  0  0  0
  1  7  3  0  0  0  0
  1  9  1  0  0  0  0
  2  4  1  0  0  0  0
  2  8  1  0  0  0  0
  2 10  2  0  0  0  0
  3  6  1  0  0  0  0
  3  8  1  0  0  0  0
  3 11  2  0  0  0  0
  4  5  1  0  0  0  0
  5  6  1  0  0  0  0
  6  9  1  0  0  0  0
  4 12  1  0  0  0  0
  4 13  1  0  0  0  0
  5 14  1  0  0  0  0
  5 15  1  0  0  0  0
  6 16  1  0  0  0  0
  8 17  1  0  0  0  0
  9 18  1  0  0  0  0
M  END
> <FRED Chemgauss4 score>
-7.881789

$$$$
C86434269	P135332511
  -OEChem-05122015313D

 28 27  0     0  0  0  0  0  0999 V2000
  124.7824  108.0960  108.6708 C   0  0  0  0  0  0  0  0  0  0  0  0
  122.8556  106.1564  105.7981 C   0  0  0  0  0  0  0  0  0  0  0  0
  124.7982  107.6623  105.6263 C   0  0  0  0  0  0  0  0  0  0  0  0
  124.4422  106.6659  108.7068 C   0  0  0  0  0  0  0  0  0  0  0  0
  122.1724  105.0074  106.5092 C   0  0  0  0  0  0  0  0  0  0  0  0
  124.8098  105.9596  107.4061 C   0  0  0  0  0  0  0  0  0  0  0  0
  118.8719  103.4986  105.8975 C   0  0  0  0  0  0  0  0  0  0  0  0
  120.2194  103.7015  106.5660 C   0  0  0  0  0  0  0  0  0  0  0  0
  125.0500  109.2248  108.6445 N   0  0  0  0  0  0  0  0  0  0  0  0
  119.0695  103.2151  104.4576 N   0  0  0  0  0  0  0  0  0  0  0  0
  124.1055  106.5547  106.2732 N   0  0  0  0  0  0  0  0  0  0  0  0
  122.2804  106.6894  104.8442 O   0  0  0  0  0  0  0  0  0  0  0  0
  120.9056  104.7765  105.9308 O   0  0  0  0  0  0  0  0  0  0  0  0
  124.5224  108.6070  106.1020 H   0  0  0  0  0  0  0  0  0  0  0  0
  124.5292  107.7096  104.5676 H   0  0  0  0  0  0  0  0  0  0  0  0
  125.8804  107.5302  105.7073 H   0  0  0  0  0  0  0  0  0  0  0  0
  123.3639  106.5621  108.8745 H   0  0  0  0  0  0  0  0  0  0  0  0
  124.9465  106.1882  109.5549 H   0  0  0  0  0  0  0  0  0  0  0  0
  122.7794  104.0993  106.4667 H   0  0  0  0  0  0  0  0  0  0  0  0
  122.0387  105.2598  107.5663 H   0  0  0  0  0  0  0  0  0  0  0  0
  125.8870  106.0501  107.2318 H   0  0  0  0  0  0  0  0  0  0  0  0
  124.5714  104.8916  107.4609 H   0  0  0  0  0  0  0  0  0  0  0  0
  118.3313  102.6569  106.3417 H   0  0  0  0  0  0  0  0  0  0  0  0
  118.2625  104.4030  105.9867 H   0  0  0  0  0  0  0  0  0  0  0  0
  120.8306  102.8000  106.4585 H   0  0  0  0  0  0  0  0  0  0  0  0
  120.1098  103.9337  107.6303 H   0  0  0  0  0  0  0  0  0  0  0  0
  118.3210  103.4316  103.8509 H   0  0  0  0  0  0  0  0  0  0  0  0
  119.8400  102.6475  104.2138 H   0  0  0  0  0  0  0  0  0  0  0  0
  1  4  1  0  0  0  0
  1  9  3  0  0  0  0
  2  5  1  0  0  0  0
  2 11  1  0  0  0  0
  2 12  2  0  0  0  0
  3 11  1  0  0  0  0
  4  6  1  0  0  0  0
  5 13  1  0  0  0  0
  6 11  1  0  0  0  0
  7  8  1  0  0  0  0
  7 10  1  0  0  0  0
  8 13  1  0  0  0  0
  3 14  1  0  0  0  0
  3 15  1  0  0  0  0
  3 16  1  0  0  0  0
  4 17  1  0  0  0  0
  4 18  1  0  0  0  0
  5 19  1  0  0  0  0
  5 20  1  0  0  0  0
  6 21  1  0  0  0  0
  6 22  1  0  0  0  0
  7 23  1  0  0  0  0
  7 24  1  0  0  0  0
  8 25  1  0  0  0  0
  8 26  1  0  0  0  0
 10 27  1  0  0  0  0
 10 28  1  0  0  0  0
M  END
> <FRED Chemgauss4 score>
-7.880523

$$$$
C63065426	P96833787
  -OEChem-05122015313D

 22 22  0     1  0  0  0  0  0999 V2000
  124.7559  108.1939  107.4659 C   0  0  0  0  0  0  0  0  0  0  0  0
  123.9340  106.7856  109.3976 C   0  0  0  0  0  0  0  0  0  0  0  0
  123.5536  106.3739  106.1601 C   0  0  0  0  0  0  0  0  0  0  0  0
  125.9419  106.0389  106.8980 C   0  0  0  0  0  0  0  0  0  0  0  0
  124.8944  107.0697  106.4467 C   0  0  2  0  0  0  0  0  0  0  0  0
  125.0101  109.4709  107.2961 N   0  0  0  0  0  0  0  0  0  0  0  0
  124.7304  110.0690  108.5040 N   0  0  0  0  0  0  0  0  0  0  0  0
  124.3132  109.1760  109.3932 N   0  0  0  0  0  0  0  0  0  0  0  0
  124.3301  108.0047  108.7420 N   0  0  0  0  0  0  0  0  0  0  0  0
  122.4657  107.3758  106.0527 N   0  0  0  0  0  0  0  0  0  0  0  0
  127.2112  106.6704  107.0261 O   0  0  0  0  0  0  0  0  0  0  0  0
  124.8233  106.3448  109.8559 H   0  0  0  0  0  0  0  0  0  0  0  0
  123.1824  107.0096  110.1596 H   0  0  0  0  0  0  0  0  0  0  0  0
  123.5038  106.1021  108.6603 H   0  0  0  0  0  0  0  0  0  0  0  0
  123.2862  105.6457  106.9326 H   0  0  0  0  0  0  0  0  0  0  0  0
  123.6017  105.8410  105.2035 H   0  0  0  0  0  0  0  0  0  0  0  0
  125.6833  105.5761  107.8561 H   0  0  0  0  0  0  0  0  0  0  0  0
  126.0428  105.2456  106.1494 H   0  0  0  0  0  0  0  0  0  0  0  0
  125.2555  107.5115  105.5069 H   0  0  0  0  0  0  0  0  0  0  0  0
  122.4814  108.1229  106.6969 H   0  0  0  0  0  0  0  0  0  0  0  0
  121.6906  107.1349  105.4918 H   0  0  0  0  0  0  0  0  0  0  0  0
  127.8354  105.9844  107.3110 H   0  0  0  0  0  0  0  0  0  0  0  0
  1  5  1  0  0  0  0
  1  6  2  0  0  0  0
  1  9  1  0  0  0  0
  2  9  1  0  0  0  0
  3  5  1  0  0  0  0
  3 10  1  0  0  0  0
  4  5  1  0  0  0  0
  4 11  1  0  0  0  0
  6  7  1  0  0  0  0
  7  8  2  0  0  0  0
  8  9  1  0  0  0  0
  2 12  1  0  0  0  0
  2 13  1  0  0  0  0
  2 14  1  0  0  0  0
  3 15  1  0  0  0  0
  3 16  1  0  0  0  0
  4 17  1  0  0  0  0
  4 18  1  0  0  0  0
  5 19  1  0  0  0  0
 10 20  1  0  0  0  0
 10 21  1  0  0  0  0
 11 22  1  0  0  0  0
M  END
> <FRED Chemgauss4 score>
-7.877380

$$$$
C87548480	P136945367
  -OEChem-05122015313D

 29 30  0     1  0  0  0  0  0999 V2000
  122.9844  106.3379  106.0947 C   0  0  0  0  0  0  0  0  0  0  0  0
  124.8319  106.6784  106.9609 C   0  0  0  0  0  0  0  0  0  0  0  0
  121.3815  104.2971  105.7807 C   0  0  0  0  0  0  0  0  0  0  0  0
  120.9173  105.0223  107.0050 C   0  0  0  0  0  0  0  0  0  0  0  0
  121.5767  105.7994  105.8798 C   0  0  0  0  0  0  0  0  0  0  0  0
  120.6904  106.6723  105.0265 C   0  0  0  0  0  0  0  0  0  0  0  0
  125.8632  104.3811  108.7541 C   0  0  0  0  0  0  0  0  0  0  0  0
  126.1006  106.7625  107.7984 C   0  0  2  0  0  0  0  0  0  0  0  0
  126.0046  105.8707  109.0604 C   0  0  2  0  0  0  0  0  0  0  0  0
  123.7307  106.0082  107.1885 N   0  0  0  0  0  0  0  0  0  0  0  0
  123.5672  107.1647  105.2215 N   0  0  0  0  0  0  0  0  0  0  0  0
  126.3943  108.1595  108.1367 N   0  0  0  0  0  0  0  0  0  0  0  0
  124.8182  107.3961  105.8072 O   0  0  0  0  0  0  0  0  0  0  0  0
  127.1963  106.0317  109.8375 O   0  0  0  0  0  0  0  0  0  0  0  0
  122.2527  103.6577  105.8758 H   0  0  0  0  0  0  0  0  0  0  0  0
  120.6247  103.9040  105.1101 H   0  0  0  0  0  0  0  0  0  0  0  0
  119.8476  105.1168  107.1593 H   0  0  0  0  0  0  0  0  0  0  0  0
  121.4772  104.8713  107.9220 H   0  0  0  0  0  0  0  0  0  0  0  0
  119.6976  106.2242  104.9154 H   0  0  0  0  0  0  0  0  0  0  0  0
  121.1210  106.8022  104.0283 H   0  0  0  0  0  0  0  0  0  0  0  0
  120.5707  107.6620  105.4794 H   0  0  0  0  0  0  0  0  0  0  0  0
  126.6752  104.0157  108.1192 H   0  0  0  0  0  0  0  0  0  0  0  0
  124.9079  104.1716  108.2604 H   0  0  0  0  0  0  0  0  0  0  0  0
  125.8701  103.7997  109.6830 H   0  0  0  0  0  0  0  0  0  0  0  0
  126.9351  106.3927  107.1875 H   0  0  0  0  0  0  0  0  0  0  0  0
  125.1661  106.1760  109.6967 H   0  0  0  0  0  0  0  0  0  0  0  0
  126.1614  108.8561  107.4673 H   0  0  0  0  0  0  0  0  0  0  0  0
  126.9885  108.3316  108.9146 H   0  0  0  0  0  0  0  0  0  0  0  0
  127.0682  105.5054  110.6396 H   0  0  0  0  0  0  0  0  0  0  0  0
  1  5  1  0  0  0  0
  1 10  1  0  0  0  0
  1 11  2  0  0  0  0
  2  8  1  0  0  0  0
  2 10  2  0  0  0  0
  2 13  1  0  0  0  0
  3  4  1  0  0  0  0
  3  5  1  0  0  0  0
  4  5  1  0  0  0  0
  5  6  1  0  0  0  0
  7  9  1  0  0  0  0
  8  9  1  0  0  0  0
  8 12  1  0  0  0  0
  9 14  1  0  0  0  0
 11 13  1  0  0  0  0
  3 15  1  0  0  0  0
  3 16  1  0  0  0  0
  4 17  1  0  0  0  0
  4 18  1  0  0  0  0
  6 19  1  0  0  0  0
  6 20  1  0  0  0  0
  6 21  1  0  0  0  0
  7 22  1  0  0  0  0
  7 23  1  0  0  0  0
  7 24  1  0  0  0  0
  8 25  1  0  0  0  0
  9 26  1  0  0  0  0
 12 27  1  0  0  0  0
 12 28  1  0  0  0  0
 14 29  1  0  0  0  0
M  END
> <FRED Chemgauss4 score>
-7.877038

$$$$
C85353245	P133560517
  -OEChem-05122015313D

 24 25  0     1  0  0  0  0  0999 V2000
  123.8114  108.3073  108.2676 C   0  0  0  0  0  0  0  0  0  0  0  0
  122.5556  108.8817  109.8329 C   0  0  0  0  0  0  0  0  0  0  0  0
  124.7150  107.3211  106.0600 C   0  0  0  0  0  0  0  0  0  0  0  0
  126.4688  106.7332  107.4886 C   0  0  0  0  0  0  0  0  0  0  0  0
  124.8146  108.4083  107.1280 C   0  0  2  0  0  0  0  0  0  0  0  0
  126.2454  108.2336  107.6333 C   0  0  2  0  0  0  0  0  0  0  0  0
  121.7771  109.5773  110.8702 C   0  0  0  0  0  0  0  0  0  0  0  0
  123.3937  109.4030  108.9673 N   0  0  0  0  0  0  0  0  0  0  0  0
  123.2845  107.1408  108.6458 N   0  0  0  0  0  0  0  0  0  0  0  0
  122.4849  107.5361  109.6482 N   0  0  0  0  0  0  0  0  0  0  0  0
  127.1900  108.9678  106.7860 N   0  0  0  0  0  0  0  0  0  0  0  0
  125.6077  106.2639  106.4412 O   0  0  0  0  0  0  0  0  0  0  0  0
  123.7067  106.9143  105.9324 H   0  0  0  0  0  0  0  0  0  0  0  0
  125.0573  107.6977  105.0895 H   0  0  0  0  0  0  0  0  0  0  0  0
  127.5034  106.4536  107.2638 H   0  0  0  0  0  0  0  0  0  0  0  0
  126.1786  106.2109  108.4074 H   0  0  0  0  0  0  0  0  0  0  0  0
  124.6562  109.4200  106.6813 H   0  0  0  0  0  0  0  0  0  0  0  0
  126.3873  108.5614  108.6761 H   0  0  0  0  0  0  0  0  0  0  0  0
  120.7935  109.8991  110.4860 H   0  0  0  0  0  0  0  0  0  0  0  0
  121.5952  108.9400  111.7544 H   0  0  0  0  0  0  0  0  0  0  0  0
  122.2954  110.4769  111.2491 H   0  0  0  0  0  0  0  0  0  0  0  0
  121.9361  106.8447  110.1457 H   0  0  0  0  0  0  0  0  0  0  0  0
  128.1197  108.6201  106.7171 H   0  0  0  0  0  0  0  0  0  0  0  0
  126.9309  109.8794  106.4831 H   0  0  0  0  0  0  0  0  0  0  0  0
  1  5  1  0  0  0  0
  1  8  1  0  0  0  0
  1  9  2  0  0  0  0
  2  7  1  0  0  0  0
  2  8  2  0  0  0  0
  2 10  1  0  0  0  0
  3  5  1  0  0  0  0
  3 12  1  0  0  0  0
  4  6  1  0  0  0  0
  4 12  1  0  0  0  0
  5  6  1  0  0  0  0
  6 11  1  0  0  0  0
  9 10  1  0  0  0  0
  3 13  1  0  0  0  0
  3 14  1  0  0  0  0
  4 15  1  0  0  0  0
  4 16  1  0  0  0  0
  5 17  1  0  0  0  0
  6 18  1  0  0  0  0
  7 19  1  0  0  0  0
  7 20  1  0  0  0  0
  7 21  1  0  0  0  0
 10 22  1  0  0  0  0
 11 23  1  0  0  0  0
 11 24  1  0  0  0  0
M  END
> <FRED Chemgauss4 score>
-7.876863

$$$$
C86752271	P135821318
  -OEChem-05122015313D

 27 28  0     1  0  0  0  0  0999 V2000
  124.6648  104.4949  107.7283 C   0  0  0  0  0  0  0  0  0  0  0  0
  117.8853  104.2105  106.5475 C   0  0  0  0  0  0  0  0  0  0  0  0
  117.8497  105.5845  106.5121 C   0  0  0  0  0  0  0  0  0  0  0  0
  125.8792  104.8676  107.2009 C   0  0  0  0  0  0  0  0  0  0  0  0
  124.3792  106.0715  106.1762 C   0  0  0  0  0  0  0  0  0  0  0  0
  123.6906  105.2766  107.0627 C   0  0  0  0  0  0  0  0  0  0  0  0
  119.8992  104.8240  106.2339 C   0  0  0  0  0  0  0  0  0  0  0  0
  119.6191  107.3234  106.2015 C   0  0  0  0  0  0  0  0  0  0  0  0
  121.3944  104.8594  106.0134 C   0  0  0  0  0  0  0  0  0  0  0  0
  122.1876  105.2459  107.2817 C   0  0  1  0  0  0  0  0  0  0  0  0
  119.1641  103.7433  106.3740 N   0  0  0  0  0  0  0  0  0  0  0  0
  119.1471  105.9631  106.3110 N   0  0  0  0  0  0  0  0  0  0  0  0
  121.8358  104.3325  108.3774 N   0  0  0  0  0  0  0  0  0  0  0  0
  125.7139  105.8284  106.2542 O   0  0  0  0  0  0  0  0  0  0  0  0
  124.5057  103.7518  108.4967 H   0  0  0  0  0  0  0  0  0  0  0  0
  117.0553  103.5339  106.6891 H   0  0  0  0  0  0  0  0  0  0  0  0
  117.0431  106.2978  106.6092 H   0  0  0  0  0  0  0  0  0  0  0  0
  126.8989  104.5608  107.3822 H   0  0  0  0  0  0  0  0  0  0  0  0
  124.0840  106.8222  105.4573 H   0  0  0  0  0  0  0  0  0  0  0  0
  119.8797  107.6718  107.2043 H   0  0  0  0  0  0  0  0  0  0  0  0
  120.4945  107.3535  105.5467 H   0  0  0  0  0  0  0  0  0  0  0  0
  118.8294  107.9464  105.7723 H   0  0  0  0  0  0  0  0  0  0  0  0
  121.5946  105.5858  105.2132 H   0  0  0  0  0  0  0  0  0  0  0  0
  121.7317  103.8921  105.6182 H   0  0  0  0  0  0  0  0  0  0  0  0
  121.8653  106.2452  107.6012 H   0  0  0  0  0  0  0  0  0  0  0  0
  120.9047  103.9894  108.4096 H   0  0  0  0  0  0  0  0  0  0  0  0
  122.4696  104.2612  109.1384 H   0  0  0  0  0  0  0  0  0  0  0  0
  1  4  2  0  0  0  0
  1  6  1  0  0  0  0
  2  3  2  0  0  0  0
  2 11  1  0  0  0  0
  3 12  1  0  0  0  0
  4 14  1  0  0  0  0
  5  6  2  0  0  0  0
  5 14  1  0  0  0  0
  6 10  1  0  0  0  0
  7  9  1  0  0  0  0
  7 11  2  0  0  0  0
  7 12  1  0  0  0  0
  8 12  1  0  0  0  0
  9 10  1  0  0  0  0
 10 13  1  0  0  0  0
  1 15  1  0  0  0  0
  2 16  1  0  0  0  0
  3 17  1  0  0  0  0
  4 18  1  0  0  0  0
  5 19  1  0  0  0  0
  8 20  1  0  0  0  0
  8 21  1  0  0  0  0
  8 22  1  0  0  0  0
  9 23  1  0  0  0  0
  9 24  1  0  0  0  0
 10 25  1  0  0  0  0
 13 26  1  0  0  0  0
 13 27  1  0  0  0  0
M  END
> <FRED Chemgauss4 score>
-7.876054

$$$$
C86590475	P135571658
  -OEChem-05122015313D

 25 25  0     1  0  0  0  0  0999 V2000
  125.0652  108.3889  108.0205 C   0  0  0  0  0  0  0  0  0  0  0  0
  122.9387  107.4771  109.0182 C   0  0  0  0  0  0  0  0  0  0  0  0
  123.5997  109.3918  111.1690 C   0  0  0  0  0  0  0  0  0  0  0  0
  125.4281  105.9173  107.5276 C   0  0  0  0  0  0  0  0  0  0  0  0
  125.9807  105.4792  108.8795 C   0  0  0  0  0  0  0  0  0  0  0  0
  124.2660  108.2191  109.2445 C   0  0  2  0  0  0  0  0  0  0  0  0
  125.4257  109.5119  107.4432 N   0  0  0  0  0  0  0  0  0  0  0  0
  126.1562  109.1426  106.3364 N   0  0  0  0  0  0  0  0  0  0  0  0
  126.2410  107.8214  106.2399 N   0  0  0  0  0  0  0  0  0  0  0  0
  125.5582  107.3525  107.2936 N   0  0  0  0  0  0  0  0  0  0  0  0
  125.8679  104.0608  109.0878 N   0  0  0  0  0  0  0  0  0  0  0  0
  123.9500  109.5069  109.8031 O   0  0  0  0  0  0  0  0  0  0  0  0
  122.3486  107.9669  108.2370 H   0  0  0  0  0  0  0  0  0  0  0  0
  122.3417  107.4502  109.9367 H   0  0  0  0  0  0  0  0  0  0  0  0
  123.1056  106.4342  108.7272 H   0  0  0  0  0  0  0  0  0  0  0  0
  123.3645  110.3807  111.5702 H   0  0  0  0  0  0  0  0  0  0  0  0
  124.4317  108.9504  111.7235 H   0  0  0  0  0  0  0  0  0  0  0  0
  122.7223  108.7469  111.2579 H   0  0  0  0  0  0  0  0  0  0  0  0
  125.9669  105.4109  106.7177 H   0  0  0  0  0  0  0  0  0  0  0  0
  124.3688  105.6524  107.4270 H   0  0  0  0  0  0  0  0  0  0  0  0
  127.0449  105.7255  108.9463 H   0  0  0  0  0  0  0  0  0  0  0  0
  125.4608  105.9749  109.7056 H   0  0  0  0  0  0  0  0  0  0  0  0
  124.8105  107.6727  110.0439 H   0  0  0  0  0  0  0  0  0  0  0  0
  125.8467  103.7026  110.0294 H   0  0  0  0  0  0  0  0  0  0  0  0
  126.0160  103.4368  108.3105 H   0  0  0  0  0  0  0  0  0  0  0  0
  1  6  1  0  0  0  0
  1  7  2  0  0  0  0
  1 10  1  0  0  0  0
  2  6  1  0  0  0  0
  3 12  1  0  0  0  0
  4  5  1  0  0  0  0
  4 10  1  0  0  0  0
  5 11  1  0  0  0  0
  6 12  1  0  0  0  0
  7  8  1  0  0  0  0
  8  9  2  0  0  0  0
  9 10  1  0  0  0  0
  2 13  1  0  0  0  0
  2 14  1  0  0  0  0
  2 15  1  0  0  0  0
  3 16  1  0  0  0  0
  3 17  1  0  0  0  0
  3 18  1  0  0  0  0
  4 19  1  0  0  0  0
  4 20  1  0  0  0  0
  5 21  1  0  0  0  0
  5 22  1  0  0  0  0
  6 23  1  0  0  0  0
 11 24  1  0  0  0  0
 11 25  1  0  0  0  0
M  END
> <FRED Chemgauss4 score>
-7.873001

$$$$
C83746260	P131008103
  -OEChem-05122015313D

 21 22  0     1  0  0  0  0  0999 V2000
  125.0955  109.3149  108.0313 C   0  0  0  0  0  0  0  0  0  0  0  0
  124.2090  107.7695  109.5420 C   0  0  0  0  0  0  0  0  0  0  0  0
  124.0199  110.0044  109.9113 C   0  0  0  0  0  0  0  0  0  0  0  0
  125.0991  103.6424  109.0299 C   0  0  0  0  0  0  0  0  0  0  0  0
  124.8905  107.9910  108.3627 C   0  0  0  0  0  0  0  0  0  0  0  0
  125.0660  105.4826  108.0452 C   0  0  0  0  0  0  0  0  0  0  0  0
  125.3700  106.8789  107.5071 C   0  0  2  0  0  0  0  0  0  0  0  0
  124.6723  110.3506  108.7852 N   0  0  0  0  0  0  0  0  0  0  0  0
  123.7578  108.7563  110.3438 N   0  0  0  0  0  0  0  0  0  0  0  0
  125.8121  104.7973  108.8802 N   0  0  0  0  0  0  0  0  0  0  0  0
  123.9614  104.7592  107.7190 N   0  0  0  0  0  0  0  0  0  0  0  0
  123.9588  103.5699  108.3401 N   0  0  0  0  0  0  0  0  0  0  0  0
  126.8172  106.9955  107.2318 N   0  0  0  0  0  0  0  0  0  0  0  0
  125.6210  109.5948  107.1235 H   0  0  0  0  0  0  0  0  0  0  0  0
  123.9974  106.7638  109.8914 H   0  0  0  0  0  0  0  0  0  0  0  0
  123.6699  110.8170  110.5360 H   0  0  0  0  0  0  0  0  0  0  0  0
  125.4362  102.8356  109.6674 H   0  0  0  0  0  0  0  0  0  0  0  0
  124.9147  106.9366  106.4981 H   0  0  0  0  0  0  0  0  0  0  0  0
  123.2165  102.8854  108.2247 H   0  0  0  0  0  0  0  0  0  0  0  0
  127.1840  107.9072  107.1218 H   0  0  0  0  0  0  0  0  0  0  0  0
  127.2954  106.1697  106.9723 H   0  0  0  0  0  0  0  0  0  0  0  0
  1  5  1  0  0  0  0
  1  8  2  0  0  0  0
  2  5  2  0  0  0  0
  2  9  1  0  0  0  0
  3  8  1  0  0  0  0
  3  9  2  0  0  0  0
  4 10  2  0  0  0  0
  4 12  1  0  0  0  0
  5  7  1  0  0  0  0
  6  7  1  0  0  0  0
  6 10  1  0  0  0  0
  6 11  2  0  0  0  0
  7 13  1  0  0  0  0
 11 12  1  0  0  0  0
  1 14  1  0  0  0  0
  2 15  1  0  0  0  0
  3 16  1  0  0  0  0
  4 17  1  0  0  0  0
  7 18  1  0  0  0  0
 12 19  1  0  0  0  0
 13 20  1  0  0  0  0
 13 21  1  0  0  0  0
M  END
> <FRED Chemgauss4 score>
-7.872380

$$$$
C91396858	P143009131
  -OEChem-05122015313D

 50 51  0     1  0  0  0  0  0999 V2000
  122.8128  108.6731  112.2284 C   0  0  0  0  0  0  0  0  0  0  0  0
  124.3678  106.4263  106.3076 C   0  0  0  0  0  0  0  0  0  0  0  0
  122.6430  110.1883  112.0723 C   0  0  0  0  0  0  0  0  0  0  0  0
  124.5863  105.7352  107.6556 C   0  0  0  0  0  0  0  0  0  0  0  0
  124.0641  108.6488  107.4920 C   0  0  0  0  0  0  0  0  0  0  0  0
  123.7769  108.0594  111.2059 C   0  0  0  0  0  0  0  0  0  0  0  0
  123.9109  110.1111  109.8881 C   0  0  0  0  0  0  0  0  0  0  0  0
  124.7422  107.9156  106.3224 C   0  0  1  0  0  0  0  0  0  0  0  0
  124.3020  107.9615  108.8456 C   0  0  2  0  0  0  0  0  0  0  0  0
  123.8002  110.7831  111.2717 C   0  0  1  0  0  0  0  0  0  0  0  0
  123.9241  106.4715  108.8223 C   0  0  1  0  0  0  0  0  0  0  0  0
  126.2610  108.1133  106.3350 C   0  0  0  0  0  0  0  0  0  0  0  0
  124.0916  112.9187  112.3319 C   0  0  0  0  0  0  0  0  0  0  0  0
  122.2660  112.5724  110.8087 C   0  0  0  0  0  0  0  0  0  0  0  0
  121.9866  104.9001  108.6988 C   0  0  0  0  0  0  0  0  0  0  0  0
  123.5826  108.6750  109.8957 N   0  0  1  0  0  0  0  0  0  0  0  0
  123.6535  112.2296  111.1188 N   0  0  0  0  0  0  0  0  0  0  0  0
  122.4427  106.3123  108.7124 N   0  3  0  0  0  0  0  0  0  0  0  0
  123.1717  108.4518  113.2503 H   0  0  0  0  0  0  0  0  0  0  0  0
  121.8263  108.1847  112.1437 H   0  0  0  0  0  0  0  0  0  0  0  0
  124.9407  105.9009  105.5339 H   0  0  0  0  0  0  0  0  0  0  0  0
  123.3134  106.3299  106.0203 H   0  0  0  0  0  0  0  0  0  0  0  0
  121.6845  110.3868  111.5699 H   0  0  0  0  0  0  0  0  0  0  0  0
  122.5803  110.6526  113.0662 H   0  0  0  0  0  0  0  0  0  0  0  0
  124.2167  104.7040  107.5973 H   0  0  0  0  0  0  0  0  0  0  0  0
  125.6633  105.6619  107.8502 H   0  0  0  0  0  0  0  0  0  0  0  0
  124.4214  109.6863  107.5307 H   0  0  0  0  0  0  0  0  0  0  0  0
  122.9866  108.7084  107.2883 H   0  0  0  0  0  0  0  0  0  0  0  0
  124.7977  108.2350  111.5570 H   0  0  0  0  0  0  0  0  0  0  0  0
  123.6215  106.9767  111.1627 H   0  0  0  0  0  0  0  0  0  0  0  0
  123.2664  110.6459  109.1567 H   0  0  0  0  0  0  0  0  0  0  0  0
  124.9491  110.2426  109.5193 H   0  0  0  0  0  0  0  0  0  0  0  0
  124.3740  108.3620  105.3892 H   0  0  0  0  0  0  0  0  0  0  0  0
  125.3703  108.0319  109.0853 H   0  0  0  0  0  0  0  0  0  0  0  0
  124.7414  110.5997  111.8187 H   0  0  0  0  0  0  0  0  0  0  0  0
  124.1979  105.9904  109.7685 H   0  0  0  0  0  0  0  0  0  0  0  0
  126.6769  107.6861  107.2442 H   0  0  0  0  0  0  0  0  0  0  0  0
  126.4908  109.1754  106.2984 H   0  0  0  0  0  0  0  0  0  0  0  0
  126.7002  107.6197  105.4715 H   0  0  0  0  0  0  0  0  0  0  0  0
  123.9795  113.9994  112.2115 H   0  0  0  0  0  0  0  0  0  0  0  0
  125.1421  112.6944  112.5355 H   0  0  0  0  0  0  0  0  0  0  0  0
  123.4921  112.5959  113.1874 H   0  0  0  0  0  0  0  0  0  0  0  0
  122.1627  113.6547  110.6956 H   0  0  0  0  0  0  0  0  0  0  0  0
  121.6052  112.2379  111.6131 H   0  0  0  0  0  0  0  0  0  0  0  0
  121.9566  112.0902  109.8776 H   0  0  0  0  0  0  0  0  0  0  0  0
  122.4735  104.4000  107.8595 H   0  0  0  0  0  0  0  0  0  0  0  0
  122.2766  104.4461  109.6482 H   0  0  0  0  0  0  0  0  0  0  0  0
  120.9015  104.9006  108.5792 H   0  0  0  0  0  0  0  0  0  0  0  0
  121.9985  106.8077  109.4946 H   0  0  0  0  0  0  0  0  0  0  0  0
  122.1226  106.7836  107.8579 H   0  0  0  0  0  0  0  0  0  0  0  0
  1  3  1  0  0  0  0
  1  6  1  0  0  0  0
  2  4  1  0  0  0  0
  2  8  1  0  0  0  0
  3 10  1  0  0  0  0
  4 11  1  0  0  0  0
  5  8  1  0  0  0  0
  5  9  1  0  0  0  0
  6 16  1  0  0  0  0
  7 10  1  0  0  0  0
  7 16  1  0  0  0  0
  8 12  1  0  0  0  0
  9 11  1  0  0  0  0
  9 16  1  0  0  0  0
 10 17  1  0  0  0  0
 11 18  1  0  0  0  0
 13 17  1  0  0  0  0
 14 17  1  0  0  0  0
 15 18  1  0  0  0  0
  1 19  1  0  0  0  0
  1 20  1  0  0  0  0
  2 21  1  0  0  0  0
  2 22  1  0  0  0  0
  3 23  1  0  0  0  0
  3 24  1  0  0  0  0
  4 25  1  0  0  0  0
  4 26  1  0  0  0  0
  5 27  1  0  0  0  0
  5 28  1  0  0  0  0
  6 29  1  0  0  0  0
  6 30  1  0  0  0  0
  7 31  1  0  0  0  0
  7 32  1  0  0  0  0
  8 33  1  0  0  0  0
  9 34  1  0  0  0  0
 10 35  1  0  0  0  0
 11 36  1  0  0  0  0
 12 37  1  0  0  0  0
 12 38  1  0  0  0  0
 12 39  1  0  0  0  0
 13 40  1  0  0  0  0
 13 41  1  0  0  0  0
 13 42  1  0  0  0  0
 14 43  1  0  0  0  0
 14 44  1  0  0  0  0
 14 45  1  0  0  0  0
 15 46  1  0  0  0  0
 15 47  1  0  0  0  0
 15 48  1  0  0  0  0
 18 49  1  0  0  0  0
 18 50  1  0  0  0  0
M  CHG  1  18   1
M  END
> <FRED Chemgauss4 score>
-7.870757

$$$$
C83917955	P131300722
  -OEChem-05122015313D

 28 27  0     1  0  0  0  0  0999 V2000
  125.1615  104.6025  107.2923 C   0  0  0  0  0  0  0  0  0  0  0  0
  126.7381  107.3978  107.4757 C   0  0  0  0  0  0  0  0  0  0  0  0
  124.9552  109.0412  107.9121 C   0  0  0  0  0  0  0  0  0  0  0  0
  123.0160  105.6377  108.2177 C   0  0  0  0  0  0  0  0  0  0  0  0
  123.9675  109.0078  109.0641 C   0  0  0  0  0  0  0  0  0  0  0  0
  123.8910  105.3883  106.9846 C   0  0  1  0  0  0  0  0  0  0  0  0
  122.5698  104.3963  108.8399 N   0  0  0  0  0  0  0  0  0  0  0  0
  125.2762  107.6545  107.4913 N   0  0  1  0  0  0  0  0  0  0  0  0
  123.0965  107.7106  106.0919 O   0  0  0  0  0  0  0  0  0  0  0  0
  125.1602  106.6718  105.0968 O   0  0  0  0  0  0  0  0  0  0  0  0
  123.6904  110.3368  109.4871 O   0  0  0  0  0  0  0  0  0  0  0  0
  124.3223  106.9505  106.2479 S   0  0  0  0  0  0  0  0  0  0  0  0
  125.7629  105.1067  108.0566 H   0  0  0  0  0  0  0  0  0  0  0  0
  125.7797  104.4722  106.3989 H   0  0  0  0  0  0  0  0  0  0  0  0
  124.9185  103.6039  107.6720 H   0  0  0  0  0  0  0  0  0  0  0  0
  126.9356  106.3695  107.1619 H   0  0  0  0  0  0  0  0  0  0  0  0
  127.1588  107.5481  108.4737 H   0  0  0  0  0  0  0  0  0  0  0  0
  127.2342  108.0796  106.7799 H   0  0  0  0  0  0  0  0  0  0  0  0
  124.5417  109.5742  107.0501 H   0  0  0  0  0  0  0  0  0  0  0  0
  125.8851  109.5276  108.2217 H   0  0  0  0  0  0  0  0  0  0  0  0
  123.5831  106.2095  108.9614 H   0  0  0  0  0  0  0  0  0  0  0  0
  122.1434  106.2454  107.9504 H   0  0  0  0  0  0  0  0  0  0  0  0
  124.3987  108.4664  109.9119 H   0  0  0  0  0  0  0  0  0  0  0  0
  123.0274  108.5272  108.7744 H   0  0  0  0  0  0  0  0  0  0  0  0
  123.3143  104.8571  106.2180 H   0  0  0  0  0  0  0  0  0  0  0  0
  121.7355  104.4170  109.3869 H   0  0  0  0  0  0  0  0  0  0  0  0
  123.2074  103.6292  108.8703 H   0  0  0  0  0  0  0  0  0  0  0  0
  123.0583  110.2705  110.2208 H   0  0  0  0  0  0  0  0  0  0  0  0
  1  6  1  0  0  0  0
  2  8  1  0  0  0  0
  3  5  1  0  0  0  0
  3  8  1  0  0  0  0
  4  6  1  0  0  0  0
  4  7  1  0  0  0  0
  5 11  1  0  0  0  0
  6 12  1  0  0  0  0
  8 12  1  0  0  0  0
  9 12  2  0  0  0  0
 10 12  2  0  0  0  0
  1 13  1  0  0  0  0
  1 14  1  0  0  0  0
  1 15  1  0  0  0  0
  2 16  1  0  0  0  0
  2 17  1  0  0  0  0
  2 18  1  0  0  0  0
  3 19  1  0  0  0  0
  3 20  1  0  0  0  0
  4 21  1  0  0  0  0
  4 22  1  0  0  0  0
  5 23  1  0  0  0  0
  5 24  1  0  0  0  0
  6 25  1  0  0  0  0
  7 26  1  0  0  0  0
  7 27  1  0  0  0  0
 11 28  1  0  0  0  0
M  END
> <FRED Chemgauss4 score>
-7.870540

$$$$
C85544558	P133897552
  -OEChem-05122015313D

 24 24  0     0  0  0  0  0  0999 V2000
  124.4650  104.1908  107.7625 C   0  0  0  0  0  0  0  0  0  0  0  0
  124.0565  105.2227  106.9437 C   0  0  0  0  0  0  0  0  0  0  0  0
  125.9754  106.0600  107.5970 C   0  0  0  0  0  0  0  0  0  0  0  0
  122.7747  105.2237  106.1926 C   0  0  0  0  0  0  0  0  0  0  0  0
  119.6017  104.5192  106.5197 C   0  0  0  0  0  0  0  0  0  0  0  0
  127.1199  106.9850  107.7458 C   0  0  0  0  0  0  0  0  0  0  0  0
  120.7137  103.9434  105.6736 C   0  0  0  0  0  0  0  0  0  0  0  0
  124.9211  106.2956  106.8479 N   0  0  0  0  0  0  0  0  0  0  0  0
  120.0626  105.0274  107.7152 N   0  0  0  0  0  0  0  0  0  0  0  0
  127.3525  107.7830  106.5630 N   0  0  0  0  0  0  0  0  0  0  0  0
  121.9674  104.1005  106.3507 N   0  0  0  0  0  0  0  0  0  0  0  0
  122.5031  106.1794  105.4706 O   0  0  0  0  0  0  0  0  0  0  0  0
  118.4273  104.5714  106.1648 O   0  0  0  0  0  0  0  0  0  0  0  0
  125.9931  104.5675  108.4438 S   0  0  0  0  0  0  0  0  0  0  0  0
  123.9602  103.2620  107.9883 H   0  0  0  0  0  0  0  0  0  0  0  0
  126.9704  107.6884  108.5828 H   0  0  0  0  0  0  0  0  0  0  0  0
  128.0611  106.4502  107.9588 H   0  0  0  0  0  0  0  0  0  0  0  0
  120.7808  104.4602  104.7125 H   0  0  0  0  0  0  0  0  0  0  0  0
  120.5356  102.8767  105.5123 H   0  0  0  0  0  0  0  0  0  0  0  0
  121.0490  104.9935  107.9504 H   0  0  0  0  0  0  0  0  0  0  0  0
  119.4450  105.4517  108.3999 H   0  0  0  0  0  0  0  0  0  0  0  0
  128.2792  108.1255  106.3849 H   0  0  0  0  0  0  0  0  0  0  0  0
  126.5621  108.1458  106.0612 H   0  0  0  0  0  0  0  0  0  0  0  0
  122.2979  103.3223  106.9216 H   0  0  0  0  0  0  0  0  0  0  0  0
  1  2  2  0  0  0  0
  1 14  1  0  0  0  0
  2  4  1  0  0  0  0
  2  8  1  0  0  0  0
  3  6  1  0  0  0  0
  3  8  2  0  0  0  0
  3 14  1  0  0  0  0
  4 11  1  0  0  0  0
  4 12  2  0  0  0  0
  5  7  1  0  0  0  0
  5  9  1  0  0  0  0
  5 13  2  0  0  0  0
  6 10  1  0  0  0  0
  7 11  1  0  0  0  0
  1 15  1  0  0  0  0
  6 16  1  0  0  0  0
  6 17  1  0  0  0  0
  7 18  1  0  0  0  0
  7 19  1  0  0  0  0
  9 20  1  0  0  0  0
  9 21  1  0  0  0  0
 10 22  1  0  0  0  0
 10 23  1  0  0  0  0
 11 24  1  0  0  0  0
M  END
> <FRED Chemgauss4 score>
-7.869942

$$$$
C20286247	P30221172
  -OEChem-05122015313D

 17 17  0     0  0  0  0  0  0999 V2000
  125.7183  106.5297  107.7145 C   0  0  0  0  0  0  0  0  0  0  0  0
  125.9867  105.7981  108.8153 C   0  0  0  0  0  0  0  0  0  0  0  0
  124.8351  105.6737  106.8764 C   0  0  0  0  0  0  0  0  0  0  0  0
  126.1806  107.8709  107.3944 C   0  0  0  0  0  0  0  0  0  0  0  0
  124.5829  104.3508  107.5583 C   0  0  0  0  0  0  0  0  0  0  0  0
  125.3593  104.5659  108.7509 N   0  0  0  0  0  0  0  0  0  0  0  0
  126.7650  106.1942  109.8632 N   0  0  0  0  0  0  0  0  0  0  0  0
  125.7956  108.8275  108.3107 N   0  0  0  0  0  0  0  0  0  0  0  0
  124.3840  106.0061  105.7920 O   0  0  0  0  0  0  0  0  0  0  0  0
  126.8558  108.1107  106.3887 O   0  0  0  0  0  0  0  0  0  0  0  0
  123.5218  104.2290  107.7851 H   0  0  0  0  0  0  0  0  0  0  0  0
  124.9802  103.5266  106.9623 H   0  0  0  0  0  0  0  0  0  0  0  0
  125.4559  103.8919  109.4986 H   0  0  0  0  0  0  0  0  0  0  0  0
  127.1812  107.0994  109.8333 H   0  0  0  0  0  0  0  0  0  0  0  0
  126.8935  105.5663  110.6267 H   0  0  0  0  0  0  0  0  0  0  0  0
  125.2403  108.5442  109.1114 H   0  0  0  0  0  0  0  0  0  0  0  0
  126.0493  109.8056  108.2108 H   0  0  0  0  0  0  0  0  0  0  0  0
  1  2  2  0  0  0  0
  1  3  1  0  0  0  0
  1  4  1  0  0  0  0
  2  6  1  0  0  0  0
  2  7  1  0  0  0  0
  3  5  1  0  0  0  0
  3  9  2  0  0  0  0
  4  8  1  0  0  0  0
  4 10  2  0  0  0  0
  5  6  1  0  0  0  0
  5 11  1  0  0  0  0
  5 12  1  0  0  0  0
  6 13  1  0  0  0  0
  7 14  1  0  0  0  0
  7 15  1  0  0  0  0
  8 16  1  0  0  0  0
  8 17  1  0  0  0  0
M  END
> <FRED Chemgauss4 score>
-7.867527

$$$$
C17014094	P25603870
  -OEChem-05122015313D

 18 17  0     0  0  0  0  0  0999 V2000
  124.3549  108.1646  109.1178 C   0  0  0  0  0  0  0  0  0  0  0  0
  123.9811  109.1949  109.8867 C   0  0  0  0  0  0  0  0  0  0  0  0
  124.8901  108.4178  107.7505 C   0  0  0  0  0  0  0  0  0  0  0  0
  123.4468  108.9417  111.2542 C   0  0  0  0  0  0  0  0  0  0  0  0
  126.9175  108.8205  106.5722 N   0  0  0  0  0  0  0  0  0  0  0  0
  124.1413  108.7073  113.5291 N   0  0  0  0  0  0  0  0  0  0  0  0
  126.2627  108.5780  107.7636 N   0  0  0  0  0  0  0  0  0  0  0  0
  124.4555  108.9297  112.2009 N   0  0  0  0  0  0  0  0  0  0  0  0
  124.1689  108.4702  106.7591 O   0  0  0  0  0  0  0  0  0  0  0  0
  122.2523  108.7689  111.4755 O   0  0  0  0  0  0  0  0  0  0  0  0
  124.2816  107.1366  109.4570 H   0  0  0  0  0  0  0  0  0  0  0  0
  124.0541  110.2228  109.5471 H   0  0  0  0  0  0  0  0  0  0  0  0
  127.7059  109.4294  106.7875 H   0  0  0  0  0  0  0  0  0  0  0  0
  126.2852  109.3729  105.9944 H   0  0  0  0  0  0  0  0  0  0  0  0
  124.7998  109.2439  114.0923 H   0  0  0  0  0  0  0  0  0  0  0  0
  123.2211  109.1120  113.6972 H   0  0  0  0  0  0  0  0  0  0  0  0
  126.7811  108.5183  108.6348 H   0  0  0  0  0  0  0  0  0  0  0  0
  125.4197  109.0831  111.9225 H   0  0  0  0  0  0  0  0  0  0  0  0
  1  2  2  0  0  0  0
  1  3  1  0  0  0  0
  2  4  1  0  0  0  0
  3  7  1  0  0  0  0
  3  9  2  0  0  0  0
  4  8  1  0  0  0  0
  4 10  2  0  0  0  0
  5  7  1  0  0  0  0
  6  8  1  0  0  0  0
  1 11  1  0  0  0  0
  2 12  1  0  0  0  0
  5 13  1  0  0  0  0
  5 14  1  0  0  0  0
  6 15  1  0  0  0  0
  6 16  1  0  0  0  0
  7 17  1  0  0  0  0
  8 18  1  0  0  0  0
M  END
> <FRED Chemgauss4 score>
-7.861003

$$$$
C05829972	P08722974
  -OEChem-05122015313D

 23 23  0     1  0  0  0  0  0999 V2000
  124.3937  105.5260  107.8202 C   0  0  1  0  0  0  0  0  0  0  0  0
  126.6191  105.6557  108.9589 C   0  0  1  0  0  0  0  0  0  0  0  0
  125.1120  105.7943  109.1380 C   0  0  1  0  0  0  0  0  0  0  0  0
  125.0051  106.2955  106.6384 C   0  0  1  0  0  0  0  0  0  0  0  0
  127.1267  106.5305  107.8158 C   0  0  1  0  0  0  0  0  0  0  0  0
  124.5290  107.7442  106.5550 C   0  0  0  0  0  0  0  0  0  0  0  0
  126.4372  106.2161  106.6043 O   0  0  0  0  0  0  0  0  0  0  0  0
  124.4814  104.1301  107.5251 O   0  0  0  0  0  0  0  0  0  0  0  0
  127.2956  105.9837  110.1645 O   0  0  0  0  0  0  0  0  0  0  0  0
  127.0433  107.9090  108.1616 O   0  0  0  0  0  0  0  0  0  0  0  0
  125.1563  108.3616  105.4459 O   0  0  0  0  0  0  0  0  0  0  0  0
  124.8203  107.0584  109.5486 F   0  0  0  0  0  0  0  0  0  0  0  0
  123.3230  105.7649  107.9283 H   0  0  0  0  0  0  0  0  0  0  0  0
  126.8717  104.5782  108.7583 H   0  0  0  0  0  0  0  0  0  0  0  0
  124.7526  105.1124  109.9120 H   0  0  0  0  0  0  0  0  0  0  0  0
  124.6289  105.7985  105.6774 H   0  0  0  0  0  0  0  0  0  0  0  0
  128.2206  106.3099  107.6513 H   0  0  0  0  0  0  0  0  0  0  0  0
  124.8005  108.2780  107.4658 H   0  0  0  0  0  0  0  0  0  0  0  0
  123.4478  107.7735  106.4198 H   0  0  0  0  0  0  0  0  0  0  0  0
  124.0527  103.6639  108.2598 H   0  0  0  0  0  0  0  0  0  0  0  0
  126.9739  105.3624  110.8341 H   0  0  0  0  0  0  0  0  0  0  0  0
  127.3782  108.4066  107.3993 H   0  0  0  0  0  0  0  0  0  0  0  0
  124.8388  109.2802  105.4132 H   0  0  0  0  0  0  0  0  0  0  0  0
  1  3  1  0  0  0  0
  1  4  1  0  0  0  0
  1  8  1  0  0  0  0
  2  3  1  0  0  0  0
  2  5  1  0  0  0  0
  2  9  1  0  0  0  0
  3 12  1  0  0  0  0
  4  6  1  0  0  0  0
  4  7  1  0  0  0  0
  5  7  1  0  0  0  0
  5 10  1  0  0  0  0
  6 11  1  0  0  0  0
  1 13  1  0  0  0  0
  2 14  1  0  0  0  0
  3 15  1  0  0  0  0
  4 16  1  0  0  0  0
  5 17  1  0  0  0  0
  6 18  1  0  0  0  0
  6 19  1  0  0  0  0
  8 20  1  0  0  0  0
  9 21  1  0  0  0  0
 10 22  1  0  0  0  0
 11 23  1  0  0  0  0
M  END
> <FRED Chemgauss4 score>
-7.860413

$$$$
C70495500	P108751999
  -OEChem-05122015313D

 28 28  0     1  0  0  0  0  0999 V2000
  123.9483  107.1587  106.5452 C   0  0  0  0  0  0  0  0  0  0  0  0
  124.5395  108.3042  109.1206 C   0  0  0  0  0  0  0  0  0  0  0  0
  124.7607  109.2113  107.9157 C   0  0  0  0  0  0  0  0  0  0  0  0
  124.9164  106.8700  108.8110 C   0  0  0  0  0  0  0  0  0  0  0  0
  124.6469  108.5120  106.5611 C   0  0  1  0  0  0  0  0  0  0  0  0
  124.8149  104.0757  107.9640 C   0  0  0  0  0  0  0  0  0  0  0  0
  122.6218  104.8924  108.8907 C   0  0  0  0  0  0  0  0  0  0  0  0
  123.6346  105.0154  107.7548 C   0  0  1  0  0  0  0  0  0  0  0  0
  124.1294  106.3813  107.6868 N   0  0  0  0  0  0  0  0  0  0  0  0
  125.9382  108.2710  105.9645 N   0  0  0  0  0  0  0  0  0  0  0  0
  123.3646  106.7758  105.5290 O   0  0  0  0  0  0  0  0  0  0  0  0
  121.7841  106.0427  108.9020 O   0  0  0  0  0  0  0  0  0  0  0  0
  125.1283  108.6700  109.9815 H   0  0  0  0  0  0  0  0  0  0  0  0
  123.4792  108.3580  109.4327 H   0  0  0  0  0  0  0  0  0  0  0  0
  124.0340  110.0614  107.9621 H   0  0  0  0  0  0  0  0  0  0  0  0
  125.7624  109.7044  108.0154 H   0  0  0  0  0  0  0  0  0  0  0  0
  125.9577  106.8066  108.5292 H   0  0  0  0  0  0  0  0  0  0  0  0
  124.7253  106.2505  109.6741 H   0  0  0  0  0  0  0  0  0  0  0  0
  124.0670  109.1492  105.8647 H   0  0  0  0  0  0  0  0  0  0  0  0
  125.3200  104.2881  108.9119 H   0  0  0  0  0  0  0  0  0  0  0  0
  125.5498  104.1714  107.1567 H   0  0  0  0  0  0  0  0  0  0  0  0
  124.4824  103.0319  107.9847 H   0  0  0  0  0  0  0  0  0  0  0  0
  121.9829  104.0152  108.7448 H   0  0  0  0  0  0  0  0  0  0  0  0
  123.1145  104.8116  109.8658 H   0  0  0  0  0  0  0  0  0  0  0  0
  123.1460  104.7840  106.8015 H   0  0  0  0  0  0  0  0  0  0  0  0
  126.6430  108.9643  106.0823 H   0  0  0  0  0  0  0  0  0  0  0  0
  126.0138  107.5349  105.2983 H   0  0  0  0  0  0  0  0  0  0  0  0
  121.1589  105.9245  109.6345 H   0  0  0  0  0  0  0  0  0  0  0  0
  1  5  1  0  0  0  0
  1  9  1  0  0  0  0
  1 11  2  0  0  0  0
  2  3  1  0  0  0  0
  2  4  1  0  0  0  0
  3  5  1  0  0  0  0
  4  9  1  0  0  0  0
  5 10  1  0  0  0  0
  6  8  1  0  0  0  0
  7  8  1  0  0  0  0
  7 12  1  0  0  0  0
  8  9  1  0  0  0  0
  2 13  1  0  0  0  0
  2 14  1  0  0  0  0
  3 15  1  0  0  0  0
  3 16  1  0  0  0  0
  4 17  1  0  0  0  0
  4 18  1  0  0  0  0
  5 19  1  0  0  0  0
  6 20  1  0  0  0  0
  6 21  1  0  0  0  0
  6 22  1  0  0  0  0
  7 23  1  0  0  0  0
  7 24  1  0  0  0  0
  8 25  1  0  0  0  0
 10 26  1  0  0  0  0
 10 27  1  0  0  0  0
 12 28  1  0  0  0  0
M  END
> <FRED Chemgauss4 score>
-7.857737

$$$$
C87666342	P137137137
  -OEChem-05122015313D

 25 25  0     1  0  0  0  0  0999 V2000
  123.9681  104.5964  107.7857 C   0  0  0  0  0  0  0  0  0  0  0  0
  125.0350  105.4011  107.7094 C   0  0  0  0  0  0  0  0  0  0  0  0
  123.4141  106.3119  106.3874 C   0  0  0  0  0  0  0  0  0  0  0  0
  121.6620  104.5052  106.8400 C   0  0  0  0  0  0  0  0  0  0  0  0
  125.6606  107.5217  106.5551 C   0  0  0  0  0  0  0  0  0  0  0  0
  125.0552  108.5019  108.8279 C   0  0  0  0  0  0  0  0  0  0  0  0
  126.1571  108.2684  107.7939 C   0  0  1  0  0  0  0  0  0  0  0  0
  122.9602  105.1089  107.0004 N   0  0  0  0  0  0  0  0  0  0  0  0
  124.7457  106.4550  106.8724 N   0  0  0  0  0  0  0  0  0  0  0  0
  123.9917  109.2918  108.2472 N   0  0  0  0  0  0  0  0  0  0  0  0
  122.8049  107.0476  105.6257 O   0  0  0  0  0  0  0  0  0  0  0  0
  127.2108  107.5235  108.4045 O   0  0  0  0  0  0  0  0  0  0  0  0
  123.8441  103.6843  108.3467 H   0  0  0  0  0  0  0  0  0  0  0  0
  125.9934  105.3055  108.1931 H   0  0  0  0  0  0  0  0  0  0  0  0
  120.9739  104.8869  107.5987 H   0  0  0  0  0  0  0  0  0  0  0  0
  121.7346  103.4193  106.9451 H   0  0  0  0  0  0  0  0  0  0  0  0
  121.2578  104.7353  105.8505 H   0  0  0  0  0  0  0  0  0  0  0  0
  125.1452  108.2024  105.8703 H   0  0  0  0  0  0  0  0  0  0  0  0
  126.4996  107.0625  106.0224 H   0  0  0  0  0  0  0  0  0  0  0  0
  125.4410  109.0377  109.7014 H   0  0  0  0  0  0  0  0  0  0  0  0
  124.6360  107.5477  109.1630 H   0  0  0  0  0  0  0  0  0  0  0  0
  126.5804  109.2300  107.4788 H   0  0  0  0  0  0  0  0  0  0  0  0
  124.2311  110.0363  107.6183 H   0  0  0  0  0  0  0  0  0  0  0  0
  123.0686  109.2174  108.6340 H   0  0  0  0  0  0  0  0  0  0  0  0
  127.9122  107.4466  107.7403 H   0  0  0  0  0  0  0  0  0  0  0  0
  1  2  2  0  0  0  0
  1  8  1  0  0  0  0
  2  9  1  0  0  0  0
  3  8  1  0  0  0  0
  3  9  1  0  0  0  0
  3 11  2  0  0  0  0
  4  8  1  0  0  0  0
  5  7  1  0  0  0  0
  5  9  1  0  0  0  0
  6  7  1  0  0  0  0
  6 10  1  0  0  0  0
  7 12  1  0  0  0  0
  1 13  1  0  0  0  0
  2 14  1  0  0  0  0
  4 15  1  0  0  0  0
  4 16  1  0  0  0  0
  4 17  1  0  0  0  0
  5 18  1  0  0  0  0
  5 19  1  0  0  0  0
  6 20  1  0  0  0  0
  6 21  1  0  0  0  0
  7 22  1  0  0  0  0
 10 23  1  0  0  0  0
 10 24  1  0  0  0  0
 12 25  1  0  0  0  0
M  END
> <FRED Chemgauss4 score>
-7.857274

$$$$
C41167148	P62470687
  -OEChem-05122015313D

 23 23  0     1  0  0  0  0  0999 V2000
  125.8741  106.9747  108.0334 C   0  0  0  0  0  0  0  0  0  0  0  0
  124.9027  107.2980  108.9741 C   0  0  0  0  0  0  0  0  0  0  0  0
  126.2506  107.9530  107.1273 C   0  0  0  0  0  0  0  0  0  0  0  0
  124.7904  109.4788  108.0318 C   0  0  0  0  0  0  0  0  0  0  0  0
  124.3453  108.5719  108.9801 C   0  0  0  0  0  0  0  0  0  0  0  0
  122.9379  110.2794  112.1823 C   0  0  0  0  0  0  0  0  0  0  0  0
  123.2802  108.9573  109.9975 C   0  0  1  0  0  0  0  0  0  0  0  0
  123.7561  110.1198  110.9026 C   0  0  1  0  0  0  0  0  0  0  0  0
  125.7320  109.2012  107.1022 N   0  0  0  0  0  0  0  0  0  0  0  0
  122.0203  109.2792  109.3182 N   0  0  0  0  0  0  0  0  0  0  0  0
  123.6519  111.3501  110.1776 O   0  0  0  0  0  0  0  0  0  0  0  0
  126.3226  105.9881  108.0101 H   0  0  0  0  0  0  0  0  0  0  0  0
  124.5865  106.5520  109.6981 H   0  0  0  0  0  0  0  0  0  0  0  0
  127.0042  107.7504  106.3734 H   0  0  0  0  0  0  0  0  0  0  0  0
  124.3922  110.4878  107.9877 H   0  0  0  0  0  0  0  0  0  0  0  0
  121.8717  110.4033  111.9729 H   0  0  0  0  0  0  0  0  0  0  0  0
  123.2852  111.1399  112.7647 H   0  0  0  0  0  0  0  0  0  0  0  0
  123.0583  109.3984  112.8228 H   0  0  0  0  0  0  0  0  0  0  0  0
  123.0924  108.0854  110.6383 H   0  0  0  0  0  0  0  0  0  0  0  0
  124.8105  110.0002  111.1766 H   0  0  0  0  0  0  0  0  0  0  0  0
  121.3582  109.8333  109.8103 H   0  0  0  0  0  0  0  0  0  0  0  0
  121.7968  108.7711  108.4938 H   0  0  0  0  0  0  0  0  0  0  0  0
  124.0125  112.0360  110.7574 H   0  0  0  0  0  0  0  0  0  0  0  0
  1  2  2  0  0  0  0
  1  3  1  0  0  0  0
  2  5  1  0  0  0  0
  3  9  2  0  0  0  0
  4  5  2  0  0  0  0
  4  9  1  0  0  0  0
  5  7  1  0  0  0  0
  6  8  1  0  0  0  0
  7  8  1  0  0  0  0
  7 10  1  0  0  0  0
  8 11  1  0  0  0  0
  1 12  1  0  0  0  0
  2 13  1  0  0  0  0
  3 14  1  0  0  0  0
  4 15  1  0  0  0  0
  6 16  1  0  0  0  0
  6 17  1  0  0  0  0
  6 18  1  0  0  0  0
  7 19  1  0  0  0  0
  8 20  1  0  0  0  0
 10 21  1  0  0  0  0
 10 22  1  0  0  0  0
 11 23  1  0  0  0  0
M  END
> <FRED Chemgauss4 score>
-7.856044

$$$$
C87588531	P137003168
  -OEChem-05122015313D

 25 26  0     1  0  0  0  0  0999 V2000
  123.8030  107.5110  107.1650 C   0  0  0  0  0  0  0  0  0  0  0  0
  125.7919  108.2950  107.5378 C   0  0  0  0  0  0  0  0  0  0  0  0
  121.5296  106.9855  106.2470 C   0  0  0  0  0  0  0  0  0  0  0  0
  121.3308  105.9192  105.4651 C   0  0  0  0  0  0  0  0  0  0  0  0
  122.6575  105.1797  107.2772 C   0  0  0  0  0  0  0  0  0  0  0  0
  122.5257  106.7166  107.3377 C   0  0  1  0  0  0  0  0  0  0  0  0
  122.1779  104.7582  105.8765 C   0  0  1  0  0  0  0  0  0  0  0  0
  124.0855  108.3491  106.1933 N   0  0  0  0  0  0  0  0  0  0  0  0
  125.3508  108.8478  106.4305 N   0  0  0  0  0  0  0  0  0  0  0  0
  124.8495  107.4462  108.0341 N   0  0  0  0  0  0  0  0  0  0  0  0
  126.9729  108.4657  108.1743 N   0  0  0  0  0  0  0  0  0  0  0  0
  121.4557  103.4954  105.9238 N   0  0  0  0  0  0  0  0  0  0  0  0
  124.9302  106.6573  109.2049 N   0  0  0  0  0  0  0  0  0  0  0  0
  121.0372  107.9378  106.1067 H   0  0  0  0  0  0  0  0  0  0  0  0
  120.6720  105.9159  104.6079 H   0  0  0  0  0  0  0  0  0  0  0  0
  123.6713  104.8149  107.4817 H   0  0  0  0  0  0  0  0  0  0  0  0
  122.0072  104.7468  108.0514 H   0  0  0  0  0  0  0  0  0  0  0  0
  122.0772  107.0186  108.3116 H   0  0  0  0  0  0  0  0  0  0  0  0
  123.0181  104.6662  105.1923 H   0  0  0  0  0  0  0  0  0  0  0  0
  127.7173  109.0653  107.7920 H   0  0  0  0  0  0  0  0  0  0  0  0
  127.2191  107.9323  109.0197 H   0  0  0  0  0  0  0  0  0  0  0  0
  121.7946  102.7779  106.5312 H   0  0  0  0  0  0  0  0  0  0  0  0
  120.7788  103.3096  105.2124 H   0  0  0  0  0  0  0  0  0  0  0  0
  124.0210  106.5060  109.6537 H   0  0  0  0  0  0  0  0  0  0  0  0
  125.5118  107.0846  109.9334 H   0  0  0  0  0  0  0  0  0  0  0  0
  1  6  1  0  0  0  0
  1  8  2  0  0  0  0
  1 10  1  0  0  0  0
  2  9  2  0  0  0  0
  2 10  1  0  0  0  0
  2 11  1  0  0  0  0
  3  4  2  0  0  0  0
  3  6  1  0  0  0  0
  4  7  1  0  0  0  0
  5  6  1  0  0  0  0
  5  7  1  0  0  0  0
  7 12  1  0  0  0  0
  8  9  1  0  0  0  0
 10 13  1  0  0  0  0
  3 14  1  0  0  0  0
  4 15  1  0  0  0  0
  5 16  1  0  0  0  0
  5 17  1  0  0  0  0
  6 18  1  0  0  0  0
  7 19  1  0  0  0  0
 11 20  1  0  0  0  0
 11 21  1  0  0  0  0
 12 22  1  0  0  0  0
 12 23  1  0  0  0  0
 13 24  1  0  0  0  0
 13 25  1  0  0  0  0
M  END
> <FRED Chemgauss4 score>
-7.855494

$$$$
C87669204	P137137924
  -OEChem-05122015313D

 29 29  0     1  0  0  0  0  0999 V2000
  118.3910  103.8804  106.2061 C   0  0  0  0  0  0  0  0  0  0  0  0
  119.7762  103.9525  106.8310 C   0  0  0  0  0  0  0  0  0  0  0  0
  118.6000  103.8369  104.7022 C   0  0  0  0  0  0  0  0  0  0  0  0
  120.5060  105.0938  106.1288 C   0  0  1  0  0  0  0  0  0  0  0  0
  122.0157  104.9996  106.2669 C   0  0  0  0  0  0  0  0  0  0  0  0
  123.9698  106.3640  106.5586 C   0  0  0  0  0  0  0  0  0  0  0  0
  125.5499  107.9930  107.7251 C   0  0  0  0  0  0  0  0  0  0  0  0
  124.3945  107.8208  106.7439 C   0  0  1  0  0  0  0  0  0  0  0  0
  122.6119  106.2704  106.0103 N   0  0  0  0  0  0  0  0  0  0  0  0
  125.8840  109.3753  107.8046 O   0  0  0  0  0  0  0  0  0  0  0  0
  124.7873  108.3712  105.4860 O   0  0  0  0  0  0  0  0  0  0  0  0
  119.9837  104.9672  104.3869 S   0  0  0  0  0  0  0  0  0  0  0  0
  117.8424  102.9982  106.5517 H   0  0  0  0  0  0  0  0  0  0  0  0
  117.8009  104.7622  106.4864 H   0  0  0  0  0  0  0  0  0  0  0  0
  119.7144  104.1312  107.9099 H   0  0  0  0  0  0  0  0  0  0  0  0
  120.3001  102.9979  106.6904 H   0  0  0  0  0  0  0  0  0  0  0  0
  118.8847  102.8326  104.3734 H   0  0  0  0  0  0  0  0  0  0  0  0
  117.7054  104.1464  104.1553 H   0  0  0  0  0  0  0  0  0  0  0  0
  120.1562  106.0582  106.5139 H   0  0  0  0  0  0  0  0  0  0  0  0
  122.3941  104.2803  105.5486 H   0  0  0  0  0  0  0  0  0  0  0  0
  122.2664  104.6895  107.2753 H   0  0  0  0  0  0  0  0  0  0  0  0
  124.6534  105.8602  105.8670 H   0  0  0  0  0  0  0  0  0  0  0  0
  124.0086  105.8330  107.5154 H   0  0  0  0  0  0  0  0  0  0  0  0
  126.4372  107.4486  107.3874 H   0  0  0  0  0  0  0  0  0  0  0  0
  125.2752  107.6612  108.7315 H   0  0  0  0  0  0  0  0  0  0  0  0
  123.5347  108.4076  107.0883 H   0  0  0  0  0  0  0  0  0  0  0  0
  122.0505  107.0276  106.4251 H   0  0  0  0  0  0  0  0  0  0  0  0
  126.6185  109.4471  108.4341 H   0  0  0  0  0  0  0  0  0  0  0  0
  124.0134  108.3080  104.9064 H   0  0  0  0  0  0  0  0  0  0  0  0
  1  2  1  0  0  0  0
  1  3  1  0  0  0  0
  2  4  1  0  0  0  0
  3 12  1  0  0  0  0
  4  5  1  0  0  0  0
  4 12  1  0  0  0  0
  5  9  1  0  0  0  0
  6  8  1  0  0  0  0
  6  9  1  0  0  0  0
  7  8  1  0  0  0  0
  7 10  1  0  0  0  0
  8 11  1  0  0  0  0
  1 13  1  0  0  0  0
  1 14  1  0  0  0  0
  2 15  1  0  0  0  0
  2 16  1  0  0  0  0
  3 17  1  0  0  0  0
  3 18  1  0  0  0  0
  4 19  1  0  0  0  0
  5 20  1  0  0  0  0
  5 21  1  0  0  0  0
  6 22  1  0  0  0  0
  6 23  1  0  0  0  0
  7 24  1  0  0  0  0
  7 25  1  0  0  0  0
  8 26  1  0  0  0  0
  9 27  1  0  0  0  0
 10 28  1  0  0  0  0
 11 29  1  0  0  0  0
M  END
> <FRED Chemgauss4 score>
-7.854786

$$$$
C86827631	P135917923
  -OEChem-05122015313D

 23 24  0     1  0  0  0  0  0999 V2000
  125.3876  105.1856  108.0295 C   0  0  0  0  0  0  0  0  0  0  0  0
  123.9629  111.1897  111.7726 C   0  0  0  0  0  0  0  0  0  0  0  0
  124.7379  104.4725  107.0490 C   0  0  0  0  0  0  0  0  0  0  0  0
  123.5494  106.2693  107.3787 C   0  0  0  0  0  0  0  0  0  0  0  0
  123.7133  110.2231  112.7242 C   0  0  0  0  0  0  0  0  0  0  0  0
  124.6156  106.3524  108.2438 C   0  0  0  0  0  0  0  0  0  0  0  0
  123.8413  109.4462  110.4476 C   0  0  0  0  0  0  0  0  0  0  0  0
  123.8476  108.5984  109.1960 C   0  0  0  0  0  0  0  0  0  0  0  0
  124.9044  107.4719  109.2293 C   0  0  2  0  0  0  0  0  0  0  0  0
  124.0371  110.7460  110.4666 N   0  0  0  0  0  0  0  0  0  0  0  0
  126.2423  108.0349  109.0021 N   0  0  0  0  0  0  0  0  0  0  0  0
  123.6166  105.1263  106.6468 O   0  0  0  0  0  0  0  0  0  0  0  0
  123.5615  108.6932  111.9641 S   0  0  0  0  0  0  0  0  0  0  0  0
  126.3032  104.8970  108.5257 H   0  0  0  0  0  0  0  0  0  0  0  0
  124.0996  112.2425  111.9799 H   0  0  0  0  0  0  0  0  0  0  0  0
  124.9338  103.5327  106.5539 H   0  0  0  0  0  0  0  0  0  0  0  0
  122.7011  106.9057  107.1716 H   0  0  0  0  0  0  0  0  0  0  0  0
  123.6138  110.3395  113.7940 H   0  0  0  0  0  0  0  0  0  0  0  0
  124.0413  109.2656  108.3443 H   0  0  0  0  0  0  0  0  0  0  0  0
  122.8432  108.1902  109.0222 H   0  0  0  0  0  0  0  0  0  0  0  0
  124.9222  107.0451  110.2403 H   0  0  0  0  0  0  0  0  0  0  0  0
  126.9563  107.4161  108.6973 H   0  0  0  0  0  0  0  0  0  0  0  0
  126.4236  108.9460  109.3525 H   0  0  0  0  0  0  0  0  0  0  0  0
  1  3  2  0  0  0  0
  1  6  1  0  0  0  0
  2  5  2  0  0  0  0
  2 10  1  0  0  0  0
  3 12  1  0  0  0  0
  4  6  2  0  0  0  0
  4 12  1  0  0  0  0
  5 13  1  0  0  0  0
  6  9  1  0  0  0  0
  7  8  1  0  0  0  0
  7 10  2  0  0  0  0
  7 13  1  0  0  0  0
  8  9  1  0  0  0  0
  9 11  1  0  0  0  0
  1 14  1  0  0  0  0
  2 15  1  0  0  0  0
  3 16  1  0  0  0  0
  4 17  1  0  0  0  0
  5 18  1  0  0  0  0
  8 19  1  0  0  0  0
  8 20  1  0  0  0  0
  9 21  1  0  0  0  0
 11 22  1  0  0  0  0
 11 23  1  0  0  0  0
M  END
> <FRED Chemgauss4 score>
-7.848613

$$$$
C86088781	P134832591
  -OEChem-05122015313D

 24 25  0     1  0  0  0  0  0999 V2000
  123.1994  105.3581  106.2710 C   0  0  0  0  0  0  0  0  0  0  0  0
  121.4842  106.0780  105.3238 C   0  0  0  0  0  0  0  0  0  0  0  0
  124.7119  105.1918  108.2637 C   0  0  0  0  0  0  0  0  0  0  0  0
  125.3140  106.2754  108.7651 C   0  0  0  0  0  0  0  0  0  0  0  0
  125.5822  106.3887  106.4187 C   0  0  0  0  0  0  0  0  0  0  0  0
  124.6246  105.2285  106.7653 C   0  0  2  0  0  0  0  0  0  0  0  0
  125.7107  107.2405  107.6945 C   0  0  2  0  0  0  0  0  0  0  0  0
  120.5079  106.8466  104.5567 C   0  0  0  0  0  0  0  0  0  0  0  0
  122.7482  106.3880  105.4961 N   0  0  0  0  0  0  0  0  0  0  0  0
  121.2061  104.9145  105.9709 N   0  0  0  0  0  0  0  0  0  0  0  0
  122.2941  104.4303  106.5889 N   0  0  0  0  0  0  0  0  0  0  0  0
  127.0610  107.7611  107.8480 N   0  0  0  0  0  0  0  0  0  0  0  0
  124.3231  104.3833  108.8670 H   0  0  0  0  0  0  0  0  0  0  0  0
  125.4519  106.4525  109.8227 H   0  0  0  0  0  0  0  0  0  0  0  0
  126.5582  105.9609  106.1456 H   0  0  0  0  0  0  0  0  0  0  0  0
  125.2548  106.9915  105.5631 H   0  0  0  0  0  0  0  0  0  0  0  0
  125.0292  104.2722  106.3618 H   0  0  0  0  0  0  0  0  0  0  0  0
  124.9983  108.0712  107.6717 H   0  0  0  0  0  0  0  0  0  0  0  0
  120.4773  106.5324  103.4945 H   0  0  0  0  0  0  0  0  0  0  0  0
  119.4760  106.7461  104.9516 H   0  0  0  0  0  0  0  0  0  0  0  0
  120.7174  107.9361  104.5641 H   0  0  0  0  0  0  0  0  0  0  0  0
  122.2855  103.5699  107.1297 H   0  0  0  0  0  0  0  0  0  0  0  0
  127.3832  107.9809  108.7683 H   0  0  0  0  0  0  0  0  0  0  0  0
  127.5453  108.0724  107.0308 H   0  0  0  0  0  0  0  0  0  0  0  0
  1  6  1  0  0  0  0
  1  9  2  0  0  0  0
  1 11  1  0  0  0  0
  2  8  1  0  0  0  0
  2  9  1  0  0  0  0
  2 10  2  0  0  0  0
  3  4  2  0  0  0  0
  3  6  1  0  0  0  0
  4  7  1  0  0  0  0
  5  6  1  0  0  0  0
  5  7  1  0  0  0  0
  7 12  1  0  0  0  0
 10 11  1  0  0  0  0
  3 13  1  0  0  0  0
  4 14  1  0  0  0  0
  5 15  1  0  0  0  0
  5 16  1  0  0  0  0
  6 17  1  0  0  0  0
  7 18  1  0  0  0  0
  8 19  1  0  0  0  0
  8 20  1  0  0  0  0
  8 21  1  0  0  0  0
 11 22  1  0  0  0  0
 12 23  1  0  0  0  0
 12 24  1  0  0  0  0
M  END
> <FRED Chemgauss4 score>
-7.846030

$$$$
C83747697	P131020663
  -OEChem-05122015313D

 29 29  0     1  0  0  0  0  0999 V2000
  123.9596  109.2252  107.1772 C   0  0  0  0  0  0  0  0  0  0  0  0
  123.2542  107.8897  107.1035 C   0  0  0  0  0  0  0  0  0  0  0  0
  124.3763  107.9151  109.9734 C   0  0  0  0  0  0  0  0  0  0  0  0
  123.6250  109.2033  109.6657 C   0  0  0  0  0  0  0  0  0  0  0  0
  123.9232  106.7148  109.1342 C   0  0  0  0  0  0  0  0  0  0  0  0
  122.5876  104.9686  107.6190 C   0  0  0  0  0  0  0  0  0  0  0  0
  123.8715  105.5718  107.0289 C   0  0  2  0  0  0  0  0  0  0  0  0
  125.0960  104.6831  107.2082 C   0  0  0  0  0  0  0  0  0  0  0  0
  124.0707  109.7990  108.4220 N   0  0  0  0  0  0  0  0  0  0  0  0
  124.1273  106.8610  107.6819 N   0  0  1  0  0  0  0  0  0  0  0  0
  121.9622  104.0074  106.7160 N   0  0  0  0  0  0  0  0  0  0  0  0
  124.3986  109.7679  106.1615 O   0  0  0  0  0  0  0  0  0  0  0  0
  126.2117  105.2607  106.7121 F   0  0  0  0  0  0  0  0  0  0  0  0
  124.9310  103.4970  106.5785 F   0  0  0  0  0  0  0  0  0  0  0  0
  125.3211  104.4091  108.5122 F   0  0  0  0  0  0  0  0  0  0  0  0
  122.2639  107.9358  107.5705 H   0  0  0  0  0  0  0  0  0  0  0  0
  123.0829  107.7022  106.0348 H   0  0  0  0  0  0  0  0  0  0  0  0
  125.4559  108.0672  109.8472 H   0  0  0  0  0  0  0  0  0  0  0  0
  124.2140  107.6641  111.0290 H   0  0  0  0  0  0  0  0  0  0  0  0
  122.5434  109.0400  109.6177 H   0  0  0  0  0  0  0  0  0  0  0  0
  123.8198  109.9406  110.4516 H   0  0  0  0  0  0  0  0  0  0  0  0
  124.5065  105.8544  109.4884 H   0  0  0  0  0  0  0  0  0  0  0  0
  122.8717  106.4878  109.3566 H   0  0  0  0  0  0  0  0  0  0  0  0
  122.7986  104.4766  108.5763 H   0  0  0  0  0  0  0  0  0  0  0  0
  121.8599  105.7644  107.8182 H   0  0  0  0  0  0  0  0  0  0  0  0
  123.7263  105.7563  105.9575 H   0  0  0  0  0  0  0  0  0  0  0  0
  124.5228  110.7067  108.4754 H   0  0  0  0  0  0  0  0  0  0  0  0
  120.9786  103.8617  106.7930 H   0  0  0  0  0  0  0  0  0  0  0  0
  122.5547  103.3902  106.2035 H   0  0  0  0  0  0  0  0  0  0  0  0
  1  2  1  0  0  0  0
  1  9  1  0  0  0  0
  1 12  2  0  0  0  0
  2 10  1  0  0  0  0
  3  4  1  0  0  0  0
  3  5  1  0  0  0  0
  4  9  1  0  0  0  0
  5 10  1  0  0  0  0
  6  7  1  0  0  0  0
  6 11  1  0  0  0  0
  7  8  1  0  0  0  0
  7 10  1  0  0  0  0
  8 13  1  0  0  0  0
  8 14  1  0  0  0  0
  8 15  1  0  0  0  0
  2 16  1  0  0  0  0
  2 17  1  0  0  0  0
  3 18  1  0  0  0  0
  3 19  1  0  0  0  0
  4 20  1  0  0  0  0
  4 21  1  0  0  0  0
  5 22  1  0  0  0  0
  5 23  1  0  0  0  0
  6 24  1  0  0  0  0
  6 25  1  0  0  0  0
  7 26  1  0  0  0  0
  9 27  1  0  0  0  0
 11 28  1  0  0  0  0
 11 29  1  0  0  0  0
M  END
> <FRED Chemgauss4 score>
-7.844738

$$$$
C83758292	P131046739
  -OEChem-05122015313D

 27 27  0     1  0  0  0  0  0999 V2000
  125.2011  107.4324  108.6166 C   0  0  0  0  0  0  0  0  0  0  0  0
  125.9424  107.2075  107.4745 C   0  0  0  0  0  0  0  0  0  0  0  0
  126.0371  109.4360  107.0365 C   0  0  0  0  0  0  0  0  0  0  0  0
  124.9177  108.7542  108.8936 C   0  0  0  0  0  0  0  0  0  0  0  0
  123.6547  110.9009  111.6531 C   0  0  0  0  0  0  0  0  0  0  0  0
  122.7121  108.4569  110.1404 C   0  0  0  0  0  0  0  0  0  0  0  0
  123.5303  112.4078  111.7844 C   0  0  0  0  0  0  0  0  0  0  0  0
  124.1068  109.1020  110.1299 C   0  0  2  0  0  0  0  0  0  0  0  0
  126.3785  108.1894  106.6584 N   0  0  0  0  0  0  0  0  0  0  0  0
  125.3215  109.7851  108.1226 N   0  0  0  0  0  0  0  0  0  0  0  0
  122.7512  107.0897  110.5899 N   0  0  0  0  0  0  0  0  0  0  0  0
  123.9870  110.5571  110.2814 N   0  0  0  0  0  0  0  0  0  0  0  0
  124.7760  113.0142  111.4642 O   0  0  0  0  0  0  0  0  0  0  0  0
  124.8686  106.6183  109.2477 H   0  0  0  0  0  0  0  0  0  0  0  0
  126.2145  106.2011  107.1746 H   0  0  0  0  0  0  0  0  0  0  0  0
  126.3747  110.2438  106.3988 H   0  0  0  0  0  0  0  0  0  0  0  0
  124.4419  110.5094  112.3052 H   0  0  0  0  0  0  0  0  0  0  0  0
  122.7065  110.4170  111.9059 H   0  0  0  0  0  0  0  0  0  0  0  0
  122.0466  108.9897  110.8292 H   0  0  0  0  0  0  0  0  0  0  0  0
  122.2398  108.4629  109.1523 H   0  0  0  0  0  0  0  0  0  0  0  0
  123.2799  112.6747  112.8158 H   0  0  0  0  0  0  0  0  0  0  0  0
  122.7616  112.8081  111.1154 H   0  0  0  0  0  0  0  0  0  0  0  0
  124.6495  108.7369  111.0116 H   0  0  0  0  0  0  0  0  0  0  0  0
  122.0186  106.4599  110.3064 H   0  0  0  0  0  0  0  0  0  0  0  0
  123.3821  106.8364  111.3326 H   0  0  0  0  0  0  0  0  0  0  0  0
  123.2566  110.8890  109.6581 H   0  0  0  0  0  0  0  0  0  0  0  0
  124.6533  113.9723  111.5603 H   0  0  0  0  0  0  0  0  0  0  0  0
  1  2  1  0  0  0  0
  1  4  2  0  0  0  0
  2  9  2  0  0  0  0
  3  9  1  0  0  0  0
  3 10  2  0  0  0  0
  4  8  1  0  0  0  0
  4 10  1  0  0  0  0
  5  7  1  0  0  0  0
  5 12  1  0  0  0  0
  6  8  1  0  0  0  0
  6 11  1  0  0  0  0
  7 13  1  0  0  0  0
  8 12  1  0  0  0  0
  1 14  1  0  0  0  0
  2 15  1  0  0  0  0
  3 16  1  0  0  0  0
  5 17  1  0  0  0  0
  5 18  1  0  0  0  0
  6 19  1  0  0  0  0
  6 20  1  0  0  0  0
  7 21  1  0  0  0  0
  7 22  1  0  0  0  0
  8 23  1  0  0  0  0
 11 24  1  0  0  0  0
 11 25  1  0  0  0  0
 12 26  1  0  0  0  0
 13 27  1  0  0  0  0
M  END
> <FRED Chemgauss4 score>
-7.843823

$$$$
C19834702	P29491605
  -OEChem-05122015313D

 31 30  0     1  0  0  0  0  0999 V2000
  120.8837  106.1467  104.6807 C   0  0  0  0  0  0  0  0  0  0  0  0
  119.1947  104.4918  103.8498 C   0  0  0  0  0  0  0  0  0  0  0  0
  120.2519  104.1481  106.0495 C   0  0  0  0  0  0  0  0  0  0  0  0
  123.3191  105.7007  106.1101 C   0  0  0  0  0  0  0  0  0  0  0  0
  121.2415  106.8970  105.9516 C   0  0  0  0  0  0  0  0  0  0  0  0
  124.4371  108.4181  107.1304 C   0  0  0  0  0  0  0  0  0  0  0  0
  124.8517  109.2499  108.3424 C   0  0  0  0  0  0  0  0  0  0  0  0
  123.0485  107.7952  107.2561 C   0  0  0  0  0  0  0  0  0  0  0  0
  123.9757  110.3661  108.5713 N   0  0  0  0  0  0  0  0  0  0  0  0
  120.1395  104.9745  104.8541 N   0  0  0  0  0  0  0  0  0  0  0  0
  122.6667  107.0198  106.0642 N   0  0  1  0  0  0  0  0  0  0  0  0
  121.2389  106.5689  103.5770 O   0  0  0  0  0  0  0  0  0  0  0  0
  119.7015  103.8259  103.1465 H   0  0  0  0  0  0  0  0  0  0  0  0
  118.7706  105.3329  103.2947 H   0  0  0  0  0  0  0  0  0  0  0  0
  118.3804  103.9426  104.3300 H   0  0  0  0  0  0  0  0  0  0  0  0
  119.5311  104.4768  106.8027 H   0  0  0  0  0  0  0  0  0  0  0  0
  121.2588  104.2249  106.4688 H   0  0  0  0  0  0  0  0  0  0  0  0
  120.0529  103.1011  105.8054 H   0  0  0  0  0  0  0  0  0  0  0  0
  124.4022  105.8200  106.1958 H   0  0  0  0  0  0  0  0  0  0  0  0
  123.0980  105.1378  105.1991 H   0  0  0  0  0  0  0  0  0  0  0  0
  122.9586  105.1306  106.9705 H   0  0  0  0  0  0  0  0  0  0  0  0
  120.8236  107.9067  105.9269 H   0  0  0  0  0  0  0  0  0  0  0  0
  120.8877  106.3501  106.8293 H   0  0  0  0  0  0  0  0  0  0  0  0
  125.1786  107.6235  106.9815 H   0  0  0  0  0  0  0  0  0  0  0  0
  124.4572  109.0494  106.2337 H   0  0  0  0  0  0  0  0  0  0  0  0
  124.8707  108.6467  109.2552 H   0  0  0  0  0  0  0  0  0  0  0  0
  125.8547  109.6600  108.1872 H   0  0  0  0  0  0  0  0  0  0  0  0
  122.2970  108.5818  107.3772 H   0  0  0  0  0  0  0  0  0  0  0  0
  122.9842  107.1299  108.1227 H   0  0  0  0  0  0  0  0  0  0  0  0
  124.3325  111.1835  109.0409 H   0  0  0  0  0  0  0  0  0  0  0  0
  122.9824  110.2451  108.4490 H   0  0  0  0  0  0  0  0  0  0  0  0
  1  5  1  0  0  0  0
  1 10  1  0  0  0  0
  1 12  2  0  0  0  0
  2 10  1  0  0  0  0
  3 10  1  0  0  0  0
  4 11  1  0  0  0  0
  5 11  1  0  0  0  0
  6  7  1  0  0  0  0
  6  8  1  0  0  0  0
  7  9  1  0  0  0  0
  8 11  1  0  0  0  0
  2 13  1  0  0  0  0
  2 14  1  0  0  0  0
  2 15  1  0  0  0  0
  3 16  1  0  0  0  0
  3 17  1  0  0  0  0
  3 18  1  0  0  0  0
  4 19  1  0  0  0  0
  4 20  1  0  0  0  0
  4 21  1  0  0  0  0
  5 22  1  0  0  0  0
  5 23  1  0  0  0  0
  6 24  1  0  0  0  0
  6 25  1  0  0  0  0
  7 26  1  0  0  0  0
  7 27  1  0  0  0  0
  8 28  1  0  0  0  0
  8 29  1  0  0  0  0
  9 30  1  0  0  0  0
  9 31  1  0  0  0  0
M  END
> <FRED Chemgauss4 score>
-7.840584

$$$$
C70914375	P109455270
  -OEChem-05122015313D

 21 21  0     1  0  0  0  0  0999 V2000
  125.5461  105.8783  108.5652 C   0  0  0  0  0  0  0  0  0  0  0  0
  124.8521  104.7411  108.4752 C   0  0  0  0  0  0  0  0  0  0  0  0
  124.3421  106.3705  106.6277 C   0  0  0  0  0  0  0  0  0  0  0  0
  125.9363  108.0749  107.4903 C   0  0  0  0  0  0  0  0  0  0  0  0
  124.5905  109.0533  109.4202 C   0  0  0  0  0  0  0  0  0  0  0  0
  125.0457  109.2218  107.9704 C   0  0  1  0  0  0  0  0  0  0  0  0
  125.2867  106.7934  107.5630 N   0  0  0  0  0  0  0  0  0  0  0  0
  123.7594  110.1709  109.8105 N   0  0  0  0  0  0  0  0  0  0  0  0
  123.9169  106.9571  105.6448 O   0  0  0  0  0  0  0  0  0  0  0  0
  125.7565  110.4541  107.8514 O   0  0  0  0  0  0  0  0  0  0  0  0
  123.8004  104.7407  107.0942 S   0  0  0  0  0  0  0  0  0  0  0  0
  126.2667  106.1207  109.3330 H   0  0  0  0  0  0  0  0  0  0  0  0
  124.9216  103.9105  109.1627 H   0  0  0  0  0  0  0  0  0  0  0  0
  126.2425  108.2284  106.4507 H   0  0  0  0  0  0  0  0  0  0  0  0
  126.8356  108.0024  108.1103 H   0  0  0  0  0  0  0  0  0  0  0  0
  125.4475  109.0108  110.1004 H   0  0  0  0  0  0  0  0  0  0  0  0
  124.0102  108.1320  109.5349 H   0  0  0  0  0  0  0  0  0  0  0  0
  124.1710  109.2873  107.3118 H   0  0  0  0  0  0  0  0  0  0  0  0
  123.9981  111.0884  109.4815 H   0  0  0  0  0  0  0  0  0  0  0  0
  123.0961  110.0433  110.5528 H   0  0  0  0  0  0  0  0  0  0  0  0
  125.9764  110.5538  106.9128 H   0  0  0  0  0  0  0  0  0  0  0  0
  1  2  2  0  0  0  0
  1  7  1  0  0  0  0
  2 11  1  0  0  0  0
  3  7  1  0  0  0  0
  3  9  2  0  0  0  0
  3 11  1  0  0  0  0
  4  6  1  0  0  0  0
  4  7  1  0  0  0  0
  5  6  1  0  0  0  0
  5  8  1  0  0  0  0
  6 10  1  0  0  0  0
  1 12  1  0  0  0  0
  2 13  1  0  0  0  0
  4 14  1  0  0  0  0
  4 15  1  0  0  0  0
  5 16  1  0  0  0  0
  5 17  1  0  0  0  0
  6 18  1  0  0  0  0
  8 19  1  0  0  0  0
  8 20  1  0  0  0  0
 10 21  1  0  0  0  0
M  END
> <FRED Chemgauss4 score>
-7.839095

$$$$
C04904580	P07155831
  -OEChem-05122015313D

 22 22  0     0  0  0  0  0  0999 V2000
  124.4769  106.6751  106.1983 C   0  0  0  0  0  0  0  0  0  0  0  0
  125.1120  107.9784  106.4766 C   0  0  0  0  0  0  0  0  0  0  0  0
  125.3532  103.3434  107.4662 C   0  0  0  0  0  0  0  0  0  0  0  0
  125.8549  104.2137  108.6104 C   0  0  0  0  0  0  0  0  0  0  0  0
  124.3769  104.2621  106.7488 C   0  0  0  0  0  0  0  0  0  0  0  0
  125.9577  105.5926  107.9730 C   0  0  0  0  0  0  0  0  0  0  0  0
  124.9249  105.5983  106.9381 N   0  0  0  0  0  0  0  0  0  0  0  0
  124.9298  109.9178  107.8229 N   0  0  0  0  0  0  0  0  0  0  0  0
  124.4479  108.6769  107.4565 N   0  0  0  0  0  0  0  0  0  0  0  0
  123.6011  106.6146  105.3359 O   0  0  0  0  0  0  0  0  0  0  0  0
  126.1108  108.3198  105.8610 O   0  0  0  0  0  0  0  0  0  0  0  0
  126.1873  103.0877  106.8018 H   0  0  0  0  0  0  0  0  0  0  0  0
  124.8867  102.4150  107.8065 H   0  0  0  0  0  0  0  0  0  0  0  0
  125.1123  104.2283  109.4173 H   0  0  0  0  0  0  0  0  0  0  0  0
  126.8058  103.8698  109.0261 H   0  0  0  0  0  0  0  0  0  0  0  0
  124.2698  104.0332  105.6844 H   0  0  0  0  0  0  0  0  0  0  0  0
  123.3861  104.2401  107.2159 H   0  0  0  0  0  0  0  0  0  0  0  0
  125.7980  106.4048  108.6880 H   0  0  0  0  0  0  0  0  0  0  0  0
  126.9253  105.7345  107.4795 H   0  0  0  0  0  0  0  0  0  0  0  0
  124.1215  110.4878  108.0693 H   0  0  0  0  0  0  0  0  0  0  0  0
  125.3270  110.3399  106.9845 H   0  0  0  0  0  0  0  0  0  0  0  0
  123.6178  108.3304  107.9277 H   0  0  0  0  0  0  0  0  0  0  0  0
  1  2  1  0  0  0  0
  1  7  1  0  0  0  0
  1 10  2  0  0  0  0
  2  9  1  0  0  0  0
  2 11  2  0  0  0  0
  3  4  1  0  0  0  0
  3  5  1  0  0  0  0
  4  6  1  0  0  0  0
  5  7  1  0  0  0  0
  6  7  1  0  0  0  0
  8  9  1  0  0  0  0
  3 12  1  0  0  0  0
  3 13  1  0  0  0  0
  4 14  1  0  0  0  0
  4 15  1  0  0  0  0
  5 16  1  0  0  0  0
  5 17  1  0  0  0  0
  6 18  1  0  0  0  0
  6 19  1  0  0  0  0
  8 20  1  0  0  0  0
  8 21  1  0  0  0  0
  9 22  1  0  0  0  0
M  END
> <FRED Chemgauss4 score>
-7.838428

$$$$
C85835256	P134409813
  -OEChem-05122015313D

 31 31  0     1  0  0  0  0  0999 V2000
  125.6866  103.9064  108.0388 C   0  0  0  0  0  0  0  0  0  0  0  0
  124.7211  104.2003  107.0445 C   0  0  0  0  0  0  0  0  0  0  0  0
  125.9460  105.0759  108.7187 C   0  0  0  0  0  0  0  0  0  0  0  0
  124.4200  105.5406  107.1470 C   0  0  0  0  0  0  0  0  0  0  0  0
  122.2624  105.5810  105.8298 C   0  0  0  0  0  0  0  0  0  0  0  0
  124.3334  107.6881  109.8805 C   0  0  0  0  0  0  0  0  0  0  0  0
  124.2828  109.1585  110.2958 C   0  0  0  0  0  0  0  0  0  0  0  0
  125.1591  107.4508  108.6135 C   0  0  0  0  0  0  0  0  0  0  0  0
  123.4879  109.3499  111.5805 C   0  0  0  0  0  0  0  0  0  0  0  0
  123.4810  106.3637  106.3575 C   0  0  2  0  0  0  0  0  0  0  0  0
  125.1707  106.0626  108.1678 N   0  0  0  0  0  0  0  0  0  0  0  0
  124.1315  107.0422  105.2423 N   0  0  0  0  0  0  0  0  0  0  0  0
  124.0982  108.5912  112.6154 O   0  0  0  0  0  0  0  0  0  0  0  0
  126.1434  102.9473  108.2383 H   0  0  0  0  0  0  0  0  0  0  0  0
  124.2935  103.5081  106.3323 H   0  0  0  0  0  0  0  0  0  0  0  0
  126.6142  105.2848  109.5433 H   0  0  0  0  0  0  0  0  0  0  0  0
  122.5886  104.7380  105.2109 H   0  0  0  0  0  0  0  0  0  0  0  0
  121.6494  105.1847  106.6471 H   0  0  0  0  0  0  0  0  0  0  0  0
  121.6118  106.2169  105.2188 H   0  0  0  0  0  0  0  0  0  0  0  0
  124.7295  107.0872  110.7082 H   0  0  0  0  0  0  0  0  0  0  0  0
  123.3117  107.3354  109.6929 H   0  0  0  0  0  0  0  0  0  0  0  0
  123.8342  109.7637  109.4982 H   0  0  0  0  0  0  0  0  0  0  0  0
  125.2947  109.5544  110.4425 H   0  0  0  0  0  0  0  0  0  0  0  0
  126.1957  107.7773  108.7575 H   0  0  0  0  0  0  0  0  0  0  0  0
  124.7516  108.0447  107.7861 H   0  0  0  0  0  0  0  0  0  0  0  0
  122.4567  109.0039  111.4568 H   0  0  0  0  0  0  0  0  0  0  0  0
  123.4774  110.4025  111.8807 H   0  0  0  0  0  0  0  0  0  0  0  0
  123.0716  107.1935  106.9694 H   0  0  0  0  0  0  0  0  0  0  0  0
  125.0591  107.3848  105.3759 H   0  0  0  0  0  0  0  0  0  0  0  0
  123.5682  107.3195  104.4667 H   0  0  0  0  0  0  0  0  0  0  0  0
  123.5695  108.7344  113.4172 H   0  0  0  0  0  0  0  0  0  0  0  0
  1  2  1  0  0  0  0
  1  3  2  0  0  0  0
  2  4  2  0  0  0  0
  3 11  1  0  0  0  0
  4 10  1  0  0  0  0
  4 11  1  0  0  0  0
  5 10  1  0  0  0  0
  6  7  1  0  0  0  0
  6  8  1  0  0  0  0
  7  9  1  0  0  0  0
  8 11  1  0  0  0  0
  9 13  1  0  0  0  0
 10 12  1  0  0  0  0
  1 14  1  0  0  0  0
  2 15  1  0  0  0  0
  3 16  1  0  0  0  0
  5 17  1  0  0  0  0
  5 18  1  0  0  0  0
  5 19  1  0  0  0  0
  6 20  1  0  0  0  0
  6 21  1  0  0  0  0
  7 22  1  0  0  0  0
  7 23  1  0  0  0  0
  8 24  1  0  0  0  0
  8 25  1  0  0  0  0
  9 26  1  0  0  0  0
  9 27  1  0  0  0  0
 10 28  1  0  0  0  0
 12 29  1  0  0  0  0
 12 30  1  0  0  0  0
 13 31  1  0  0  0  0
M  END
> <FRED Chemgauss4 score>
-7.836423

$$$$
C85371966	P133630555
  -OEChem-05122015313D

 26 26  0     1  0  0  0  0  0999 V2000
  118.9301  104.4436  106.3868 C   0  0  0  0  0  0  0  0  0  0  0  0
  123.1771  106.1876  106.0012 C   0  0  0  0  0  0  0  0  0  0  0  0
  124.5595  106.2244  108.0801 C   0  0  0  0  0  0  0  0  0  0  0  0
  125.9905  107.9730  107.5350 C   0  0  0  0  0  0  0  0  0  0  0  0
  124.5492  106.3813  106.5655 C   0  0  2  0  0  0  0  0  0  0  0  0
  125.0378  107.8057  106.3699 C   0  0  2  0  0  0  0  0  0  0  0  0
  120.2747  104.8464  106.8251 C   0  0  0  0  0  0  0  0  0  0  0  0
  121.3345  104.5337  105.7740 C   0  0  0  0  0  0  0  0  0  0  0  0
  117.8683  104.1264  106.0430 N   0  0  0  0  0  0  0  0  0  0  0  0
  125.6844  108.0183  105.0861 N   0  0  0  0  0  0  0  0  0  0  0  0
  122.6465  104.9324  106.2305 N   0  0  0  0  0  0  0  0  0  0  0  0
  122.6349  107.1085  105.4016 O   0  0  0  0  0  0  0  0  0  0  0  0
  125.3875  107.2645  108.6234 O   0  0  0  0  0  0  0  0  0  0  0  0
  123.5644  106.2894  108.5350 H   0  0  0  0  0  0  0  0  0  0  0  0
  125.0062  105.2660  108.3714 H   0  0  0  0  0  0  0  0  0  0  0  0
  126.9924  107.5887  107.3566 H   0  0  0  0  0  0  0  0  0  0  0  0
  126.0697  109.0196  107.8280 H   0  0  0  0  0  0  0  0  0  0  0  0
  125.1943  105.6290  106.0811 H   0  0  0  0  0  0  0  0  0  0  0  0
  124.1936  108.5504  106.4601 H   0  0  0  0  0  0  0  0  0  0  0  0
  120.5219  104.3103  107.7488 H   0  0  0  0  0  0  0  0  0  0  0  0
  120.2796  105.9164  107.0637 H   0  0  0  0  0  0  0  0  0  0  0  0
  121.3480  103.4568  105.5763 H   0  0  0  0  0  0  0  0  0  0  0  0
  121.1093  105.0413  104.8295 H   0  0  0  0  0  0  0  0  0  0  0  0
  126.3713  108.7362  105.0233 H   0  0  0  0  0  0  0  0  0  0  0  0
  125.2801  107.5888  104.2839 H   0  0  0  0  0  0  0  0  0  0  0  0
  123.2053  104.2579  106.7444 H   0  0  0  0  0  0  0  0  0  0  0  0
  1  7  1  0  0  0  0
  1  9  3  0  0  0  0
  2  5  1  0  0  0  0
  2 11  1  0  0  0  0
  2 12  2  0  0  0  0
  3  5  1  0  0  0  0
  3 13  1  0  0  0  0
  4  6  1  0  0  0  0
  4 13  1  0  0  0  0
  5  6  1  0  0  0  0
  6 10  1  0  0  0  0
  7  8  1  0  0  0  0
  8 11  1  0  0  0  0
  3 14  1  0  0  0  0
  3 15  1  0  0  0  0
  4 16  1  0  0  0  0
  4 17  1  0  0  0  0
  5 18  1  0  0  0  0
  6 19  1  0  0  0  0
  7 20  1  0  0  0  0
  7 21  1  0  0  0  0
  8 22  1  0  0  0  0
  8 23  1  0  0  0  0
 10 24  1  0  0  0  0
 10 25  1  0  0  0  0
 11 26  1  0  0  0  0
M  END
> <FRED Chemgauss4 score>
-7.833447

$$$$
C82450205	P128859289
  -OEChem-05122015313D

 21 21  0     1  0  0  0  0  0999 V2000
  125.3791  104.9327  108.3487 C   0  0  0  0  0  0  0  0  0  0  0  0
  124.1614  105.4584  108.0926 C   0  0  0  0  0  0  0  0  0  0  0  0
  126.4130  105.7283  109.0483 C   0  0  0  0  0  0  0  0  0  0  0  0
  124.7378  107.4523  109.0853 C   0  0  0  0  0  0  0  0  0  0  0  0
  123.2211  108.8978  110.4194 C   0  0  0  0  0  0  0  0  0  0  0  0
  124.4348  108.8583  109.5167 C   0  0  2  0  0  0  0  0  0  0  0  0
  123.8366  106.7520  108.4721 N   0  0  0  0  0  0  0  0  0  0  0  0
  126.0001  106.9973  109.3854 N   0  0  0  0  0  0  0  0  0  0  0  0
  123.2394  104.6714  107.4388 N   0  0  0  0  0  0  0  0  0  0  0  0
  124.2229  109.5748  108.2933 N   0  0  0  0  0  0  0  0  0  0  0  0
  127.5217  105.2617  109.2867 O   0  0  0  0  0  0  0  0  0  0  0  0
  125.6468  103.9221  108.0575 H   0  0  0  0  0  0  0  0  0  0  0  0
  122.3346  108.4833  109.9256 H   0  0  0  0  0  0  0  0  0  0  0  0
  123.3985  108.3117  111.3274 H   0  0  0  0  0  0  0  0  0  0  0  0
  122.9852  109.9258  110.7136 H   0  0  0  0  0  0  0  0  0  0  0  0
  125.3155  109.2713  110.0106 H   0  0  0  0  0  0  0  0  0  0  0  0
  126.6568  107.6029  109.8691 H   0  0  0  0  0  0  0  0  0  0  0  0
  123.5102  103.7530  107.1847 H   0  0  0  0  0  0  0  0  0  0  0  0
  122.3472  105.0591  107.2521 H   0  0  0  0  0  0  0  0  0  0  0  0
  124.7379  109.3078  107.4667 H   0  0  0  0  0  0  0  0  0  0  0  0
  123.7260  110.4538  108.3132 H   0  0  0  0  0  0  0  0  0  0  0  0
  1  2  2  0  0  0  0
  1  3  1  0  0  0  0
  2  7  1  0  0  0  0
  2  9  1  0  0  0  0
  3  8  1  0  0  0  0
  3 11  2  0  0  0  0
  4  6  1  0  0  0  0
  4  7  2  0  0  0  0
  4  8  1  0  0  0  0
  5  6  1  0  0  0  0
  6 10  1  0  0  0  0
  1 12  1  0  0  0  0
  5 13  1  0  0  0  0
  5 14  1  0  0  0  0
  5 15  1  0  0  0  0
  6 16  1  0  0  0  0
  8 17  1  0  0  0  0
  9 18  1  0  0  0  0
  9 19  1  0  0  0  0
 10 20  1  0  0  0  0
 10 21  1  0  0  0  0
M  END
> <FRED Chemgauss4 score>
-7.831261

$$$$
C85790865	P134349332
  -OEChem-05122015313D

 34 34  0     1  0  0  0  0  0999 V2000
  117.9382  104.9974  105.6249 C   0  0  0  0  0  0  0  0  0  0  0  0
  119.7250  105.4487  104.0754 C   0  0  0  0  0  0  0  0  0  0  0  0
  118.7548  105.6733  106.7218 C   0  0  0  0  0  0  0  0  0  0  0  0
  120.5059  106.1231  105.2098 C   0  0  2  0  0  0  0  0  0  0  0  0
  117.5147  104.9398  103.2510 C   0  0  0  0  0  0  0  0  0  0  0  0
  122.0067  105.9490  105.0211 C   0  0  0  0  0  0  0  0  0  0  0  0
  124.1096  106.5633  106.0038 C   0  0  0  0  0  0  0  0  0  0  0  0
  126.2581  107.4204  107.0811 C   0  0  0  0  0  0  0  0  0  0  0  0
  124.9555  107.7817  106.3737 C   0  0  1  0  0  0  0  0  0  0  0  0
  118.2807  105.5783  104.3196 N   0  0  1  0  0  0  0  0  0  0  0  0
  122.7094  106.9374  105.7707 N   0  0  0  0  0  0  0  0  0  0  0  0
  120.1516  105.5284  106.4634 O   0  0  0  0  0  0  0  0  0  0  0  0
  126.7479  108.5727  107.7602 O   0  0  0  0  0  0  0  0  0  0  0  0
  125.2747  108.5218  105.1948 O   0  0  0  0  0  0  0  0  0  0  0  0
  118.1446  103.9191  105.6278 H   0  0  0  0  0  0  0  0  0  0  0  0
  116.8722  105.1397  105.8363 H   0  0  0  0  0  0  0  0  0  0  0  0
  119.9877  105.9256  103.1235 H   0  0  0  0  0  0  0  0  0  0  0  0
  120.0017  104.3878  104.0096 H   0  0  0  0  0  0  0  0  0  0  0  0
  118.5075  106.7381  106.8133 H   0  0  0  0  0  0  0  0  0  0  0  0
  118.5448  105.2012  107.6869 H   0  0  0  0  0  0  0  0  0  0  0  0
  120.2796  107.1965  105.2498 H   0  0  0  0  0  0  0  0  0  0  0  0
  117.7778  105.3799  102.2856 H   0  0  0  0  0  0  0  0  0  0  0  0
  116.4432  105.0771  103.4201 H   0  0  0  0  0  0  0  0  0  0  0  0
  117.7302  103.8684  103.2198 H   0  0  0  0  0  0  0  0  0  0  0  0
  122.2448  106.0635  103.9703 H   0  0  0  0  0  0  0  0  0  0  0  0
  122.2980  104.9655  105.3692 H   0  0  0  0  0  0  0  0  0  0  0  0
  124.4974  106.1025  105.0891 H   0  0  0  0  0  0  0  0  0  0  0  0
  124.1537  105.8146  106.8016 H   0  0  0  0  0  0  0  0  0  0  0  0
  127.0198  107.1005  106.3634 H   0  0  0  0  0  0  0  0  0  0  0  0
  126.1048  106.6364  107.8295 H   0  0  0  0  0  0  0  0  0  0  0  0
  124.3675  108.4499  107.0140 H   0  0  0  0  0  0  0  0  0  0  0  0
  122.2655  107.0854  106.6886 H   0  0  0  0  0  0  0  0  0  0  0  0
  127.5726  108.3075  108.1964 H   0  0  0  0  0  0  0  0  0  0  0  0
  124.4300  108.7931  104.8053 H   0  0  0  0  0  0  0  0  0  0  0  0
  1  3  1  0  0  0  0
  1 10  1  0  0  0  0
  2  4  1  0  0  0  0
  2 10  1  0  0  0  0
  3 12  1  0  0  0  0
  4  6  1  0  0  0  0
  4 12  1  0  0  0  0
  5 10  1  0  0  0  0
  6 11  1  0  0  0  0
  7  9  1  0  0  0  0
  7 11  1  0  0  0  0
  8  9  1  0  0  0  0
  8 13  1  0  0  0  0
  9 14  1  0  0  0  0
  1 15  1  0  0  0  0
  1 16  1  0  0  0  0
  2 17  1  0  0  0  0
  2 18  1  0  0  0  0
  3 19  1  0  0  0  0
  3 20  1  0  0  0  0
  4 21  1  0  0  0  0
  5 22  1  0  0  0  0
  5 23  1  0  0  0  0
  5 24  1  0  0  0  0
  6 25  1  0  0  0  0
  6 26  1  0  0  0  0
  7 27  1  0  0  0  0
  7 28  1  0  0  0  0
  8 29  1  0  0  0  0
  8 30  1  0  0  0  0
  9 31  1  0  0  0  0
 11 32  1  0  0  0  0
 13 33  1  0  0  0  0
 14 34  1  0  0  0  0
M  END
> <FRED Chemgauss4 score>
-7.829210

$$$$
C43287284	P65476438
  -OEChem-05122015313D

 42 43  0     1  0  0  0  0  0999 V2000
  118.1685  105.5063  104.1132 C   0  0  0  0  0  0  0  0  0  0  0  0
  116.5074  107.0494  103.6014 C   0  0  0  0  0  0  0  0  0  0  0  0
  116.8865  105.7269  103.5318 C   0  0  0  0  0  0  0  0  0  0  0  0
  118.7206  106.6688  104.6049 C   0  0  0  0  0  0  0  0  0  0  0  0
  119.7508  104.3552  106.9706 C   0  0  0  0  0  0  0  0  0  0  0  0
  119.1593  109.4819  109.1756 C   0  0  0  0  0  0  0  0  0  0  0  0
  119.8604  110.2484  108.0507 C   0  0  0  0  0  0  0  0  0  0  0  0
  119.2549  108.0049  108.8026 C   0  0  0  0  0  0  0  0  0  0  0  0
  120.3408  109.1937  107.0574 C   0  0  0  0  0  0  0  0  0  0  0  0
  119.3890  108.0255  107.2847 C   0  0  0  0  0  0  0  0  0  0  0  0
  122.5045  106.0558  105.4384 C   0  0  0  0  0  0  0  0  0  0  0  0
  119.0032  105.6635  107.0869 C   0  0  0  0  0  0  0  0  0  0  0  0
  120.0641  106.8622  105.2952 C   0  0  2  0  0  0  0  0  0  0  0  0
  121.1354  105.8601  104.7846 C   0  0  1  0  0  0  0  0  0  0  0  0
  120.8474  104.3028  107.8041 N   0  0  0  0  0  0  0  0  0  0  0  0
  121.2919  105.9738  103.3473 N   0  0  0  0  0  0  0  0  0  0  0  0
  119.8964  106.7752  106.7487 N   0  0  1  0  0  0  0  0  0  0  0  0
  119.3972  103.4254  106.2506 O   0  0  0  0  0  0  0  0  0  0  0  0
  117.6947  108.0187  104.3652 S   0  0  0  0  0  0  0  0  0  0  0  0
  115.8669  104.3399  102.7708 Br  0  0  0  0  0  0  0  0  0  0  0  0
  118.6656  104.5454  104.1707 H   0  0  0  0  0  0  0  0  0  0  0  0
  115.5920  107.4994  103.2427 H   0  0  0  0  0  0  0  0  0  0  0  0
  119.6183  109.6773  110.1502 H   0  0  0  0  0  0  0  0  0  0  0  0
  118.1098  109.7924  109.2374 H   0  0  0  0  0  0  0  0  0  0  0  0
  119.1513  110.9318  107.5693 H   0  0  0  0  0  0  0  0  0  0  0  0
  120.6935  110.8508  108.4264 H   0  0  0  0  0  0  0  0  0  0  0  0
  120.1446  107.5663  109.2725 H   0  0  0  0  0  0  0  0  0  0  0  0
  118.3830  107.4369  109.1417 H   0  0  0  0  0  0  0  0  0  0  0  0
  120.3209  109.5589  106.0257 H   0  0  0  0  0  0  0  0  0  0  0  0
  121.3754  108.9135  107.2941 H   0  0  0  0  0  0  0  0  0  0  0  0
  118.4188  108.2429  106.8301 H   0  0  0  0  0  0  0  0  0  0  0  0
  122.8754  107.0749  105.2822 H   0  0  0  0  0  0  0  0  0  0  0  0
  123.2454  105.3533  105.0451 H   0  0  0  0  0  0  0  0  0  0  0  0
  122.4433  105.8925  106.5206 H   0  0  0  0  0  0  0  0  0  0  0  0
  118.6421  105.8176  108.1074 H   0  0  0  0  0  0  0  0  0  0  0  0
  118.1617  105.6671  106.3887 H   0  0  0  0  0  0  0  0  0  0  0  0
  120.4208  107.8776  105.0750 H   0  0  0  0  0  0  0  0  0  0  0  0
  120.8122  104.8287  104.9703 H   0  0  0  0  0  0  0  0  0  0  0  0
  121.0807  105.0836  108.4084 H   0  0  0  0  0  0  0  0  0  0  0  0
  121.4578  103.4931  107.8492 H   0  0  0  0  0  0  0  0  0  0  0  0
  120.4807  106.1619  102.7904 H   0  0  0  0  0  0  0  0  0  0  0  0
  122.1499  105.6644  102.9329 H   0  0  0  0  0  0  0  0  0  0  0  0
  1  3  1  0  0  0  0
  1  4  2  0  0  0  0
  2  3  2  0  0  0  0
  2 19  1  0  0  0  0
  3 20  1  0  0  0  0
  4 13  1  0  0  0  0
  4 19  1  0  0  0  0
  5 12  1  0  0  0  0
  5 15  1  0  0  0  0
  5 18  2  0  0  0  0
  6  7  1  0  0  0  0
  6  8  1  0  0  0  0
  7  9  1  0  0  0  0
  8 10  1  0  0  0  0
  9 10  1  0  0  0  0
 10 17  1  0  0  0  0
 11 14  1  0  0  0  0
 12 17  1  0  0  0  0
 13 14  1  0  0  0  0
 13 17  1  0  0  0  0
 14 16  1  0  0  0  0
  1 21  1  0  0  0  0
  2 22  1  0  0  0  0
  6 23  1  0  0  0  0
  6 24  1  0  0  0  0
  7 25  1  0  0  0  0
  7 26  1  0  0  0  0
  8 27  1  0  0  0  0
  8 28  1  0  0  0  0
  9 29  1  0  0  0  0
  9 30  1  0  0  0  0
 10 31  1  0  0  0  0
 11 32  1  0  0  0  0
 11 33  1  0  0  0  0
 11 34  1  0  0  0  0
 12 35  1  0  0  0  0
 12 36  1  0  0  0  0
 13 37  1  0  0  0  0
 14 38  1  0  0  0  0
 15 39  1  0  0  0  0
 15 40  1  0  0  0  0
 16 41  1  0  0  0  0
 16 42  1  0  0  0  0
M  END
> <FRED Chemgauss4 score>
-7.823141

$$$$
C42029926	P63621323
  -OEChem-05122015313D

 29 29  0     1  0  0  0  0  0999 V2000
  125.3364  107.3729  106.5857 C   0  0  0  0  0  0  0  0  0  0  0  0
  123.4008  106.6947  105.8770 C   0  0  0  0  0  0  0  0  0  0  0  0
  126.5840  107.4376  107.3676 C   0  0  0  0  0  0  0  0  0  0  0  0
  125.3161  104.2060  107.3058 C   0  0  0  0  0  0  0  0  0  0  0  0
  119.7430  105.5428  106.6634 C   0  0  0  0  0  0  0  0  0  0  0  0
  124.4085  105.3438  107.7407 C   0  0  0  0  0  0  0  0  0  0  0  0
  122.1305  105.8652  105.7488 C   0  0  1  0  0  0  0  0  0  0  0  0
  121.0204  106.3794  106.6976 C   0  0  2  0  0  0  0  0  0  0  0  0
  124.9625  108.1842  105.6222 N   0  0  0  0  0  0  0  0  0  0  0  0
  123.7310  107.7527  105.1712 N   0  0  0  0  0  0  0  0  0  0  0  0
  124.3830  106.4200  106.7795 N   0  0  0  0  0  0  0  0  0  0  0  0
  121.6805  105.8360  104.3527 N   0  0  0  0  0  0  0  0  0  0  0  0
  121.5076  106.3529  108.0437 O   0  0  0  0  0  0  0  0  0  0  0  0
  126.4586  108.0606  108.2693 H   0  0  0  0  0  0  0  0  0  0  0  0
  126.9210  106.4389  107.6969 H   0  0  0  0  0  0  0  0  0  0  0  0
  127.4197  107.8615  106.7832 H   0  0  0  0  0  0  0  0  0  0  0  0
  124.9935  103.7868  106.3469 H   0  0  0  0  0  0  0  0  0  0  0  0
  125.3026  103.4042  108.0505 H   0  0  0  0  0  0  0  0  0  0  0  0
  126.3501  104.5472  107.1899 H   0  0  0  0  0  0  0  0  0  0  0  0
  119.9388  104.4890  106.8803 H   0  0  0  0  0  0  0  0  0  0  0  0
  119.2524  105.6165  105.6865 H   0  0  0  0  0  0  0  0  0  0  0  0
  119.0252  105.9145  107.4034 H   0  0  0  0  0  0  0  0  0  0  0  0
  124.7391  105.7565  108.7006 H   0  0  0  0  0  0  0  0  0  0  0  0
  123.3809  104.9881  107.8762 H   0  0  0  0  0  0  0  0  0  0  0  0
  122.3694  104.8327  106.0368 H   0  0  0  0  0  0  0  0  0  0  0  0
  120.7604  107.4203  106.4738 H   0  0  0  0  0  0  0  0  0  0  0  0
  120.7288  105.6091  104.1784 H   0  0  0  0  0  0  0  0  0  0  0  0
  122.3759  105.8408  103.6427 H   0  0  0  0  0  0  0  0  0  0  0  0
  120.8071  106.7349  108.5916 H   0  0  0  0  0  0  0  0  0  0  0  0
  1  3  1  0  0  0  0
  1  9  2  0  0  0  0
  1 11  1  0  0  0  0
  2  7  1  0  0  0  0
  2 10  2  0  0  0  0
  2 11  1  0  0  0  0
  4  6  1  0  0  0  0
  5  8  1  0  0  0  0
  6 11  1  0  0  0  0
  7  8  1  0  0  0  0
  7 12  1  0  0  0  0
  8 13  1  0  0  0  0
  9 10  1  0  0  0  0
  3 14  1  0  0  0  0
  3 15  1  0  0  0  0
  3 16  1  0  0  0  0
  4 17  1  0  0  0  0
  4 18  1  0  0  0  0
  4 19  1  0  0  0  0
  5 20  1  0  0  0  0
  5 21  1  0  0  0  0
  5 22  1  0  0  0  0
  6 23  1  0  0  0  0
  6 24  1  0  0  0  0
  7 25  1  0  0  0  0
  8 26  1  0  0  0  0
 12 27  1  0  0  0  0
 12 28  1  0  0  0  0
 13 29  1  0  0  0  0
M  END
> <FRED Chemgauss4 score>
-7.821774

$$$$
C88023787	P137677865
  -OEChem-05122015313D

 34 35  0     1  0  0  0  0  0999 V2000
  124.3196  104.2027  107.2135 C   0  0  0  0  0  0  0  0  0  0  0  0
  125.3638  104.5088  107.9857 C   0  0  0  0  0  0  0  0  0  0  0  0
  123.2752  105.1640  106.9318 C   0  0  0  0  0  0  0  0  0  0  0  0
  123.3571  106.4098  107.4490 C   0  0  0  0  0  0  0  0  0  0  0  0
  125.4774  105.8681  108.5733 C   0  0  0  0  0  0  0  0  0  0  0  0
  122.2878  107.4479  107.1690 C   0  0  0  0  0  0  0  0  0  0  0  0
  121.0179  106.9004  106.5135 C   0  0  0  0  0  0  0  0  0  0  0  0
  121.3582  105.8796  105.4369 C   0  0  0  0  0  0  0  0  0  0  0  0
  122.1634  104.7033  106.0107 C   0  0  2  0  0  0  0  0  0  0  0  0
  123.5883  108.3428  109.9756 C   0  0  0  0  0  0  0  0  0  0  0  0
  124.5352  108.1242  108.8030 C   0  0  0  0  0  0  0  0  0  0  0  0
  123.6594  109.7581  110.5363 C   0  0  0  0  0  0  0  0  0  0  0  0
  124.4482  106.7701  108.2578 N   0  0  0  0  0  0  0  0  0  0  0  0
  121.2790  103.7541  106.7003 N   0  0  0  0  0  0  0  0  0  0  0  0
  126.4507  106.1147  109.2853 O   0  0  0  0  0  0  0  0  0  0  0  0
  123.2940  110.6744  109.5128 O   0  0  0  0  0  0  0  0  0  0  0  0
  124.2462  103.2098  106.7814 H   0  0  0  0  0  0  0  0  0  0  0  0
  126.1452  103.7886  108.1982 H   0  0  0  0  0  0  0  0  0  0  0  0
  121.9823  107.9483  108.0949 H   0  0  0  0  0  0  0  0  0  0  0  0
  122.7162  108.2135  106.5097 H   0  0  0  0  0  0  0  0  0  0  0  0
  120.3781  106.4399  107.2765 H   0  0  0  0  0  0  0  0  0  0  0  0
  120.4434  107.7271  106.0800 H   0  0  0  0  0  0  0  0  0  0  0  0
  120.4407  105.5270  104.9494 H   0  0  0  0  0  0  0  0  0  0  0  0
  121.9498  106.3709  104.6525 H   0  0  0  0  0  0  0  0  0  0  0  0
  122.6119  104.1739  105.1464 H   0  0  0  0  0  0  0  0  0  0  0  0
  122.5595  108.1397  109.6531 H   0  0  0  0  0  0  0  0  0  0  0  0
  123.7987  107.6235  110.7772 H   0  0  0  0  0  0  0  0  0  0  0  0
  124.2899  108.8124  107.9881 H   0  0  0  0  0  0  0  0  0  0  0  0
  125.5745  108.3000  109.0982 H   0  0  0  0  0  0  0  0  0  0  0  0
  122.9700  109.8873  111.3764 H   0  0  0  0  0  0  0  0  0  0  0  0
  124.6751  109.9953  110.8684 H   0  0  0  0  0  0  0  0  0  0  0  0
  121.6936  103.1291  107.3501 H   0  0  0  0  0  0  0  0  0  0  0  0
  120.3596  103.6412  106.3440 H   0  0  0  0  0  0  0  0  0  0  0  0
  123.3490  111.5630  109.8999 H   0  0  0  0  0  0  0  0  0  0  0  0
  1  2  2  0  0  0  0
  1  3  1  0  0  0  0
  2  5  1  0  0  0  0
  3  4  2  0  0  0  0
  3  9  1  0  0  0  0
  4  6  1  0  0  0  0
  4 13  1  0  0  0  0
  5 13  1  0  0  0  0
  5 15  2  0  0  0  0
  6  7  1  0  0  0  0
  7  8  1  0  0  0  0
  8  9  1  0  0  0  0
  9 14  1  0  0  0  0
 10 11  1  0  0  0  0
 10 12  1  0  0  0  0
 11 13  1  0  0  0  0
 12 16  1  0  0  0  0
  1 17  1  0  0  0  0
  2 18  1  0  0  0  0
  6 19  1  0  0  0  0
  6 20  1  0  0  0  0
  7 21  1  0  0  0  0
  7 22  1  0  0  0  0
  8 23  1  0  0  0  0
  8 24  1  0  0  0  0
  9 25  1  0  0  0  0
 10 26  1  0  0  0  0
 10 27  1  0  0  0  0
 11 28  1  0  0  0  0
 11 29  1  0  0  0  0
 12 30  1  0  0  0  0
 12 31  1  0  0  0  0
 14 32  1  0  0  0  0
 14 33  1  0  0  0  0
 16 34  1  0  0  0  0
M  END
> <FRED Chemgauss4 score>
-7.821529

$$$$
C05157121	P07617928
  -OEChem-05122015313D

 23 23  0     1  0  0  0  0  0999 V2000
  124.4623  104.7447  107.9044 C   0  0  0  0  0  0  0  0  0  0  0  0
  125.9124  104.7207  108.3370 C   0  0  1  0  0  0  0  0  0  0  0  0
  126.0680  106.0882  108.9619 C   0  0  2  0  0  0  0  0  0  0  0  0
  125.2048  106.9587  108.0566 C   0  0  1  0  0  0  0  0  0  0  0  0
  124.9409  108.0391  105.7935 C   0  0  0  0  0  0  0  0  0  0  0  0
  125.9250  107.5490  106.8499 C   0  0  1  0  0  0  0  0  0  0  0  0
  124.1475  106.1054  107.5764 O   0  0  0  0  0  0  0  0  0  0  0  0
  126.1653  103.6934  109.2749 O   0  0  0  0  0  0  0  0  0  0  0  0
  127.4174  106.5043  109.0099 O   0  0  0  0  0  0  0  0  0  0  0  0
  125.6684  108.5528  104.6828 O   0  0  0  0  0  0  0  0  0  0  0  0
  126.7107  108.6626  107.2760 O   0  0  0  0  0  0  0  0  0  0  0  0
  124.3075  104.1523  106.9964 H   0  0  0  0  0  0  0  0  0  0  0  0
  123.7714  104.4002  108.6797 H   0  0  0  0  0  0  0  0  0  0  0  0
  126.5820  104.5637  107.4593 H   0  0  0  0  0  0  0  0  0  0  0  0
  125.6667  106.1184  110.0160 H   0  0  0  0  0  0  0  0  0  0  0  0
  124.7392  107.7539  108.6274 H   0  0  0  0  0  0  0  0  0  0  0  0
  124.3089  107.2213  105.4319 H   0  0  0  0  0  0  0  0  0  0  0  0
  124.3099  108.8421  106.1869 H   0  0  0  0  0  0  0  0  0  0  0  0
  126.6116  106.8146  106.4113 H   0  0  0  0  0  0  0  0  0  0  0  0
  125.9396  102.8563  108.8390 H   0  0  0  0  0  0  0  0  0  0  0  0
  127.8936  105.8480  109.5435 H   0  0  0  0  0  0  0  0  0  0  0  0
  125.0112  108.8532  104.0353 H   0  0  0  0  0  0  0  0  0  0  0  0
  127.1495  109.0068  106.4836 H   0  0  0  0  0  0  0  0  0  0  0  0
  1  2  1  0  0  0  0
  1  7  1  0  0  0  0
  2  3  1  0  0  0  0
  2  8  1  0  0  0  0
  3  4  1  0  0  0  0
  3  9  1  0  0  0  0
  4  6  1  0  0  0  0
  4  7  1  0  0  0  0
  5  6  1  0  0  0  0
  5 10  1  0  0  0  0
  6 11  1  0  0  0  0
  1 12  1  0  0  0  0
  1 13  1  0  0  0  0
  2 14  1  0  0  0  0
  3 15  1  0  0  0  0
  4 16  1  0  0  0  0
  5 17  1  0  0  0  0
  5 18  1  0  0  0  0
  6 19  1  0  0  0  0
  8 20  1  0  0  0  0
  9 21  1  0  0  0  0
 10 22  1  0  0  0  0
 11 23  1  0  0  0  0
M  END
> <FRED Chemgauss4 score>
-7.820271

$$$$
C35679899	P52962559
  -OEChem-05122015313D

 27 28  0     1  0  0  0  0  0999 V2000
  115.6008  105.3801  103.9652 C   0  0  0  0  0  0  0  0  0  0  0  0
  117.4897  106.8529  103.7469 C   0  0  0  0  0  0  0  0  0  0  0  0
  114.8214  106.5019  104.1972 C   0  0  0  0  0  0  0  0  0  0  0  0
  116.6256  107.9088  103.9885 C   0  0  0  0  0  0  0  0  0  0  0  0
  116.9595  105.5676  103.7366 C   0  0  0  0  0  0  0  0  0  0  0  0
  120.2743  104.3611  104.1873 C   0  0  0  0  0  0  0  0  0  0  0  0
  121.0003  104.0675  105.4809 C   0  0  0  0  0  0  0  0  0  0  0  0
  118.6355  103.9491  105.8399 C   0  0  0  0  0  0  0  0  0  0  0  0
  119.9301  104.3318  106.5418 C   0  0  1  0  0  0  0  0  0  0  0  0
  117.8507  104.3867  103.4805 C   0  0  0  0  0  0  0  0  0  0  0  0
  115.3005  107.7659  104.2149 N   0  0  0  0  0  0  0  0  0  0  0  0
  118.9095  104.2849  104.4610 N   0  0  0  0  0  0  0  0  0  0  0  0
  120.1604  103.5976  107.7736 N   0  0  0  0  0  0  0  0  0  0  0  0
  120.8206  104.5705  103.1146 O   0  0  0  0  0  0  0  0  0  0  0  0
  115.1567  104.3904  103.9647 H   0  0  0  0  0  0  0  0  0  0  0  0
  118.5450  107.0313  103.5718 H   0  0  0  0  0  0  0  0  0  0  0  0
  113.7561  106.4094  104.3822 H   0  0  0  0  0  0  0  0  0  0  0  0
  116.9897  108.9307  104.0070 H   0  0  0  0  0  0  0  0  0  0  0  0
  121.3262  103.0216  105.4614 H   0  0  0  0  0  0  0  0  0  0  0  0
  121.8659  104.7243  105.6026 H   0  0  0  0  0  0  0  0  0  0  0  0
  118.4198  102.8760  105.8904 H   0  0  0  0  0  0  0  0  0  0  0  0
  117.7785  104.5175  106.2138 H   0  0  0  0  0  0  0  0  0  0  0  0
  119.9153  105.4066  106.7649 H   0  0  0  0  0  0  0  0  0  0  0  0
  117.2748  103.4553  103.5079 H   0  0  0  0  0  0  0  0  0  0  0  0
  118.3156  104.4526  102.4912 H   0  0  0  0  0  0  0  0  0  0  0  0
  119.3783  103.4046  108.3672 H   0  0  0  0  0  0  0  0  0  0  0  0
  121.1022  103.4854  108.0929 H   0  0  0  0  0  0  0  0  0  0  0  0
  1  3  1  0  0  0  0
  1  5  2  0  0  0  0
  2  4  2  0  0  0  0
  2  5  1  0  0  0  0
  3 11  2  0  0  0  0
  4 11  1  0  0  0  0
  5 10  1  0  0  0  0
  6  7  1  0  0  0  0
  6 12  1  0  0  0  0
  6 14  2  0  0  0  0
  7  9  1  0  0  0  0
  8  9  1  0  0  0  0
  8 12  1  0  0  0  0
  9 13  1  0  0  0  0
 10 12  1  0  0  0  0
  1 15  1  0  0  0  0
  2 16  1  0  0  0  0
  3 17  1  0  0  0  0
  4 18  1  0  0  0  0
  7 19  1  0  0  0  0
  7 20  1  0  0  0  0
  8 21  1  0  0  0  0
  8 22  1  0  0  0  0
  9 23  1  0  0  0  0
 10 24  1  0  0  0  0
 10 25  1  0  0  0  0
 13 26  1  0  0  0  0
 13 27  1  0  0  0  0
M  END
> <FRED Chemgauss4 score>
-7.820206

$$$$
C78676016	P122779583
  -OEChem-05122015313D

 24 24  0     1  0  0  0  0  0999 V2000
  123.2665  106.2469  105.9095 C   0  0  0  0  0  0  0  0  0  0  0  0
  123.8624  105.6322  106.9854 C   0  0  0  0  0  0  0  0  0  0  0  0
  124.1936  107.8107  107.0166 C   0  0  0  0  0  0  0  0  0  0  0  0
  127.4257  106.9026  107.7909 C   0  0  0  0  0  0  0  0  0  0  0  0
  124.6845  109.1191  107.4952 C   0  0  0  0  0  0  0  0  0  0  0  0
  125.2174  106.4955  108.9227 C   0  0  0  0  0  0  0  0  0  0  0  0
  126.6311  105.9583  108.6823 C   0  0  2  0  0  0  0  0  0  0  0  0
  123.4766  107.6030  105.9346 N   0  0  0  0  0  0  0  0  0  0  0  0
  124.4527  106.6466  107.6852 N   0  0  0  0  0  0  0  0  0  0  0  0
  123.9351  109.6212  108.6259 N   0  0  0  0  0  0  0  0  0  0  0  0
  127.3292  105.8545  109.9213 O   0  0  0  0  0  0  0  0  0  0  0  0
  122.6970  105.7820  105.1181 H   0  0  0  0  0  0  0  0  0  0  0  0
  123.9151  104.5994  107.3007 H   0  0  0  0  0  0  0  0  0  0  0  0
  127.4708  107.9092  108.2175 H   0  0  0  0  0  0  0  0  0  0  0  0
  128.4488  106.5338  107.6595 H   0  0  0  0  0  0  0  0  0  0  0  0
  126.9831  106.9640  106.7904 H   0  0  0  0  0  0  0  0  0  0  0  0
  125.7420  109.0708  107.8092 H   0  0  0  0  0  0  0  0  0  0  0  0
  124.6340  109.8955  106.7120 H   0  0  0  0  0  0  0  0  0  0  0  0
  124.6407  105.8185  109.5646 H   0  0  0  0  0  0  0  0  0  0  0  0
  125.2460  107.4759  109.4133 H   0  0  0  0  0  0  0  0  0  0  0  0
  126.6092  104.9641  108.2219 H   0  0  0  0  0  0  0  0  0  0  0  0
  123.8929  110.6127  108.7755 H   0  0  0  0  0  0  0  0  0  0  0  0
  123.6503  108.9770  109.3409 H   0  0  0  0  0  0  0  0  0  0  0  0
  128.2080  105.5015  109.7136 H   0  0  0  0  0  0  0  0  0  0  0  0
  1  2  2  0  0  0  0
  1  8  1  0  0  0  0
  2  9  1  0  0  0  0
  3  5  1  0  0  0  0
  3  8  2  0  0  0  0
  3  9  1  0  0  0  0
  4  7  1  0  0  0  0
  5 10  1  0  0  0  0
  6  7  1  0  0  0  0
  6  9  1  0  0  0  0
  7 11  1  0  0  0  0
  1 12  1  0  0  0  0
  2 13  1  0  0  0  0
  4 14  1  0  0  0  0
  4 15  1  0  0  0  0
  4 16  1  0  0  0  0
  5 17  1  0  0  0  0
  5 18  1  0  0  0  0
  6 19  1  0  0  0  0
  6 20  1  0  0  0  0
  7 21  1  0  0  0  0
 10 22  1  0  0  0  0
 10 23  1  0  0  0  0
 11 24  1  0  0  0  0
M  END
> <FRED Chemgauss4 score>
-7.815711

$$$$
C87651822	P137104705
  -OEChem-05122015313D

 24 25  0     0  0  0  0  0  0999 V2000
  124.0245  108.6743  110.1841 C   0  0  0  0  0  0  0  0  0  0  0  0
  125.1769  104.5990  107.7332 C   0  0  0  0  0  0  0  0  0  0  0  0
  124.1847  106.1624  106.6229 C   0  0  0  0  0  0  0  0  0  0  0  0
  125.2387  106.1389  107.7472 C   0  0  0  0  0  0  0  0  0  0  0  0
  123.8822  104.6736  106.8961 C   0  0  0  0  0  0  0  0  0  0  0  0
  124.2162  108.0157  108.8485 C   0  0  0  0  0  0  0  0  0  0  0  0
  123.6230  108.0072  111.2828 N   0  5  0  0  0  0  0  0  0  0  0  0
  124.2380  109.9870  110.3948 N   0  0  0  0  0  0  0  0  0  0  0  0
  123.5823  108.9638  112.2440 N   0  0  0  0  0  0  0  0  0  0  0  0
  123.9517  110.1532  111.7107 N   0  0  0  0  0  0  0  0  0  0  0  0
  124.6210  106.6229  108.9808 N   0  0  0  0  0  0  0  0  0  0  0  0
  122.6627  104.4684  107.6966 N   0  3  0  0  0  0  0  0  0  0  0  0
  126.0276  104.1007  107.2336 H   0  0  0  0  0  0  0  0  0  0  0  0
  125.0530  104.1107  108.7209 H   0  0  0  0  0  0  0  0  0  0  0  0
  123.3222  106.8400  106.7839 H   0  0  0  0  0  0  0  0  0  0  0  0
  124.5815  106.3816  105.6149 H   0  0  0  0  0  0  0  0  0  0  0  0
  126.2078  106.5761  107.5036 H   0  0  0  0  0  0  0  0  0  0  0  0
  123.8892  104.0401  105.9977 H   0  0  0  0  0  0  0  0  0  0  0  0
  123.2879  108.0434  108.2676 H   0  0  0  0  0  0  0  0  0  0  0  0
  124.9827  108.5328  108.2618 H   0  0  0  0  0  0  0  0  0  0  0  0
  125.2896  106.5384  109.7457 H   0  0  0  0  0  0  0  0  0  0  0  0
  122.3419  105.3437  108.1387 H   0  0  0  0  0  0  0  0  0  0  0  0
  122.8124  103.7846  108.4548 H   0  0  0  0  0  0  0  0  0  0  0  0
  121.8812  104.1162  107.1222 H   0  0  0  0  0  0  0  0  0  0  0  0
  1  6  1  0  0  0  0
  1  7  1  0  0  0  0
  1  8  2  0  0  0  0
  2  4  1  0  0  0  0
  2  5  1  0  0  0  0
  3  4  1  0  0  0  0
  3  5  1  0  0  0  0
  4 11  1  0  0  0  0
  5 12  1  0  0  0  0
  6 11  1  0  0  0  0
  7  9  1  0  0  0  0
  8 10  1  0  0  0  0
  9 10  2  0  0  0  0
  2 13  1  0  0  0  0
  2 14  1  0  0  0  0
  3 15  1  0  0  0  0
  3 16  1  0  0  0  0
  4 17  1  0  0  0  0
  5 18  1  0  0  0  0
  6 19  1  0  0  0  0
  6 20  1  0  0  0  0
 11 21  1  0  0  0  0
 12 22  1  0  0  0  0
 12 23  1  0  0  0  0
 12 24  1  0  0  0  0
M  CHG  2   7  -1  12   1
M  END
> <FRED Chemgauss4 score>
-7.809402

$$$$
C86072807	P134778184
  -OEChem-05122015313D

 28 28  0     1  0  0  0  0  0999 V2000
  126.1738  107.8988  107.3606 C   0  0  0  0  0  0  0  0  0  0  0  0
  124.7487  107.3393  109.1248 C   0  0  0  0  0  0  0  0  0  0  0  0
  124.8073  109.4555  108.2968 C   0  0  0  0  0  0  0  0  0  0  0  0
  125.7077  106.9269  108.2222 C   0  0  0  0  0  0  0  0  0  0  0  0
  125.6818  103.2737  107.0150 C   0  0  0  0  0  0  0  0  0  0  0  0
  124.3535  103.8989  109.0427 C   0  0  0  0  0  0  0  0  0  0  0  0
  122.9235  104.4016  106.9587 C   0  0  0  0  0  0  0  0  0  0  0  0
  126.2182  105.4891  108.1792 C   0  0  2  0  0  0  0  0  0  0  0  0
  125.1074  104.4485  107.8253 C   0  0  0  0  0  0  0  0  0  0  0  0
  125.7441  109.1777  107.3701 N   0  0  0  0  0  0  0  0  0  0  0  0
  124.2741  108.6006  109.1903 N   0  0  0  0  0  0  0  0  0  0  0  0
  126.9446  105.1432  109.4097 N   0  0  0  0  0  0  0  0  0  0  0  0
  124.1557  105.0991  106.9698 O   0  0  0  0  0  0  0  0  0  0  0  0
  126.9287  107.6757  106.6130 H   0  0  0  0  0  0  0  0  0  0  0  0
  124.3185  106.6509  109.8454 H   0  0  0  0  0  0  0  0  0  0  0  0
  124.4453  110.4758  108.3270 H   0  0  0  0  0  0  0  0  0  0  0  0
  126.2325  103.6087  106.1307 H   0  0  0  0  0  0  0  0  0  0  0  0
  126.3647  102.6735  107.6281 H   0  0  0  0  0  0  0  0  0  0  0  0
  124.8831  102.5952  106.6949 H   0  0  0  0  0  0  0  0  0  0  0  0
  123.9238  104.6977  109.6547 H   0  0  0  0  0  0  0  0  0  0  0  0
  123.5568  103.2101  108.7444 H   0  0  0  0  0  0  0  0  0  0  0  0
  125.0254  103.3108  109.6794 H   0  0  0  0  0  0  0  0  0  0  0  0
  122.2184  104.9165  106.3015 H   0  0  0  0  0  0  0  0  0  0  0  0
  122.5224  104.3525  107.9742 H   0  0  0  0  0  0  0  0  0  0  0  0
  123.0919  103.3884  106.5862 H   0  0  0  0  0  0  0  0  0  0  0  0
  126.9645  105.4538  107.3726 H   0  0  0  0  0  0  0  0  0  0  0  0
  127.4394  105.8696  109.8706 H   0  0  0  0  0  0  0  0  0  0  0  0
  127.0771  104.1801  109.6093 H   0  0  0  0  0  0  0  0  0  0  0  0
  1  4  1  0  0  0  0
  1 10  2  0  0  0  0
  2  4  2  0  0  0  0
  2 11  1  0  0  0  0
  3 10  1  0  0  0  0
  3 11  2  0  0  0  0
  4  8  1  0  0  0  0
  5  9  1  0  0  0  0
  6  9  1  0  0  0  0
  7 13  1  0  0  0  0
  8  9  1  0  0  0  0
  8 12  1  0  0  0  0
  9 13  1  0  0  0  0
  1 14  1  0  0  0  0
  2 15  1  0  0  0  0
  3 16  1  0  0  0  0
  5 17  1  0  0  0  0
  5 18  1  0  0  0  0
  5 19  1  0  0  0  0
  6 20  1  0  0  0  0
  6 21  1  0  0  0  0
  6 22  1  0  0  0  0
  7 23  1  0  0  0  0
  7 24  1  0  0  0  0
  7 25  1  0  0  0  0
  8 26  1  0  0  0  0
 12 27  1  0  0  0  0
 12 28  1  0  0  0  0
M  END
> <FRED Chemgauss4 score>
-7.808569

$$$$
C39118757	P59262028
  -OEChem-05122015313D

 17 17  0     0  0  0  0  0  0999 V2000
  126.0290  108.3110  107.3471 C   0  0  0  0  0  0  0  0  0  0  0  0
  123.8969  104.8438  107.3767 C   0  0  0  0  0  0  0  0  0  0  0  0
  125.2754  104.2809  107.6060 C   0  0  0  0  0  0  0  0  0  0  0  0
  123.7824  105.9001  106.2980 C   0  0  0  0  0  0  0  0  0  0  0  0
  125.3784  109.0295  106.3885 N   0  0  0  0  0  0  0  0  0  0  0  0
  125.5783  107.0623  107.4923 N   0  0  0  0  0  0  0  0  0  0  0  0
  124.4599  108.2160  105.8823 N   0  0  0  0  0  0  0  0  0  0  0  0
  124.6137  107.0709  106.5616 N   0  0  0  0  0  0  0  0  0  0  0  0
  127.0338  108.8948  108.0460 N   0  0  0  0  0  0  0  0  0  0  0  0
  122.9360  104.4526  108.0378 O   0  0  0  0  0  0  0  0  0  0  0  0
  125.7967  104.8760  108.3608 H   0  0  0  0  0  0  0  0  0  0  0  0
  125.1955  103.2506  107.9613 H   0  0  0  0  0  0  0  0  0  0  0  0
  125.8447  104.3159  106.6739 H   0  0  0  0  0  0  0  0  0  0  0  0
  122.7421  106.2330  106.2213 H   0  0  0  0  0  0  0  0  0  0  0  0
  124.0894  105.4761  105.3362 H   0  0  0  0  0  0  0  0  0  0  0  0
  127.3523  109.8503  107.8421 H   0  0  0  0  0  0  0  0  0  0  0  0
  127.5816  108.3759  108.7436 H   0  0  0  0  0  0  0  0  0  0  0  0
  1  5  1  0  0  0  0
  1  6  2  0  0  0  0
  1  9  1  0  0  0  0
  2  3  1  0  0  0  0
  2  4  1  0  0  0  0
  2 10  2  0  0  0  0
  4  8  1  0  0  0  0
  5  7  2  0  0  0  0
  6  8  1  0  0  0  0
  7  8  1  0  0  0  0
  3 11  1  0  0  0  0
  3 12  1  0  0  0  0
  3 13  1  0  0  0  0
  4 14  1  0  0  0  0
  4 15  1  0  0  0  0
  9 16  1  0  0  0  0
  9 17  1  0  0  0  0
M  END
> <FRED Chemgauss4 score>
-7.800965

$$$$
C82915766	P129631297
  -OEChem-05122015313D

 30 30  0     1  0  0  0  0  0999 V2000
  120.8223  105.6090  105.1830 C   0  0  0  0  0  0  0  0  0  0  0  0
  122.0777  104.6516  106.7135 C   0  0  0  0  0  0  0  0  0  0  0  0
  120.8138  104.6125  106.1773 C   0  0  0  0  0  0  0  0  0  0  0  0
  119.7015  103.7285  106.5601 C   0  0  0  0  0  0  0  0  0  0  0  0
  126.8831  106.0249  107.3405 C   0  0  0  0  0  0  0  0  0  0  0  0
  124.4044  106.5173  107.7015 C   0  0  0  0  0  0  0  0  0  0  0  0
  124.1699  106.0622  106.2535 C   0  0  0  0  0  0  0  0  0  0  0  0
  126.0967  108.4252  107.6153 C   0  0  0  0  0  0  0  0  0  0  0  0
  125.8582  106.9492  108.0070 C   0  0  2  0  0  0  0  0  0  0  0  0
  121.9984  106.2355  105.0910 N   0  0  0  0  0  0  0  0  0  0  0  0
  122.7406  105.6312  106.0344 N   0  0  0  0  0  0  0  0  0  0  0  0
  125.9384  108.6943  106.1913 N   0  0  0  0  0  0  0  0  0  0  0  0
  126.0795  106.8536  109.4204 O   0  0  0  0  0  0  0  0  0  0  0  0
  120.0217  105.9073  104.5210 H   0  0  0  0  0  0  0  0  0  0  0  0
  122.5498  104.0808  107.5016 H   0  0  0  0  0  0  0  0  0  0  0  0
  119.7105  102.7938  105.9726 H   0  0  0  0  0  0  0  0  0  0  0  0
  119.7382  103.4484  107.6285 H   0  0  0  0  0  0  0  0  0  0  0  0
  118.7164  104.2059  106.4081 H   0  0  0  0  0  0  0  0  0  0  0  0
  127.9085  106.3397  107.5632 H   0  0  0  0  0  0  0  0  0  0  0  0
  126.7643  104.9839  107.6560 H   0  0  0  0  0  0  0  0  0  0  0  0
  126.7900  106.0677  106.2490 H   0  0  0  0  0  0  0  0  0  0  0  0
  124.1406  105.6835  108.3670 H   0  0  0  0  0  0  0  0  0  0  0  0
  123.7132  107.3363  107.9386 H   0  0  0  0  0  0  0  0  0  0  0  0
  124.4048  106.8706  105.5512 H   0  0  0  0  0  0  0  0  0  0  0  0
  124.8388  105.2319  105.9965 H   0  0  0  0  0  0  0  0  0  0  0  0
  127.1009  108.7336  107.9323 H   0  0  0  0  0  0  0  0  0  0  0  0
  125.4043  109.0671  108.1739 H   0  0  0  0  0  0  0  0  0  0  0  0
  126.2863  108.0203  105.5425 H   0  0  0  0  0  0  0  0  0  0  0  0
  125.6795  109.6169  105.9117 H   0  0  0  0  0  0  0  0  0  0  0  0
  126.9901  107.1441  109.5690 H   0  0  0  0  0  0  0  0  0  0  0  0
  1  3  1  0  0  0  0
  1 10  2  0  0  0  0
  2  3  2  0  0  0  0
  2 11  1  0  0  0  0
  3  4  1  0  0  0  0
  5  9  1  0  0  0  0
  6  7  1  0  0  0  0
  6  9  1  0  0  0  0
  7 11  1  0  0  0  0
  8  9  1  0  0  0  0
  8 12  1  0  0  0  0
  9 13  1  0  0  0  0
 10 11  1  0  0  0  0
  1 14  1  0  0  0  0
  2 15  1  0  0  0  0
  4 16  1  0  0  0  0
  4 17  1  0  0  0  0
  4 18  1  0  0  0  0
  5 19  1  0  0  0  0
  5 20  1  0  0  0  0
  5 21  1  0  0  0  0
  6 22  1  0  0  0  0
  6 23  1  0  0  0  0
  7 24  1  0  0  0  0
  7 25  1  0  0  0  0
  8 26  1  0  0  0  0
  8 27  1  0  0  0  0
 12 28  1  0  0  0  0
 12 29  1  0  0  0  0
 13 30  1  0  0  0  0
M  END
> <FRED Chemgauss4 score>
-7.794982

$$$$
C36778321	P54653683
  -OEChem-05122015313D

 15 15  0     0  0  0  0  0  0999 V2000
  124.2826  108.6268  110.4746 C   0  0  0  0  0  0  0  0  0  0  0  0
  123.0379  107.1676  109.3992 C   0  0  0  0  0  0  0  0  0  0  0  0
  124.1522  107.9554  109.2441 C   0  0  0  0  0  0  0  0  0  0  0  0
  124.9659  108.0385  108.0704 C   0  0  0  0  0  0  0  0  0  0  0  0
  123.3272  108.2947  111.3469 N   0  0  0  0  0  0  0  0  0  0  0  0
  122.5859  107.4061  110.6637 N   0  0  0  0  0  0  0  0  0  0  0  0
  127.1715  108.4749  107.1695 N   0  0  0  0  0  0  0  0  0  0  0  0
  126.3151  108.3975  108.2526 N   0  0  0  0  0  0  0  0  0  0  0  0
  124.5467  107.7890  106.9144 O   0  0  0  0  0  0  0  0  0  0  0  0
  125.0324  109.3448  110.7757 H   0  0  0  0  0  0  0  0  0  0  0  0
  122.5346  106.4729  108.7414 H   0  0  0  0  0  0  0  0  0  0  0  0
  121.7817  106.9976  111.1235 H   0  0  0  0  0  0  0  0  0  0  0  0
  128.0915  108.1868  107.5005 H   0  0  0  0  0  0  0  0  0  0  0  0
  126.8746  107.7591  106.5077 H   0  0  0  0  0  0  0  0  0  0  0  0
  126.6612  108.6007  109.1842 H   0  0  0  0  0  0  0  0  0  0  0  0
  1  3  1  0  0  0  0
  1  5  2  0  0  0  0
  2  3  2  0  0  0  0
  2  6  1  0  0  0  0
  3  4  1  0  0  0  0
  4  8  1  0  0  0  0
  4  9  2  0  0  0  0
  5  6  1  0  0  0  0
  7  8  1  0  0  0  0
  1 10  1  0  0  0  0
  2 11  1  0  0  0  0
  6 12  1  0  0  0  0
  7 13  1  0  0  0  0
  7 14  1  0  0  0  0
  8 15  1  0  0  0  0
M  END
> <FRED Chemgauss4 score>
-7.791349

$$$$
C85798005	P134352462
  -OEChem-05122015313D

 26 26  0     1  0  0  0  0  0999 V2000
  124.0242  109.3569  109.8288 C   0  0  0  0  0  0  0  0  0  0  0  0
  123.9329  107.9828  109.7997 C   0  0  0  0  0  0  0  0  0  0  0  0
  125.3443  109.3088  107.9621 C   0  0  0  0  0  0  0  0  0  0  0  0
  125.2537  107.9346  107.9334 C   0  0  0  0  0  0  0  0  0  0  0  0
  125.0593  104.1742  107.1300 C   0  0  0  0  0  0  0  0  0  0  0  0
  123.0239  104.9306  106.1015 C   0  0  0  0  0  0  0  0  0  0  0  0
  125.0011  106.2916  105.9960 C   0  0  0  0  0  0  0  0  0  0  0  0
  125.9587  107.1382  106.8491 C   0  0  1  0  0  0  0  0  0  0  0  0
  124.7315  110.0446  108.9105 N   0  0  0  0  0  0  0  0  0  0  0  0
  124.5461  107.2469  108.8515 N   0  0  0  0  0  0  0  0  0  0  0  0
  126.7425  108.0220  105.9779 N   0  0  0  0  0  0  0  0  0  0  0  0
  124.2391  105.3404  106.8044 N   0  0  0  0  0  0  0  0  0  0  0  0
  123.5314  109.9475  110.5912 H   0  0  0  0  0  0  0  0  0  0  0  0
  123.3643  107.4309  110.5379 H   0  0  0  0  0  0  0  0  0  0  0  0
  125.9110  109.8684  107.2272 H   0  0  0  0  0  0  0  0  0  0  0  0
  125.9656  104.4871  107.6549 H   0  0  0  0  0  0  0  0  0  0  0  0
  125.3462  103.6469  106.2161 H   0  0  0  0  0  0  0  0  0  0  0  0
  124.5010  103.4865  107.7708 H   0  0  0  0  0  0  0  0  0  0  0  0
  122.4155  105.8063  105.8611 H   0  0  0  0  0  0  0  0  0  0  0  0
  122.4354  104.2541  106.7272 H   0  0  0  0  0  0  0  0  0  0  0  0
  123.2805  104.4145  105.1725 H   0  0  0  0  0  0  0  0  0  0  0  0
  124.2650  106.9303  105.4946 H   0  0  0  0  0  0  0  0  0  0  0  0
  125.5238  105.7185  105.2228 H   0  0  0  0  0  0  0  0  0  0  0  0
  126.6710  106.4558  107.3311 H   0  0  0  0  0  0  0  0  0  0  0  0
  126.9798  107.6866  105.0734 H   0  0  0  0  0  0  0  0  0  0  0  0
  127.1705  108.8172  106.3921 H   0  0  0  0  0  0  0  0  0  0  0  0
  1  2  2  0  0  0  0
  1  9  1  0  0  0  0
  2 10  1  0  0  0  0
  3  4  1  0  0  0  0
  3  9  2  0  0  0  0
  4  8  1  0  0  0  0
  4 10  2  0  0  0  0
  5 12  1  0  0  0  0
  6 12  1  0  0  0  0
  7  8  1  0  0  0  0
  7 12  1  0  0  0  0
  8 11  1  0  0  0  0
  1 13  1  0  0  0  0
  2 14  1  0  0  0  0
  3 15  1  0  0  0  0
  5 16  1  0  0  0  0
  5 17  1  0  0  0  0
  5 18  1  0  0  0  0
  6 19  1  0  0  0  0
  6 20  1  0  0  0  0
  6 21  1  0  0  0  0
  7 22  1  0  0  0  0
  7 23  1  0  0  0  0
  8 24  1  0  0  0  0
 11 25  1  0  0  0  0
 11 26  1  0  0  0  0
M  END
> <FRED Chemgauss4 score>
-7.786483

$$$$
C82468597	P128880427
  -OEChem-05122015313D

 34 34  0     1  0  0  0  0  0999 V2000
  124.9254  107.5825  105.9358 C   0  0  0  0  0  0  0  0  0  0  0  0
  120.4699  104.1863  105.9211 C   0  0  0  0  0  0  0  0  0  0  0  0
  121.5811  105.1736  106.2624 C   0  0  0  0  0  0  0  0  0  0  0  0
  120.3226  104.0176  104.4069 C   0  0  0  0  0  0  0  0  0  0  0  0
  121.2121  106.2376  104.0026 C   0  0  0  0  0  0  0  0  0  0  0  0
  121.3898  106.4896  105.5067 C   0  0  2  0  0  0  0  0  0  0  0  0
  118.8148  105.8464  103.8590 C   0  0  0  0  0  0  0  0  0  0  0  0
  122.3572  108.0503  107.0330 C   0  0  0  0  0  0  0  0  0  0  0  0
  123.7657  106.6428  105.6884 C   0  0  0  0  0  0  0  0  0  0  0  0
  120.1483  105.2789  103.6754 N   0  0  2  0  0  0  0  0  0  0  0  0
  126.7438  107.9546  107.4309 N   0  0  0  0  0  0  0  0  0  0  0  0
  125.6457  107.2070  107.0579 N   0  0  0  0  0  0  0  0  0  0  0  0
  122.5026  107.3786  105.7418 N   0  0  1  0  0  0  0  0  0  0  0  0
  125.1772  108.5471  105.2176 O   0  0  0  0  0  0  0  0  0  0  0  0
  120.6832  103.2159  106.3818 H   0  0  0  0  0  0  0  0  0  0  0  0
  119.5225  104.5413  106.3448 H   0  0  0  0  0  0  0  0  0  0  0  0
  121.5965  105.3503  107.3459 H   0  0  0  0  0  0  0  0  0  0  0  0
  122.5498  104.7240  106.0016 H   0  0  0  0  0  0  0  0  0  0  0  0
  121.2001  103.4593  104.0149 H   0  0  0  0  0  0  0  0  0  0  0  0
  119.4479  103.3599  104.2233 H   0  0  0  0  0  0  0  0  0  0  0  0
  120.9876  107.2075  103.5103 H   0  0  0  0  0  0  0  0  0  0  0  0
  122.1759  105.9014  103.5600 H   0  0  0  0  0  0  0  0  0  0  0  0
  120.4713  106.9762  105.8863 H   0  0  0  0  0  0  0  0  0  0  0  0
  118.7245  106.7818  103.3007 H   0  0  0  0  0  0  0  0  0  0  0  0
  118.6331  106.0497  104.9179 H   0  0  0  0  0  0  0  0  0  0  0  0
  118.0541  105.1477  103.5007 H   0  0  0  0  0  0  0  0  0  0  0  0
  123.2027  108.7215  107.2046 H   0  0  0  0  0  0  0  0  0  0  0  0
  122.3231  107.3138  107.8404 H   0  0  0  0  0  0  0  0  0  0  0  0
  121.4338  108.6352  107.0529 H   0  0  0  0  0  0  0  0  0  0  0  0
  123.8838  106.1812  104.7030 H   0  0  0  0  0  0  0  0  0  0  0  0
  123.7655  105.8565  106.4496 H   0  0  0  0  0  0  0  0  0  0  0  0
  126.7884  107.9270  108.4487 H   0  0  0  0  0  0  0  0  0  0  0  0
  126.5401  108.9225  107.1845 H   0  0  0  0  0  0  0  0  0  0  0  0
  125.3695  106.3930  107.5984 H   0  0  0  0  0  0  0  0  0  0  0  0
  1  9  1  0  0  0  0
  1 12  1  0  0  0  0
  1 14  2  0  0  0  0
  2  3  1  0  0  0  0
  2  4  1  0  0  0  0
  3  6  1  0  0  0  0
  4 10  1  0  0  0  0
  5  6  1  0  0  0  0
  5 10  1  0  0  0  0
  6 13  1  0  0  0  0
  7 10  1  0  0  0  0
  8 13  1  0  0  0  0
  9 13  1  0  0  0  0
 11 12  1  0  0  0  0
  2 15  1  0  0  0  0
  2 16  1  0  0  0  0
  3 17  1  0  0  0  0
  3 18  1  0  0  0  0
  4 19  1  0  0  0  0
  4 20  1  0  0  0  0
  5 21  1  0  0  0  0
  5 22  1  0  0  0  0
  6 23  1  0  0  0  0
  7 24  1  0  0  0  0
  7 25  1  0  0  0  0
  7 26  1  0  0  0  0
  8 27  1  0  0  0  0
  8 28  1  0  0  0  0
  8 29  1  0  0  0  0
  9 30  1  0  0  0  0
  9 31  1  0  0  0  0
 11 32  1  0  0  0  0
 11 33  1  0  0  0  0
 12 34  1  0  0  0  0
M  END
> <FRED Chemgauss4 score>
-7.783708

$$$$
C95922182	P151021485
  -OEChem-05122015313D

 21 21  0     1  0  0  0  0  0999 V2000
  124.6501  106.8739  108.9445 C   0  0  0  0  0  0  0  0  0  0  0  0
  123.8649  107.7056  108.2427 C   0  0  0  0  0  0  0  0  0  0  0  0
  125.9683  106.3526  108.4285 C   0  0  1  0  0  0  0  0  0  0  0  0
  124.1987  108.1855  106.8597 C   0  0  1  0  0  0  0  0  0  0  0  0
  126.4951  107.1718  107.2321 C   0  0  1  0  0  0  0  0  0  0  0  0
  125.3642  107.4120  106.2244 C   0  0  2  0  0  0  0  0  0  0  0  0
  126.9698  106.2842  109.4959 N   0  0  0  0  0  0  0  0  0  0  0  0
  123.0409  108.0250  106.0402 O   0  0  0  0  0  0  0  0  0  0  0  0
  126.9926  108.4322  107.6933 O   0  0  0  0  0  0  0  0  0  0  0  0
  125.8578  108.1663  105.1184 O   0  0  0  0  0  0  0  0  0  0  0  0
  124.3162  106.5453  109.9255 H   0  0  0  0  0  0  0  0  0  0  0  0
  122.9360  108.0513  108.6883 H   0  0  0  0  0  0  0  0  0  0  0  0
  125.7836  105.3245  108.0916 H   0  0  0  0  0  0  0  0  0  0  0  0
  124.4147  109.2598  106.8967 H   0  0  0  0  0  0  0  0  0  0  0  0
  127.3356  106.6558  106.7528 H   0  0  0  0  0  0  0  0  0  0  0  0
  125.0071  106.4554  105.8221 H   0  0  0  0  0  0  0  0  0  0  0  0
  127.9276  106.2401  109.2315 H   0  0  0  0  0  0  0  0  0  0  0  0
  126.6534  106.0805  110.4167 H   0  0  0  0  0  0  0  0  0  0  0  0
  122.3427  108.5619  106.4444 H   0  0  0  0  0  0  0  0  0  0  0  0
  126.2455  108.8786  108.1172 H   0  0  0  0  0  0  0  0  0  0  0  0
  126.5889  107.6539  104.7409 H   0  0  0  0  0  0  0  0  0  0  0  0
  1  2  2  0  0  0  0
  1  3  1  0  0  0  0
  2  4  1  0  0  0  0
  3  5  1  0  0  0  0
  3  7  1  0  0  0  0
  4  6  1  0  0  0  0
  4  8  1  0  0  0  0
  5  6  1  0  0  0  0
  5  9  1  0  0  0  0
  6 10  1  0  0  0  0
  1 11  1  0  0  0  0
  2 12  1  0  0  0  0
  3 13  1  0  0  0  0
  4 14  1  0  0  0  0
  5 15  1  0  0  0  0
  6 16  1  0  0  0  0
  7 17  1  0  0  0  0
  7 18  1  0  0  0  0
  8 19  1  0  0  0  0
  9 20  1  0  0  0  0
 10 21  1  0  0  0  0
M  END
> <FRED Chemgauss4 score>
-7.781434

$$$$
C05975518	P111279700
  -OEChem-05122015313D

 23 23  0     1  0  0  0  0  0999 V2000
  125.1117  107.5363  106.3109 C   0  0  2  0  0  0  0  0  0  0  0  0
  124.7136  108.7094  107.2013 C   0  0  1  0  0  0  0  0  0  0  0  0
  126.1066  106.6159  107.0184 C   0  0  1  0  0  0  0  0  0  0  0  0
  124.0950  108.1705  108.5084 C   0  0  2  0  0  0  0  0  0  0  0  0
  125.9990  106.7032  108.5420 C   0  0  1  0  0  0  0  0  0  0  0  0
  124.1737  109.1444  109.6787 C   0  0  0  0  0  0  0  0  0  0  0  0
  124.6387  106.9015  108.9171 O   0  0  0  0  0  0  0  0  0  0  0  0
  125.6762  108.0236  105.0987 O   0  0  0  0  0  0  0  0  0  0  0  0
  125.8646  109.5084  107.4815 O   0  0  0  0  0  0  0  0  0  0  0  0
  126.5275  105.5092  109.1084 O   0  0  0  0  0  0  0  0  0  0  0  0
  123.4868  110.3315  109.3255 O   0  0  0  0  0  0  0  0  0  0  0  0
  125.8059  105.3383  106.6315 F   0  0  0  0  0  0  0  0  0  0  0  0
  124.2146  106.9593  106.0336 H   0  0  0  0  0  0  0  0  0  0  0  0
  123.9943  109.3511  106.6681 H   0  0  0  0  0  0  0  0  0  0  0  0
  127.1168  106.8262  106.6805 H   0  0  0  0  0  0  0  0  0  0  0  0
  122.9893  108.0051  108.3169 H   0  0  0  0  0  0  0  0  0  0  0  0
  126.5897  107.5365  108.8974 H   0  0  0  0  0  0  0  0  0  0  0  0
  125.2152  109.3827  109.8962 H   0  0  0  0  0  0  0  0  0  0  0  0
  123.7053  108.7067  110.5607 H   0  0  0  0  0  0  0  0  0  0  0  0
  124.9926  108.5632  104.6712 H   0  0  0  0  0  0  0  0  0  0  0  0
  126.1944  109.8182  106.6254 H   0  0  0  0  0  0  0  0  0  0  0  0
  126.4432  105.5997  110.0700 H   0  0  0  0  0  0  0  0  0  0  0  0
  123.5508  110.9348  110.0853 H   0  0  0  0  0  0  0  0  0  0  0  0
  1  2  1  0  0  0  0
  1  3  1  0  0  0  0
  1  8  1  0  0  0  0
  2  4  1  0  0  0  0
  2  9  1  0  0  0  0
  3  5  1  0  0  0  0
  3 12  1  0  0  0  0
  4  6  1  0  0  0  0
  4  7  1  0  0  0  0
  5  7  1  0  0  0  0
  5 10  1  0  0  0  0
  6 11  1  0  0  0  0
  1 13  1  0  0  0  0
  2 14  1  0  0  0  0
  3 15  1  0  0  0  0
  4 16  1  0  0  0  0
  5 17  1  0  0  0  0
  6 18  1  0  0  0  0
  6 19  1  0  0  0  0
  8 20  1  0  0  0  0
  9 21  1  0  0  0  0
 10 22  1  0  0  0  0
 11 23  1  0  0  0  0
M  END
> <FRED Chemgauss4 score>
-7.774132

$$$$
C82916931	P129633296
  -OEChem-05122015313D

 31 30  0     1  0  0  0  0  0999 V2000
  126.4943  106.8219  107.0557 C   0  0  0  0  0  0  0  0  0  0  0  0
  124.3219  113.2147  112.3129 C   0  0  0  0  0  0  0  0  0  0  0  0
  123.7594  109.7125  111.3190 C   0  0  0  0  0  0  0  0  0  0  0  0
  124.1184  106.5542  106.2133 C   0  0  0  0  0  0  0  0  0  0  0  0
  123.4294  111.0792  111.9056 C   0  0  0  0  0  0  0  0  0  0  0  0
  124.1308  109.8192  109.8452 C   0  0  0  0  0  0  0  0  0  0  0  0
  124.8968  108.7088  107.4585 C   0  0  0  0  0  0  0  0  0  0  0  0
  125.2603  107.5532  106.5027 C   0  0  1  0  0  0  0  0  0  0  0  0
  122.9038  107.1850  105.7113 N   0  0  0  0  0  0  0  0  0  0  0  0
  125.6536  108.1433  105.2549 O   0  0  0  0  0  0  0  0  0  0  0  0
  124.5620  111.9254  111.7647 O   0  0  0  0  0  0  0  0  0  0  0  0
  124.5173  108.1912  109.1646 S   0  0  0  0  0  0  0  0  0  0  0  0
  127.3072  107.5276  107.2625 H   0  0  0  0  0  0  0  0  0  0  0  0
  126.2686  106.2743  107.9763 H   0  0  0  0  0  0  0  0  0  0  0  0
  126.8863  106.1107  106.3192 H   0  0  0  0  0  0  0  0  0  0  0  0
  125.2116  113.8364  112.1870 H   0  0  0  0  0  0  0  0  0  0  0  0
  124.0771  113.1207  113.3739 H   0  0  0  0  0  0  0  0  0  0  0  0
  123.4818  113.6739  111.7865 H   0  0  0  0  0  0  0  0  0  0  0  0
  124.5798  109.2664  111.8960 H   0  0  0  0  0  0  0  0  0  0  0  0
  122.8957  109.0490  111.4562 H   0  0  0  0  0  0  0  0  0  0  0  0
  124.4608  105.8202  105.4728 H   0  0  0  0  0  0  0  0  0  0  0  0
  123.8847  105.9635  107.1065 H   0  0  0  0  0  0  0  0  0  0  0  0
  122.5853  111.5365  111.3797 H   0  0  0  0  0  0  0  0  0  0  0  0
  123.1852  110.9987  112.9696 H   0  0  0  0  0  0  0  0  0  0  0  0
  125.0062  110.4634  109.7146 H   0  0  0  0  0  0  0  0  0  0  0  0
  123.3050  110.2484  109.2690 H   0  0  0  0  0  0  0  0  0  0  0  0
  125.7377  109.4082  107.5316 H   0  0  0  0  0  0  0  0  0  0  0  0
  124.0346  109.2698  107.0828 H   0  0  0  0  0  0  0  0  0  0  0  0
  122.0349  106.7147  105.8530 H   0  0  0  0  0  0  0  0  0  0  0  0
  122.9973  107.9484  105.0750 H   0  0  0  0  0  0  0  0  0  0  0  0
  126.3779  108.7490  105.4634 H   0  0  0  0  0  0  0  0  0  0  0  0
  1  8  1  0  0  0  0
  2 11  1  0  0  0  0
  3  5  1  0  0  0  0
  3  6  1  0  0  0  0
  4  8  1  0  0  0  0
  4  9  1  0  0  0  0
  5 11  1  0  0  0  0
  6 12  1  0  0  0  0
  7  8  1  0  0  0  0
  7 12  1  0  0  0  0
  8 10  1  0  0  0  0
  1 13  1  0  0  0  0
  1 14  1  0  0  0  0
  1 15  1  0  0  0  0
  2 16  1  0  0  0  0
  2 17  1  0  0  0  0
  2 18  1  0  0  0  0
  3 19  1  0  0  0  0
  3 20  1  0  0  0  0
  4 21  1  0  0  0  0
  4 22  1  0  0  0  0
  5 23  1  0  0  0  0
  5 24  1  0  0  0  0
  6 25  1  0  0  0  0
  6 26  1  0  0  0  0
  7 27  1  0  0  0  0
  7 28  1  0  0  0  0
  9 29  1  0  0  0  0
  9 30  1  0  0  0  0
 10 31  1  0  0  0  0
M  END
> <FRED Chemgauss4 score>
-7.768265

$$$$
C42040894	P63623732
  -OEChem-05122015313D

 20 20  0     1  0  0  0  0  0999 V2000
  122.4407  105.4410  105.9815 C   0  0  0  0  0  0  0  0  0  0  0  0
  124.2842  106.3006  106.4502 C   0  0  0  0  0  0  0  0  0  0  0  0
  126.1319  106.3705  108.9276 C   0  0  0  0  0  0  0  0  0  0  0  0
  125.5008  107.2077  106.5736 C   0  0  2  0  0  0  0  0  0  0  0  0
  125.7858  107.5724  108.0511 C   0  0  2  0  0  0  0  0  0  0  0  0
  123.1988  106.5543  105.7567 N   0  0  0  0  0  0  0  0  0  0  0  0
  124.1672  105.0887  107.0564 N   0  0  0  0  0  0  0  0  0  0  0  0
  122.9888  104.5144  106.7705 N   0  0  0  0  0  0  0  0  0  0  0  0
  125.3308  108.4018  105.7384 N   0  0  0  0  0  0  0  0  0  0  0  0
  126.9005  108.4695  108.1038 O   0  0  0  0  0  0  0  0  0  0  0  0
  121.4572  105.3163  105.5480 H   0  0  0  0  0  0  0  0  0  0  0  0
  126.9788  105.8046  108.5293 H   0  0  0  0  0  0  0  0  0  0  0  0
  125.2732  105.6973  109.0264 H   0  0  0  0  0  0  0  0  0  0  0  0
  126.3897  106.7002  109.9404 H   0  0  0  0  0  0  0  0  0  0  0  0
  126.3717  106.6612  106.1876 H   0  0  0  0  0  0  0  0  0  0  0  0
  124.9342  108.0963  108.4999 H   0  0  0  0  0  0  0  0  0  0  0  0
  122.7134  103.6046  107.1300 H   0  0  0  0  0  0  0  0  0  0  0  0
  124.8379  108.3003  104.8815 H   0  0  0  0  0  0  0  0  0  0  0  0
  125.8798  109.2008  105.9572 H   0  0  0  0  0  0  0  0  0  0  0  0
  127.0051  108.7151  109.0341 H   0  0  0  0  0  0  0  0  0  0  0  0
  1  6  2  0  0  0  0
  1  8  1  0  0  0  0
  2  4  1  0  0  0  0
  2  6  1  0  0  0  0
  2  7  2  0  0  0  0
  3  5  1  0  0  0  0
  4  5  1  0  0  0  0
  4  9  1  0  0  0  0
  5 10  1  0  0  0  0
  7  8  1  0  0  0  0
  1 11  1  0  0  0  0
  3 12  1  0  0  0  0
  3 13  1  0  0  0  0
  3 14  1  0  0  0  0
  4 15  1  0  0  0  0
  5 16  1  0  0  0  0
  8 17  1  0  0  0  0
  9 18  1  0  0  0  0
  9 19  1  0  0  0  0
 10 20  1  0  0  0  0
M  END
> <FRED Chemgauss4 score>
-7.760225

$$$$
C85247868	P133396751
  -OEChem-05122015313D

 29 29  0     1  0  0  0  0  0999 V2000
  121.2894  105.8309  104.4060 C   0  0  0  0  0  0  0  0  0  0  0  0
  121.9166  104.9849  106.5461 C   0  0  0  0  0  0  0  0  0  0  0  0
  120.7218  104.2062  106.0295 C   0  0  0  0  0  0  0  0  0  0  0  0
  121.8773  106.2747  105.7322 C   0  0  1  0  0  0  0  0  0  0  0  0
  119.8199  103.9045  103.6916 C   0  0  0  0  0  0  0  0  0  0  0  0
  123.5511  107.6902  106.6672 C   0  0  0  0  0  0  0  0  0  0  0  0
  125.8494  106.7600  107.2702 C   0  0  0  0  0  0  0  0  0  0  0  0
  125.0604  107.9316  106.6938 C   0  0  1  0  0  0  0  0  0  0  0  0
  120.6250  104.6285  104.6511 N   0  0  0  0  0  0  0  0  0  0  0  0
  123.1675  106.8604  105.5311 N   0  0  0  0  0  0  0  0  0  0  0  0
  121.3562  106.4525  103.3559 O   0  0  0  0  0  0  0  0  0  0  0  0
  125.8050  106.8306  108.6922 O   0  0  0  0  0  0  0  0  0  0  0  0
  125.5311  108.1819  105.3689 O   0  0  0  0  0  0  0  0  0  0  0  0
  121.8760  105.1591  107.6256 H   0  0  0  0  0  0  0  0  0  0  0  0
  122.8338  104.4180  106.3371 H   0  0  0  0  0  0  0  0  0  0  0  0
  120.8755  103.1253  106.0926 H   0  0  0  0  0  0  0  0  0  0  0  0
  119.7961  104.4846  106.5430 H   0  0  0  0  0  0  0  0  0  0  0  0
  121.1806  106.9961  106.1830 H   0  0  0  0  0  0  0  0  0  0  0  0
  120.4414  103.1956  103.1385 H   0  0  0  0  0  0  0  0  0  0  0  0
  119.3617  104.5990  102.9821 H   0  0  0  0  0  0  0  0  0  0  0  0
  119.0269  103.3526  104.2035 H   0  0  0  0  0  0  0  0  0  0  0  0
  123.2377  107.1803  107.5844 H   0  0  0  0  0  0  0  0  0  0  0  0
  123.0154  108.6436  106.6133 H   0  0  0  0  0  0  0  0  0  0  0  0
  126.8984  106.8022  106.9613 H   0  0  0  0  0  0  0  0  0  0  0  0
  125.4165  105.7993  106.9737 H   0  0  0  0  0  0  0  0  0  0  0  0
  125.2724  108.8350  107.2779 H   0  0  0  0  0  0  0  0  0  0  0  0
  123.1517  107.4369  104.6884 H   0  0  0  0  0  0  0  0  0  0  0  0
  126.3143  106.0743  109.0231 H   0  0  0  0  0  0  0  0  0  0  0  0
  125.0608  108.9691  105.0559 H   0  0  0  0  0  0  0  0  0  0  0  0
  1  4  1  0  0  0  0
  1  9  1  0  0  0  0
  1 11  2  0  0  0  0
  2  3  1  0  0  0  0
  2  4  1  0  0  0  0
  3  9  1  0  0  0  0
  4 10  1  0  0  0  0
  5  9  1  0  0  0  0
  6  8  1  0  0  0  0
  6 10  1  0  0  0  0
  7  8  1  0  0  0  0
  7 12  1  0  0  0  0
  8 13  1  0  0  0  0
  2 14  1  0  0  0  0
  2 15  1  0  0  0  0
  3 16  1  0  0  0  0
  3 17  1  0  0  0  0
  4 18  1  0  0  0  0
  5 19  1  0  0  0  0
  5 20  1  0  0  0  0
  5 21  1  0  0  0  0
  6 22  1  0  0  0  0
  6 23  1  0  0  0  0
  7 24  1  0  0  0  0
  7 25  1  0  0  0  0
  8 26  1  0  0  0  0
 10 27  1  0  0  0  0
 12 28  1  0  0  0  0
 13 29  1  0  0  0  0
M  END
> <FRED Chemgauss4 score>
-7.758566

$$$$
L-Cysteine	P10000030
  -OEChem-05122015313D

 14 13  0     1  0  0  0  0  0999 V2000
  125.1101  107.8937  106.3831 C   0  0  0  0  0  0  0  0  0  0  0  0
  124.5853  108.8794  108.7396 C   0  0  0  0  0  0  0  0  0  0  0  0
  125.4710  107.9762  107.8773 C   0  0  2  0  0  0  0  0  0  0  0  0
  126.8924  108.3619  108.1533 N   0  3  0  0  0  0  0  0  0  0  0  0
  126.0866  107.7009  105.6037 O   0  5  0  0  0  0  0  0  0  0  0  0
  123.8886  108.0531  106.1035 O   0  0  0  0  0  0  0  0  0  0  0  0
  122.9991  108.1120  109.2068 S   0  0  0  0  0  0  0  0  0  0  0  0
  125.1081  109.1507  109.6635 H   0  0  0  0  0  0  0  0  0  0  0  0
  124.3609  109.8129  108.2131 H   0  0  0  0  0  0  0  0  0  0  0  0
  125.3817  106.9502  108.2564 H   0  0  0  0  0  0  0  0  0  0  0  0
  127.5275  107.7808  107.6056 H   0  0  0  0  0  0  0  0  0  0  0  0
  127.1046  108.2367  109.1436 H   0  0  0  0  0  0  0  0  0  0  0  0
  127.0461  109.3399  107.9057 H   0  0  0  0  0  0  0  0  0  0  0  0
  123.5388  107.0744  109.8590 H   0  0  0  0  0  0  0  0  0  0  0  0
  1  3  1  0  0  0  0
  1  5  1  0  0  0  0
  1  6  2  0  0  0  0
  2  3  1  0  0  0  0
  2  7  1  0  0  0  0
  3  4  1  0  0  0  0
  2  8  1  0  0  0  0
  2  9  1  0  0  0  0
  3 10  1  0  0  0  0
  4 11  1  0  0  0  0
  4 12  1  0  0  0  0
  4 13  1  0  0  0  0
  7 14  1  0  0  0  0
M  CHG  2   4   1   5  -1
M  END
> <FRED Chemgauss4 score>
-7.751987

$$$$
C04544517	P06219504
  -OEChem-05122015313D

 23 22  0     1  0  0  0  0  0999 V2000
  125.7265  108.7401  108.1570 C   0  0  0  0  0  0  0  0  0  0  0  0
  124.5215  104.6704  106.8984 C   0  0  0  0  0  0  0  0  0  0  0  0
  126.0994  107.7080  107.1101 C   0  0  2  0  0  0  0  0  0  0  0  0
  124.4004  105.3380  108.2630 C   0  0  1  0  0  0  0  0  0  0  0  0
  126.7020  106.4696  107.7821 C   0  0  2  0  0  0  0  0  0  0  0  0
  125.7663  105.7920  108.8075 C   0  0  1  0  0  0  0  0  0  0  0  0
  124.5935  109.1826  108.3190 O   0  0  0  0  0  0  0  0  0  0  0  0
  127.0377  108.2941  106.2264 O   0  0  0  0  0  0  0  0  0  0  0  0
  123.5313  106.4606  108.1270 O   0  0  0  0  0  0  0  0  0  0  0  0
  127.9245  106.8529  108.4142 O   0  0  0  0  0  0  0  0  0  0  0  0
  125.5519  106.7081  109.8859 O   0  0  0  0  0  0  0  0  0  0  0  0
  123.3850  103.9542  106.6692 F   0  0  0  0  0  0  0  0  0  0  0  0
  126.5629  109.1153  108.7717 H   0  0  0  0  0  0  0  0  0  0  0  0
  124.6109  105.3997  106.0879 H   0  0  0  0  0  0  0  0  0  0  0  0
  125.3626  103.9727  106.8609 H   0  0  0  0  0  0  0  0  0  0  0  0
  125.1867  107.4563  106.5588 H   0  0  0  0  0  0  0  0  0  0  0  0
  123.9260  104.6421  108.9629 H   0  0  0  0  0  0  0  0  0  0  0  0
  126.9684  105.7293  107.0165 H   0  0  0  0  0  0  0  0  0  0  0  0
  126.2745  104.9202  109.2371 H   0  0  0  0  0  0  0  0  0  0  0  0
  126.6058  109.0660  105.8223 H   0  0  0  0  0  0  0  0  0  0  0  0
  123.4692  106.8685  109.0043 H   0  0  0  0  0  0  0  0  0  0  0  0
  128.2801  106.0525  108.8284 H   0  0  0  0  0  0  0  0  0  0  0  0
  125.0483  106.2238  110.5560 H   0  0  0  0  0  0  0  0  0  0  0  0
  1  3  1  0  0  0  0
  1  7  2  0  0  0  0
  2  4  1  0  0  0  0
  2 12  1  0  0  0  0
  3  5  1  0  0  0  0
  3  8  1  0  0  0  0
  4  6  1  0  0  0  0
  4  9  1  0  0  0  0
  5  6  1  0  0  0  0
  5 10  1  0  0  0  0
  6 11  1  0  0  0  0
  1 13  1  0  0  0  0
  2 14  1  0  0  0  0
  2 15  1  0  0  0  0
  3 16  1  0  0  0  0
  4 17  1  0  0  0  0
  5 18  1  0  0  0  0
  6 19  1  0  0  0  0
  8 20  1  0  0  0  0
  9 21  1  0  0  0  0
 10 22  1  0  0  0  0
 11 23  1  0  0  0  0
M  END
> <FRED Chemgauss4 score>
-7.750793

$$$$
C69638109	P107234400
  -OEChem-05122015313D

 22 22  0     1  0  0  0  0  0999 V2000
  123.5421  105.9476  107.2711 C   0  0  0  0  0  0  0  0  0  0  0  0
  122.3675  105.2272  107.3461 C   0  0  0  0  0  0  0  0  0  0  0  0
  121.6079  106.1694  105.4220 C   0  0  0  0  0  0  0  0  0  0  0  0
  123.6579  106.7892  106.1837 C   0  0  0  0  0  0  0  0  0  0  0  0
  124.6601  108.8754  108.2526 C   0  0  0  0  0  0  0  0  0  0  0  0
  124.9128  107.6220  106.0149 C   0  0  2  0  0  0  0  0  0  0  0  0
  125.5539  108.0125  107.3629 C   0  0  1  0  0  0  0  0  0  0  0  0
  121.3755  105.3140  106.4357 N   0  0  0  0  0  0  0  0  0  0  0  0
  122.7069  106.9253  105.2364 N   0  0  0  0  0  0  0  0  0  0  0  0
  126.8032  108.7034  107.1191 N   0  0  0  0  0  0  0  0  0  0  0  0
  124.6397  108.7869  105.2363 O   0  0  0  0  0  0  0  0  0  0  0  0
  124.3165  105.8514  108.0213 H   0  0  0  0  0  0  0  0  0  0  0  0
  122.1855  104.5396  108.1652 H   0  0  0  0  0  0  0  0  0  0  0  0
  120.8274  106.2585  104.6763 H   0  0  0  0  0  0  0  0  0  0  0  0
  124.3575  109.7957  107.7449 H   0  0  0  0  0  0  0  0  0  0  0  0
  125.1930  109.1625  109.1664 H   0  0  0  0  0  0  0  0  0  0  0  0
  123.7573  108.3381  108.5621 H   0  0  0  0  0  0  0  0  0  0  0  0
  125.6255  107.0294  105.4258 H   0  0  0  0  0  0  0  0  0  0  0  0
  125.8266  107.1071  107.9186 H   0  0  0  0  0  0  0  0  0  0  0  0
  127.3621  108.4245  106.3348 H   0  0  0  0  0  0  0  0  0  0  0  0
  127.1757  109.2924  107.8400 H   0  0  0  0  0  0  0  0  0  0  0  0
  125.4759  109.2718  105.1662 H   0  0  0  0  0  0  0  0  0  0  0  0
  1  2  2  0  0  0  0
  1  4  1  0  0  0  0
  2  8  1  0  0  0  0
  3  8  2  0  0  0  0
  3  9  1  0  0  0  0
  4  6  1  0  0  0  0
  4  9  2  0  0  0  0
  5  7  1  0  0  0  0
  6  7  1  0  0  0  0
  6 11  1  0  0  0  0
  7 10  1  0  0  0  0
  1 12  1  0  0  0  0
  2 13  1  0  0  0  0
  3 14  1  0  0  0  0
  5 15  1  0  0  0  0
  5 16  1  0  0  0  0
  5 17  1  0  0  0  0
  6 18  1  0  0  0  0
  7 19  1  0  0  0  0
 10 20  1  0  0  0  0
 10 21  1  0  0  0  0
 11 22  1  0  0  0  0
M  END
> <FRED Chemgauss4 score>
-7.745100

$$$$
C97621240	P154764801
  -OEChem-05122015313D

 46 47  0     1  0  0  0  0  0999 V2000
  124.7976  109.6310  108.0979 C   0  0  0  0  0  0  0  0  0  0  0  0
  124.4675  108.5703  108.9627 C   0  0  0  0  0  0  0  0  0  0  0  0
  124.8548  107.4408  108.2840 C   0  0  0  0  0  0  0  0  0  0  0  0
  121.2337  106.6864  105.6234 C   0  0  0  0  0  0  0  0  0  0  0  0
  122.0692  107.4473  106.6592 C   0  0  0  0  0  0  0  0  0  0  0  0
  121.5811  104.6355  106.8409 C   0  0  0  0  0  0  0  0  0  0  0  0
  122.4208  105.3750  107.9029 C   0  0  1  0  0  0  0  0  0  0  0  0
  125.9122  107.0624  106.0354 C   0  0  0  0  0  0  0  0  0  0  0  0
  120.8701  104.5653  104.5371 C   0  0  0  0  0  0  0  0  0  0  0  0
  120.8643  107.0548  108.7252 C   0  0  0  0  0  0  0  0  0  0  0  0
  123.5697  109.9003  110.7179 C   0  0  0  0  0  0  0  0  0  0  0  0
  123.9256  105.1869  107.6562 C   0  0  0  0  0  0  0  0  0  0  0  0
  124.7793  105.9744  108.6584 C   0  0  1  0  0  0  0  0  0  0  0  0
  125.3520  109.2126  106.9570 N   0  0  0  0  0  0  0  0  0  0  0  0
  125.3734  107.8765  107.1003 N   0  0  0  0  0  0  0  0  0  0  0  0
  121.6651  105.2875  105.5283 N   0  0  1  0  0  0  0  0  0  0  0  0
  122.1045  106.8147  107.9860 N   0  0  2  0  0  0  0  0  0  0  0  0
  126.6224  105.7556  110.0800 N   0  0  0  0  0  0  0  0  0  0  0  0
  126.1061  105.4149  108.7896 N   0  0  0  0  0  0  0  0  0  0  0  0
  123.9042  108.6118  110.1758 O   0  0  0  0  0  0  0  0  0  0  0  0
  124.6594  110.6919  108.2510 H   0  0  0  0  0  0  0  0  0  0  0  0
  120.1806  106.7304  105.9321 H   0  0  0  0  0  0  0  0  0  0  0  0
  121.3056  107.1892  104.6475 H   0  0  0  0  0  0  0  0  0  0  0  0
  123.1004  107.5297  106.2622 H   0  0  0  0  0  0  0  0  0  0  0  0
  121.6944  108.4895  106.7370 H   0  0  0  0  0  0  0  0  0  0  0  0
  121.9034  103.5851  106.7710 H   0  0  0  0  0  0  0  0  0  0  0  0
  120.5317  104.6263  107.1681 H   0  0  0  0  0  0  0  0  0  0  0  0
  122.2050  104.9167  108.9028 H   0  0  0  0  0  0  0  0  0  0  0  0
  125.0947  106.8158  105.3528 H   0  0  0  0  0  0  0  0  0  0  0  0
  126.6935  107.6195  105.5108 H   0  0  0  0  0  0  0  0  0  0  0  0
  126.3450  106.1523  106.4600 H   0  0  0  0  0  0  0  0  0  0  0  0
  121.2009  103.5253  104.4757 H   0  0  0  0  0  0  0  0  0  0  0  0
  120.9813  105.0287  103.5530 H   0  0  0  0  0  0  0  0  0  0  0  0
  119.8129  104.5826  104.8152 H   0  0  0  0  0  0  0  0  0  0  0  0
  120.9133  106.5761  109.7067 H   0  0  0  0  0  0  0  0  0  0  0  0
  120.0118  106.6458  108.1763 H   0  0  0  0  0  0  0  0  0  0  0  0
  120.7091  108.1281  108.8645 H   0  0  0  0  0  0  0  0  0  0  0  0
  123.1210  109.7752  111.7065 H   0  0  0  0  0  0  0  0  0  0  0  0
  122.8690  110.4070  110.0495 H   0  0  0  0  0  0  0  0  0  0  0  0
  124.4811  110.4961  110.8068 H   0  0  0  0  0  0  0  0  0  0  0  0
  124.1456  104.1165  107.7034 H   0  0  0  0  0  0  0  0  0  0  0  0
  124.1404  105.5181  106.6359 H   0  0  0  0  0  0  0  0  0  0  0  0
  124.3268  105.8827  109.6537 H   0  0  0  0  0  0  0  0  0  0  0  0
  127.4562  106.3318  109.9685 H   0  0  0  0  0  0  0  0  0  0  0  0
  125.9444  106.3388  110.5687 H   0  0  0  0  0  0  0  0  0  0  0  0
  126.0669  104.3958  108.7106 H   0  0  0  0  0  0  0  0  0  0  0  0
  1  2  1  0  0  0  0
  1 14  2  0  0  0  0
  2  3  2  0  0  0  0
  2 20  1  0  0  0  0
  3 13  1  0  0  0  0
  3 15  1  0  0  0  0
  4  5  1  0  0  0  0
  4 16  1  0  0  0  0
  5 17  1  0  0  0  0
  6  7  1  0  0  0  0
  6 16  1  0  0  0  0
  7 12  1  0  0  0  0
  7 17  1  0  0  0  0
  8 15  1  0  0  0  0
  9 16  1  0  0  0  0
 10 17  1  0  0  0  0
 11 20  1  0  0  0  0
 12 13  1  0  0  0  0
 13 19  1  0  0  0  0
 14 15  1  0  0  0  0
 18 19  1  0  0  0  0
  1 21  1  0  0  0  0
  4 22  1  0  0  0  0
  4 23  1  0  0  0  0
  5 24  1  0  0  0  0
  5 25  1  0  0  0  0
  6 26  1  0  0  0  0
  6 27  1  0  0  0  0
  7 28  1  0  0  0  0
  8 29  1  0  0  0  0
  8 30  1  0  0  0  0
  8 31  1  0  0  0  0
  9 32  1  0  0  0  0
  9 33  1  0  0  0  0
  9 34  1  0  0  0  0
 10 35  1  0  0  0  0
 10 36  1  0  0  0  0
 10 37  1  0  0  0  0
 11 38  1  0  0  0  0
 11 39  1  0  0  0  0
 11 40  1  0  0  0  0
 12 41  1  0  0  0  0
 12 42  1  0  0  0  0
 13 43  1  0  0  0  0
 18 44  1  0  0  0  0
 18 45  1  0  0  0  0
 19 46  1  0  0  0  0
M  END
> <FRED Chemgauss4 score>
-7.741728

$$$$
C44197910	P66763191
  -OEChem-05122015313D

 21 21  0     1  0  0  0  0  0999 V2000
  124.2498  106.6090  106.8015 C   0  0  0  0  0  0  0  0  0  0  0  0
  124.4099  104.5872  107.9367 C   0  0  0  0  0  0  0  0  0  0  0  0
  123.7558  105.2800  106.9418 C   0  0  0  0  0  0  0  0  0  0  0  0
  125.2626  106.8815  107.6947 C   0  0  0  0  0  0  0  0  0  0  0  0
  125.1683  109.3797  108.2148 C   0  0  0  0  0  0  0  0  0  0  0  0
  124.3664  109.1965  109.4992 C   0  0  0  0  0  0  0  0  0  0  0  0
  126.0457  108.1659  107.8689 C   0  0  2  0  0  0  0  0  0  0  0  0
  126.8341  108.4373  106.6860 N   0  0  0  0  0  0  0  0  0  0  0  0
  123.5786  110.3603  109.7152 O   0  0  0  0  0  0  0  0  0  0  0  0
  125.6142  105.5382  108.6968 S   0  0  0  0  0  0  0  0  0  0  0  0
  122.3698  104.5956  105.8679 Br  0  0  0  0  0  0  0  0  0  0  0  0
  123.8845  107.3330  106.0832 H   0  0  0  0  0  0  0  0  0  0  0  0
  124.2435  103.5684  108.2586 H   0  0  0  0  0  0  0  0  0  0  0  0
  125.8037  110.2694  108.3251 H   0  0  0  0  0  0  0  0  0  0  0  0
  124.4856  109.6258  107.3908 H   0  0  0  0  0  0  0  0  0  0  0  0
  123.6932  108.3368  109.4313 H   0  0  0  0  0  0  0  0  0  0  0  0
  125.0315  109.0636  110.3583 H   0  0  0  0  0  0  0  0  0  0  0  0
  126.7806  108.0381  108.6737 H   0  0  0  0  0  0  0  0  0  0  0  0
  127.2211  107.6645  106.1767 H   0  0  0  0  0  0  0  0  0  0  0  0
  127.1444  109.3765  106.5186 H   0  0  0  0  0  0  0  0  0  0  0  0
  123.0822  110.2134  110.5363 H   0  0  0  0  0  0  0  0  0  0  0  0
  1  3  1  0  0  0  0
  1  4  2  0  0  0  0
  2  3  2  0  0  0  0
  2 10  1  0  0  0  0
  3 11  1  0  0  0  0
  4  7  1  0  0  0  0
  4 10  1  0  0  0  0
  5  6  1  0  0  0  0
  5  7  1  0  0  0  0
  6  9  1  0  0  0  0
  7  8  1  0  0  0  0
  1 12  1  0  0  0  0
  2 13  1  0  0  0  0
  5 14  1  0  0  0  0
  5 15  1  0  0  0  0
  6 16  1  0  0  0  0
  6 17  1  0  0  0  0
  7 18  1  0  0  0  0
  8 19  1  0  0  0  0
  8 20  1  0  0  0  0
  9 21  1  0  0  0  0
M  END
> <FRED Chemgauss4 score>
-7.740320

$$$$
C88001018	P137647184
  -OEChem-05122015313D

 25 26  0     1  0  0  0  0  0999 V2000
  125.1891  107.3169  106.7023 C   0  0  0  0  0  0  0  0  0  0  0  0
  123.2287  106.8450  105.9031 C   0  0  0  0  0  0  0  0  0  0  0  0
  126.3212  107.1860  107.5704 C   0  0  0  0  0  0  0  0  0  0  0  0
  125.2441  105.4451  108.6268 C   0  0  0  0  0  0  0  0  0  0  0  0
  124.1470  105.5123  107.8460 C   0  0  0  0  0  0  0  0  0  0  0  0
  120.0848  103.8458  106.4061 C   0  0  0  0  0  0  0  0  0  0  0  0
  122.0159  104.6869  105.3640 C   0  0  0  0  0  0  0  0  0  0  0  0
  121.9216  106.1903  105.7140 C   0  0  2  0  0  0  0  0  0  0  0  0
  124.9762  108.1542  105.7190 N   0  0  0  0  0  0  0  0  0  0  0  0
  123.7212  107.8520  105.2082 N   0  0  0  0  0  0  0  0  0  0  0  0
  126.3541  106.2772  108.5087 N   0  0  0  0  0  0  0  0  0  0  0  0
  124.1239  106.4755  106.8586 N   0  0  0  0  0  0  0  0  0  0  0  0
  121.1107  106.8416  104.6868 N   0  0  0  0  0  0  0  0  0  0  0  0
  120.7171  104.1370  105.1682 O   0  0  0  0  0  0  0  0  0  0  0  0
  127.1794  107.8643  107.4425 H   0  0  0  0  0  0  0  0  0  0  0  0
  125.3031  104.7013  109.4145 H   0  0  0  0  0  0  0  0  0  0  0  0
  123.2951  104.8539  107.9552 H   0  0  0  0  0  0  0  0  0  0  0  0
  119.0930  103.4266  106.2197 H   0  0  0  0  0  0  0  0  0  0  0  0
  119.9999  104.7612  106.9972 H   0  0  0  0  0  0  0  0  0  0  0  0
  120.6893  103.1171  106.9513 H   0  0  0  0  0  0  0  0  0  0  0  0
  122.5760  104.5537  104.4319 H   0  0  0  0  0  0  0  0  0  0  0  0
  122.5139  104.1185  106.1571 H   0  0  0  0  0  0  0  0  0  0  0  0
  121.2945  106.2677  106.6280 H   0  0  0  0  0  0  0  0  0  0  0  0
  121.1512  107.8347  104.6191 H   0  0  0  0  0  0  0  0  0  0  0  0
  120.4046  106.3017  104.2366 H   0  0  0  0  0  0  0  0  0  0  0  0
  1  3  1  0  0  0  0
  1  9  2  0  0  0  0
  1 12  1  0  0  0  0
  2  8  1  0  0  0  0
  2 10  2  0  0  0  0
  2 12  1  0  0  0  0
  3 11  2  0  0  0  0
  4  5  2  0  0  0  0
  4 11  1  0  0  0  0
  5 12  1  0  0  0  0
  6 14  1  0  0  0  0
  7  8  1  0  0  0  0
  7 14  1  0  0  0  0
  8 13  1  0  0  0  0
  9 10  1  0  0  0  0
  3 15  1  0  0  0  0
  4 16  1  0  0  0  0
  5 17  1  0  0  0  0
  6 18  1  0  0  0  0
  6 19  1  0  0  0  0
  6 20  1  0  0  0  0
  7 21  1  0  0  0  0
  7 22  1  0  0  0  0
  8 23  1  0  0  0  0
 13 24  1  0  0  0  0
 13 25  1  0  0  0  0
M  END
> <FRED Chemgauss4 score>
-7.737128

$$$$
C86591349	P135571780
  -OEChem-05122015313D

 26 26  0     1  0  0  0  0  0999 V2000
  124.3581  109.2206  109.1106 C   0  0  0  0  0  0  0  0  0  0  0  0
  124.5740  108.3540  107.2238 C   0  0  0  0  0  0  0  0  0  0  0  0
  122.8771  108.4739  111.0073 C   0  0  0  0  0  0  0  0  0  0  0  0
  124.8494  105.9926  106.3636 C   0  0  0  0  0  0  0  0  0  0  0  0
  123.8366  110.9883  112.2177 C   0  0  0  0  0  0  0  0  0  0  0  0
  124.0461  109.3580  110.5380 C   0  0  2  0  0  0  0  0  0  0  0  0
  124.6172  107.4588  106.0043 C   0  0  2  0  0  0  0  0  0  0  0  0
  124.1858  108.0441  108.4391 N   0  0  0  0  0  0  0  0  0  0  0  0
  124.8284  110.2390  108.3872 N   0  0  0  0  0  0  0  0  0  0  0  0
  124.9578  109.6582  107.1846 N   0  0  0  0  0  0  0  0  0  0  0  0
  125.6078  107.9128  105.0553 N   0  0  0  0  0  0  0  0  0  0  0  0
  123.6960  110.7230  110.8355 O   0  0  0  0  0  0  0  0  0  0  0  0
  121.9866  108.6538  110.3966 H   0  0  0  0  0  0  0  0  0  0  0  0
  122.6258  108.6794  112.0540 H   0  0  0  0  0  0  0  0  0  0  0  0
  123.1281  107.4089  110.9530 H   0  0  0  0  0  0  0  0  0  0  0  0
  125.7977  105.8624  106.8964 H   0  0  0  0  0  0  0  0  0  0  0  0
  124.0442  105.6232  107.0087 H   0  0  0  0  0  0  0  0  0  0  0  0
  124.8699  105.3511  105.4754 H   0  0  0  0  0  0  0  0  0  0  0  0
  123.5661  112.0276  112.4193 H   0  0  0  0  0  0  0  0  0  0  0  0
  124.8700  110.8040  112.5217 H   0  0  0  0  0  0  0  0  0  0  0  0
  123.1709  110.3260  112.7762 H   0  0  0  0  0  0  0  0  0  0  0  0
  124.9105  109.1242  111.1980 H   0  0  0  0  0  0  0  0  0  0  0  0
  123.6581  107.5244  105.4760 H   0  0  0  0  0  0  0  0  0  0  0  0
  125.3064  110.2048  106.4059 H   0  0  0  0  0  0  0  0  0  0  0  0
  125.7645  108.8995  104.9534 H   0  0  0  0  0  0  0  0  0  0  0  0
  125.9675  107.2608  104.3814 H   0  0  0  0  0  0  0  0  0  0  0  0
  1  6  1  0  0  0  0
  1  8  1  0  0  0  0
  1  9  2  0  0  0  0
  2  7  1  0  0  0  0
  2  8  2  0  0  0  0
  2 10  1  0  0  0  0
  3  6  1  0  0  0  0
  4  7  1  0  0  0  0
  5 12  1  0  0  0  0
  6 12  1  0  0  0  0
  7 11  1  0  0  0  0
  9 10  1  0  0  0  0
  3 13  1  0  0  0  0
  3 14  1  0  0  0  0
  3 15  1  0  0  0  0
  4 16  1  0  0  0  0
  4 17  1  0  0  0  0
  4 18  1  0  0  0  0
  5 19  1  0  0  0  0
  5 20  1  0  0  0  0
  5 21  1  0  0  0  0
  6 22  1  0  0  0  0
  7 23  1  0  0  0  0
 10 24  1  0  0  0  0
 11 25  1  0  0  0  0
 11 26  1  0  0  0  0
M  END
> <FRED Chemgauss4 score>
-7.735834

$$$$
C87968283	P137586203
  -OEChem-05122015313D

 20 21  0     0  0  0  0  0  0999 V2000
  120.4458  105.3276  107.9067 C   0  0  0  0  0  0  0  0  0  0  0  0
  120.0619  104.8151  106.6675 C   0  0  0  0  0  0  0  0  0  0  0  0
  121.7975  105.3990  108.2434 C   0  0  0  0  0  0  0  0  0  0  0  0
  121.0297  104.3740  105.7651 C   0  0  0  0  0  0  0  0  0  0  0  0
  122.7653  104.9578  107.3410 C   0  0  0  0  0  0  0  0  0  0  0  0
  122.3815  104.4453  106.1018 C   0  0  0  0  0  0  0  0  0  0  0  0
  124.6160  106.8485  108.1246 C   0  0  0  0  0  0  0  0  0  0  0  0
  124.9981  107.7201  107.1373 C   0  0  0  0  0  0  0  0  0  0  0  0
  124.4270  108.5925  109.5468 C   0  0  0  0  0  0  0  0  0  0  0  0
  124.3187  107.2681  109.3638 N   0  0  0  0  0  0  0  0  0  0  0  0
  125.0892  109.0401  107.3803 N   0  0  0  0  0  0  0  0  0  0  0  0
  124.7971  109.4946  108.6167 N   0  0  0  0  0  0  0  0  0  0  0  0
  124.4752  105.0887  107.8616 S   0  0  0  0  0  0  0  0  0  0  0  0
  125.3942  107.2824  105.5272 Cl  0  0  0  0  0  0  0  0  0  0  0  0
  124.0635  109.1920  111.1020 Cl  0  0  0  0  0  0  0  0  0  0  0  0
  123.6271  103.8204  104.8073 Br  0  0  0  0  0  0  0  0  0  0  0  0
  119.6920  105.6710  108.6091 H   0  0  0  0  0  0  0  0  0  0  0  0
  119.0094  104.7597  106.4055 H   0  0  0  0  0  0  0  0  0  0  0  0
  122.0714  105.8025  109.2155 H   0  0  0  0  0  0  0  0  0  0  0  0
  120.7084  103.9782  104.8048 H   0  0  0  0  0  0  0  0  0  0  0  0
  1  2  1  0  0  0  0
  1  3  2  0  0  0  0
  2  4  2  0  0  0  0
  3  5  1  0  0  0  0
  4  6  1  0  0  0  0
  5  6  2  0  0  0  0
  5 13  1  0  0  0  0
  6 16  1  0  0  0  0
  7  8  1  0  0  0  0
  7 10  2  0  0  0  0
  7 13  1  0  0  0  0
  8 11  2  0  0  0  0
  8 14  1  0  0  0  0
  9 10  1  0  0  0  0
  9 12  2  0  0  0  0
  9 15  1  0  0  0  0
 11 12  1  0  0  0  0
  1 17  1  0  0  0  0
  2 18  1  0  0  0  0
  3 19  1  0  0  0  0
  4 20  1  0  0  0  0
M  END
> <FRED Chemgauss4 score>
-7.733126

$$$$
C82987567	P129755007
  -OEChem-05122015313D

 33 33  0     1  0  0  0  0  0999 V2000
  126.4819  109.1536  107.1540 C   0  0  0  0  0  0  0  0  0  0  0  0
  126.4160  107.7847  107.2654 C   0  0  0  0  0  0  0  0  0  0  0  0
  124.9134  108.7705  108.5409 C   0  0  0  0  0  0  0  0  0  0  0  0
  122.4114  108.8544  108.8353 C   0  0  0  0  0  0  0  0  0  0  0  0
  123.9070  110.1732  110.3777 C   0  0  0  0  0  0  0  0  0  0  0  0
  123.9776  105.8627  106.2699 C   0  0  0  0  0  0  0  0  0  0  0  0
  126.1421  105.2301  108.7337 C   0  0  0  0  0  0  0  0  0  0  0  0
  123.8032  108.9002  109.5067 C   0  0  0  0  0  0  0  0  0  0  0  0
  124.9311  106.1817  108.6274 C   0  0  2  0  0  0  0  0  0  0  0  0
  123.7578  105.6242  107.7685 C   0  0  2  0  0  0  0  0  0  0  0  0
  125.5442  109.7614  107.9508 N   0  0  0  0  0  0  0  0  0  0  0  0
  125.4069  107.5545  108.1576 N   0  0  0  0  0  0  0  0  0  0  0  0
  123.6098  104.1776  107.9665 N   0  0  0  0  0  0  0  0  0  0  0  0
  127.1807  105.7984  109.5195 O   0  0  0  0  0  0  0  0  0  0  0  0
  127.1570  109.7324  106.5407 H   0  0  0  0  0  0  0  0  0  0  0  0
  126.9792  106.9856  106.8040 H   0  0  0  0  0  0  0  0  0  0  0  0
  122.2962  109.6580  108.0997 H   0  0  0  0  0  0  0  0  0  0  0  0
  121.6011  108.9540  109.5657 H   0  0  0  0  0  0  0  0  0  0  0  0
  122.2760  107.9012  108.3121 H   0  0  0  0  0  0  0  0  0  0  0  0
  123.9062  111.0662  109.7426 H   0  0  0  0  0  0  0  0  0  0  0  0
  124.8256  110.1871  110.9742 H   0  0  0  0  0  0  0  0  0  0  0  0
  123.0610  110.2543  111.0689 H   0  0  0  0  0  0  0  0  0  0  0  0
  124.9126  105.4073  105.9246 H   0  0  0  0  0  0  0  0  0  0  0  0
  123.1587  105.4476  105.6742 H   0  0  0  0  0  0  0  0  0  0  0  0
  124.0226  106.9347  106.0449 H   0  0  0  0  0  0  0  0  0  0  0  0
  126.5509  105.0247  107.7384 H   0  0  0  0  0  0  0  0  0  0  0  0
  125.8552  104.2699  109.1776 H   0  0  0  0  0  0  0  0  0  0  0  0
  123.8107  108.0519  110.2250 H   0  0  0  0  0  0  0  0  0  0  0  0
  124.5527  106.3053  109.6531 H   0  0  0  0  0  0  0  0  0  0  0  0
  122.8126  106.1001  108.0545 H   0  0  0  0  0  0  0  0  0  0  0  0
  123.1772  103.6541  107.2412 H   0  0  0  0  0  0  0  0  0  0  0  0
  123.7566  103.8194  108.8816 H   0  0  0  0  0  0  0  0  0  0  0  0
  127.9025  105.1494  109.5419 H   0  0  0  0  0  0  0  0  0  0  0  0
  1  2  2  0  0  0  0
  1 11  1  0  0  0  0
  2 12  1  0  0  0  0
  3  8  1  0  0  0  0
  3 11  2  0  0  0  0
  3 12  1  0  0  0  0
  4  8  1  0  0  0  0
  5  8  1  0  0  0  0
  6 10  1  0  0  0  0
  7  9  1  0  0  0  0
  7 14  1  0  0  0  0
  9 10  1  0  0  0  0
  9 12  1  0  0  0  0
 10 13  1  0  0  0  0
  1 15  1  0  0  0  0
  2 16  1  0  0  0  0
  4 17  1  0  0  0  0
  4 18  1  0  0  0  0
  4 19  1  0  0  0  0
  5 20  1  0  0  0  0
  5 21  1  0  0  0  0
  5 22  1  0  0  0  0
  6 23  1  0  0  0  0
  6 24  1  0  0  0  0
  6 25  1  0  0  0  0
  7 26  1  0  0  0  0
  7 27  1  0  0  0  0
  8 28  1  0  0  0  0
  9 29  1  0  0  0  0
 10 30  1  0  0  0  0
 13 31  1  0  0  0  0
 13 32  1  0  0  0  0
 14 33  1  0  0  0  0
M  END
> <FRED Chemgauss4 score>
-7.732163

$$$$
C87440497	P136787961
  -OEChem-05122015313D

 19 19  0     0  0  0  0  0  0999 V2000
  125.1805  108.6834  107.6755 C   0  0  0  0  0  0  0  0  0  0  0  0
  124.1095  108.7191  108.7045 C   0  0  0  0  0  0  0  0  0  0  0  0
  123.6053  109.0303  111.1138 C   0  0  0  0  0  0  0  0  0  0  0  0
  123.6343  110.3999  111.7656 C   0  0  0  0  0  0  0  0  0  0  0  0
  125.9742  109.7365  107.4030 N   0  5  0  0  0  0  0  0  0  0  0  0
  125.4487  107.5952  106.9290 N   0  0  0  0  0  0  0  0  0  0  0  0
  126.7924  109.2787  106.4224 N   0  0  0  0  0  0  0  0  0  0  0  0
  126.4767  107.9923  106.1376 N   0  0  0  0  0  0  0  0  0  0  0  0
  124.5465  108.9858  109.9725 N   0  0  0  0  0  0  0  0  0  0  0  0
  123.2929  111.4392  110.7632 N   0  3  0  0  0  0  0  0  0  0  0  0
  122.9489  108.4957  108.3704 O   0  0  0  0  0  0  0  0  0  0  0  0
  123.8762  108.2443  111.8265 H   0  0  0  0  0  0  0  0  0  0  0  0
  122.6004  108.8159  110.7362 H   0  0  0  0  0  0  0  0  0  0  0  0
  124.6333  110.6417  112.1392 H   0  0  0  0  0  0  0  0  0  0  0  0
  122.9059  110.4911  112.5770 H   0  0  0  0  0  0  0  0  0  0  0  0
  125.5107  109.0994  110.2098 H   0  0  0  0  0  0  0  0  0  0  0  0
  123.6770  112.3505  111.0344 H   0  0  0  0  0  0  0  0  0  0  0  0
  122.2763  111.5392  110.6711 H   0  0  0  0  0  0  0  0  0  0  0  0
  123.6719  111.1979  109.8412 H   0  0  0  0  0  0  0  0  0  0  0  0
  1  2  1  0  0  0  0
  1  5  1  0  0  0  0
  1  6  2  0  0  0  0
  2  9  1  0  0  0  0
  2 11  2  0  0  0  0
  3  4  1  0  0  0  0
  3  9  1  0  0  0  0
  4 10  1  0  0  0  0
  5  7  1  0  0  0  0
  6  8  1  0  0  0  0
  7  8  2  0  0  0  0
  3 12  1  0  0  0  0
  3 13  1  0  0  0  0
  4 14  1  0  0  0  0
  4 15  1  0  0  0  0
  9 16  1  0  0  0  0
 10 17  1  0  0  0  0
 10 18  1  0  0  0  0
 10 19  1  0  0  0  0
M  CHG  2   5  -1  10   1
M  END
> <FRED Chemgauss4 score>
-7.729824

$$$$
C01081240	P08266848
  -OEChem-05122015313D

 27 27  0     1  0  0  0  0  0999 V2000
  123.4085  105.3909  106.9494 C   0  0  2  0  0  0  0  0  0  0  0  0
  124.6621  104.5678  107.2447 C   0  0  1  0  0  0  0  0  0  0  0  0
  123.7260  106.4228  105.8674 C   0  0  2  0  0  0  0  0  0  0  0  0
  125.8964  105.4399  107.5262 C   0  0  2  0  0  0  0  0  0  0  0  0
  124.9584  107.2534  106.2357 C   0  0  1  0  0  0  0  0  0  0  0  0
  122.2356  105.1972  108.9810 C   0  0  0  0  0  0  0  0  0  0  0  0
  125.9515  106.0958  108.9055 C   0  0  0  0  0  0  0  0  0  0  0  0
  126.0812  106.4075  106.4879 O   0  0  0  0  0  0  0  0  0  0  0  0
  124.4058  103.6641  108.3106 O   0  0  0  0  0  0  0  0  0  0  0  0
  122.6110  107.2879  105.6751 O   0  0  0  0  0  0  0  0  0  0  0  0
  125.2501  108.1091  105.1292 O   0  0  0  0  0  0  0  0  0  0  0  0
  127.1480  106.8474  109.0010 O   0  0  0  0  0  0  0  0  0  0  0  0
  122.9665  106.0658  108.1268 O   0  0  0  0  0  0  0  0  0  0  0  0
  122.6224  104.7430  106.6123 H   0  0  0  0  0  0  0  0  0  0  0  0
  124.8640  103.9072  106.3503 H   0  0  0  0  0  0  0  0  0  0  0  0
  123.8867  105.8955  104.9091 H   0  0  0  0  0  0  0  0  0  0  0  0
  126.8056  104.7466  107.4700 H   0  0  0  0  0  0  0  0  0  0  0  0
  124.7801  107.8474  107.0998 H   0  0  0  0  0  0  0  0  0  0  0  0
  121.9135  105.7452  109.8698 H   0  0  0  0  0  0  0  0  0  0  0  0
  122.8665  104.3526  109.2693 H   0  0  0  0  0  0  0  0  0  0  0  0
  121.3579  104.8277  108.4455 H   0  0  0  0  0  0  0  0  0  0  0  0
  125.9442  105.3311  109.6828 H   0  0  0  0  0  0  0  0  0  0  0  0
  125.0975  106.7609  109.0371 H   0  0  0  0  0  0  0  0  0  0  0  0
  125.2274  103.1707  108.4558 H   0  0  0  0  0  0  0  0  0  0  0  0
  121.8699  106.7248  105.4043 H   0  0  0  0  0  0  0  0  0  0  0  0
  126.0314  108.6272  105.3781 H   0  0  0  0  0  0  0  0  0  0  0  0
  127.1599  107.2536  109.8843 H   0  0  0  0  0  0  0  0  0  0  0  0
  1  2  1  0  0  0  0
  1  3  1  0  0  0  0
  1 13  1  0  0  0  0
  2  4  1  0  0  0  0
  2  9  1  0  0  0  0
  3  5  1  0  0  0  0
  3 10  1  0  0  0  0
  4  7  1  0  0  0  0
  4  8  1  0  0  0  0
  5  8  1  0  0  0  0
  5 11  1  0  0  0  0
  6 13  1  0  0  0  0
  7 12  1  0  0  0  0
  1 14  1  0  0  0  0
  2 15  1  0  0  0  0
  3 16  1  0  0  0  0
  4 17  1  0  0  0  0
  5 18  1  0  0  0  0
  6 19  1  0  0  0  0
  6 20  1  0  0  0  0
  6 21  1  0  0  0  0
  7 22  1  0  0  0  0
  7 23  1  0  0  0  0
  9 24  1  0  0  0  0
 10 25  1  0  0  0  0
 11 26  1  0  0  0  0
 12 27  1  0  0  0  0
M  END
> <FRED Chemgauss4 score>
-7.715485

$$$$
C51003953	P128525420
  -OEChem-05122015313D

 24 24  0     0  0  0  0  0  0999 V2000
  123.9129  109.2330  109.7302 C   0  0  0  0  0  0  0  0  0  0  0  0
  123.9138  107.8725  109.9288 C   0  0  0  0  0  0  0  0  0  0  0  0
  125.3468  108.4590  108.3607 C   0  0  0  0  0  0  0  0  0  0  0  0
  126.3794  108.3048  107.3158 C   0  0  0  0  0  0  0  0  0  0  0  0
  125.0294  105.4757  107.4453 C   0  0  0  0  0  0  0  0  0  0  0  0
  125.1996  105.9883  108.8749 C   0  0  0  0  0  0  0  0  0  0  0  0
  123.5880  105.5234  106.9538 C   0  0  0  0  0  0  0  0  0  0  0  0
  124.8069  109.5917  108.7526 N   0  0  0  0  0  0  0  0  0  0  0  0
  124.8369  107.3903  109.0442 N   0  0  0  0  0  0  0  0  0  0  0  0
  125.8500  108.4463  105.9772 N   0  0  0  0  0  0  0  0  0  0  0  0
  122.7921  104.6968  107.7933 O   0  0  0  0  0  0  0  0  0  0  0  0
  123.3139  109.9725  110.2413 H   0  0  0  0  0  0  0  0  0  0  0  0
  123.3577  107.2309  110.5981 H   0  0  0  0  0  0  0  0  0  0  0  0
  127.1848  109.0528  107.4212 H   0  0  0  0  0  0  0  0  0  0  0  0
  126.8722  107.3179  107.3586 H   0  0  0  0  0  0  0  0  0  0  0  0
  125.3843  104.4384  107.3958 H   0  0  0  0  0  0  0  0  0  0  0  0
  125.6673  106.0381  106.7519 H   0  0  0  0  0  0  0  0  0  0  0  0
  124.6067  105.3899  109.5766 H   0  0  0  0  0  0  0  0  0  0  0  0
  126.2479  105.8932  109.1837 H   0  0  0  0  0  0  0  0  0  0  0  0
  123.5043  105.1497  105.9289 H   0  0  0  0  0  0  0  0  0  0  0  0
  123.1940  106.5437  106.9969 H   0  0  0  0  0  0  0  0  0  0  0  0
  126.3207  107.9852  105.2203 H   0  0  0  0  0  0  0  0  0  0  0  0
  125.1593  109.1536  105.8034 H   0  0  0  0  0  0  0  0  0  0  0  0
  121.8834  104.7480  107.4558 H   0  0  0  0  0  0  0  0  0  0  0  0
  1  2  2  0  0  0  0
  1  8  1  0  0  0  0
  2  9  1  0  0  0  0
  3  4  1  0  0  0  0
  3  8  2  0  0  0  0
  3  9  1  0  0  0  0
  4 10  1  0  0  0  0
  5  6  1  0  0  0  0
  5  7  1  0  0  0  0
  6  9  1  0  0  0  0
  7 11  1  0  0  0  0
  1 12  1  0  0  0  0
  2 13  1  0  0  0  0
  4 14  1  0  0  0  0
  4 15  1  0  0  0  0
  5 16  1  0  0  0  0
  5 17  1  0  0  0  0
  6 18  1  0  0  0  0
  6 19  1  0  0  0  0
  7 20  1  0  0  0  0
  7 21  1  0  0  0  0
 10 22  1  0  0  0  0
 10 23  1  0  0  0  0
 11 24  1  0  0  0  0
M  END
> <FRED Chemgauss4 score>
-7.710345

$$$$
C83947683	P131340971
  -OEChem-05122015313D

 21 21  0     1  0  0  0  0  0999 V2000
  125.3431  108.8326  107.8157 C   0  0  0  0  0  0  0  0  0  0  0  0
  124.6776  107.4894  109.4244 C   0  0  0  0  0  0  0  0  0  0  0  0
  125.2843  107.4774  108.1922 C   0  0  0  0  0  0  0  0  0  0  0  0
  124.7485  103.9888  107.6636 C   0  0  0  0  0  0  0  0  0  0  0  0
  125.5155  104.9760  108.1421 C   0  0  0  0  0  0  0  0  0  0  0  0
  123.7867  109.3160  110.8901 C   0  0  0  0  0  0  0  0  0  0  0  0
  125.7778  106.2700  107.4111 C   0  0  2  0  0  0  0  0  0  0  0  0
  124.8158  109.6463  108.7343 N   0  0  0  0  0  0  0  0  0  0  0  0
  124.4197  108.7999  109.7002 N   0  0  0  0  0  0  0  0  0  0  0  0
  127.2005  106.3755  107.0600 N   0  0  0  0  0  0  0  0  0  0  0  0
  125.7469  109.2636  106.9105 H   0  0  0  0  0  0  0  0  0  0  0  0
  124.4129  106.6965  110.1108 H   0  0  0  0  0  0  0  0  0  0  0  0
  124.5975  103.0824  108.2396 H   0  0  0  0  0  0  0  0  0  0  0  0
  124.2631  104.0644  106.6970 H   0  0  0  0  0  0  0  0  0  0  0  0
  125.9747  104.8395  109.1191 H   0  0  0  0  0  0  0  0  0  0  0  0
  124.5687  109.5234  111.6253 H   0  0  0  0  0  0  0  0  0  0  0  0
  123.2405  110.2310  110.6444 H   0  0  0  0  0  0  0  0  0  0  0  0
  123.0841  108.5726  111.2771 H   0  0  0  0  0  0  0  0  0  0  0  0
  125.2385  106.2384  106.4551 H   0  0  0  0  0  0  0  0  0  0  0  0
  127.5586  107.2789  106.8571 H   0  0  0  0  0  0  0  0  0  0  0  0
  127.6845  105.5360  106.8436 H   0  0  0  0  0  0  0  0  0  0  0  0
  1  3  1  0  0  0  0
  1  8  2  0  0  0  0
  2  3  2  0  0  0  0
  2  9  1  0  0  0  0
  3  7  1  0  0  0  0
  4  5  2  0  0  0  0
  5  7  1  0  0  0  0
  6  9  1  0  0  0  0
  7 10  1  0  0  0  0
  8  9  1  0  0  0  0
  1 11  1  0  0  0  0
  2 12  1  0  0  0  0
  4 13  1  0  0  0  0
  4 14  1  0  0  0  0
  5 15  1  0  0  0  0
  6 16  1  0  0  0  0
  6 17  1  0  0  0  0
  6 18  1  0  0  0  0
  7 19  1  0  0  0  0
 10 20  1  0  0  0  0
 10 21  1  0  0  0  0
M  END
> <FRED Chemgauss4 score>
-7.709752

$$$$
C88061774	P137749499
  -OEChem-05122015313D

 26 25  0     0  0  0  0  0  0999 V2000
  122.8353  105.2548  106.3314 C   0  0  0  0  0  0  0  0  0  0  0  0
  120.6329  104.1412  106.0109 C   0  0  0  0  0  0  0  0  0  0  0  0
  124.0995  105.1434  107.1685 C   0  0  0  0  0  0  0  0  0  0  0  0
  124.7203  109.2593  109.3230 C   0  0  0  0  0  0  0  0  0  0  0  0
  124.3937  106.3843  107.9947 C   0  0  0  0  0  0  0  0  0  0  0  0
  125.4738  108.9453  108.0448 C   0  0  0  0  0  0  0  0  0  0  0  0
  123.4615  109.9041  109.0661 N   0  0  0  0  0  0  0  0  0  0  0  0
  121.9124  104.2750  106.6685 N   0  0  0  0  0  0  0  0  0  0  0  0
  122.6783  106.1025  105.4571 O   0  0  0  0  0  0  0  0  0  0  0  0
  123.2630  108.3940  106.7637 O   0  0  0  0  0  0  0  0  0  0  0  0
  125.4455  107.4910  105.8730 O   0  0  0  0  0  0  0  0  0  0  0  0
  124.5805  107.8258  106.9912 S   0  0  0  0  0  0  0  0  0  0  0  0
  119.8796  104.7399  106.5295 H   0  0  0  0  0  0  0  0  0  0  0  0
  120.3142  103.0953  106.0134 H   0  0  0  0  0  0  0  0  0  0  0  0
  120.7027  104.4838  104.9750 H   0  0  0  0  0  0  0  0  0  0  0  0
  124.0215  104.2622  107.8162 H   0  0  0  0  0  0  0  0  0  0  0  0
  124.9294  104.9746  106.4715 H   0  0  0  0  0  0  0  0  0  0  0  0
  124.5152  108.3531  109.9014 H   0  0  0  0  0  0  0  0  0  0  0  0
  125.3055  109.9417  109.9469 H   0  0  0  0  0  0  0  0  0  0  0  0
  125.3066  106.2823  108.5884 H   0  0  0  0  0  0  0  0  0  0  0  0
  123.5595  106.5939  108.6716 H   0  0  0  0  0  0  0  0  0  0  0  0
  126.4252  108.4562  108.2740 H   0  0  0  0  0  0  0  0  0  0  0  0
  125.6727  109.8474  107.4582 H   0  0  0  0  0  0  0  0  0  0  0  0
  123.0637  110.5050  109.7708 H   0  0  0  0  0  0  0  0  0  0  0  0
  122.9005  109.5952  108.2878 H   0  0  0  0  0  0  0  0  0  0  0  0
  122.1469  103.6225  107.4108 H   0  0  0  0  0  0  0  0  0  0  0  0
  1  3  1  0  0  0  0
  1  8  1  0  0  0  0
  1  9  2  0  0  0  0
  2  8  1  0  0  0  0
  3  5  1  0  0  0  0
  4  6  1  0  0  0  0
  4  7  1  0  0  0  0
  5 12  1  0  0  0  0
  6 12  1  0  0  0  0
 10 12  2  0  0  0  0
 11 12  2  0  0  0  0
  2 13  1  0  0  0  0
  2 14  1  0  0  0  0
  2 15  1  0  0  0  0
  3 16  1  0  0  0  0
  3 17  1  0  0  0  0
  4 18  1  0  0  0  0
  4 19  1  0  0  0  0
  5 20  1  0  0  0  0
  5 21  1  0  0  0  0
  6 22  1  0  0  0  0
  6 23  1  0  0  0  0
  7 24  1  0  0  0  0
  7 25  1  0  0  0  0
  8 26  1  0  0  0  0
M  END
> <FRED Chemgauss4 score>
-7.705167

$$$$
C38006454	P120930283
  -OEChem-05122015313D

 24 25  0     1  0  0  0  0  0999 V2000
  120.2111  104.1384  106.4920 C   0  0  0  0  0  0  0  0  0  0  0  0
  120.3625  106.3261  106.3313 C   0  0  0  0  0  0  0  0  0  0  0  0
  121.1293  105.2046  106.5333 C   0  0  0  0  0  0  0  0  0  0  0  0
  125.8250  106.2001  107.0451 C   0  0  0  0  0  0  0  0  0  0  0  0
  125.1601  104.1204  107.3288 C   0  0  0  0  0  0  0  0  0  0  0  0
  125.0086  106.2511  108.3295 C   0  0  0  0  0  0  0  0  0  0  0  0
  124.4426  104.8497  108.4243 C   0  0  1  0  0  0  0  0  0  0  0  0
  122.6125  105.1344  106.7485 C   0  0  0  0  0  0  0  0  0  0  0  0
  118.9568  104.5459  106.2805 N   0  0  0  0  0  0  0  0  0  0  0  0
  125.8908  104.9944  106.5578 N   0  0  0  0  0  0  0  0  0  0  0  0
  119.0815  105.8808  106.1872 N   0  0  0  0  0  0  0  0  0  0  0  0
  122.9844  104.8619  108.1647 N   0  3  0  0  0  0  0  0  0  0  0  0
  126.3411  107.2487  106.6138 O   0  5  0  0  0  0  0  0  0  0  0  0
  125.0570  102.9152  107.1371 O   0  0  0  0  0  0  0  0  0  0  0  0
  120.4010  103.0803  106.6065 H   0  0  0  0  0  0  0  0  0  0  0  0
  120.6054  107.3779  106.2782 H   0  0  0  0  0  0  0  0  0  0  0  0
  125.6825  106.4554  109.1702 H   0  0  0  0  0  0  0  0  0  0  0  0
  124.2460  107.0367  108.2910 H   0  0  0  0  0  0  0  0  0  0  0  0
  124.6084  104.3875  109.4008 H   0  0  0  0  0  0  0  0  0  0  0  0
  123.0626  104.3379  106.1462 H   0  0  0  0  0  0  0  0  0  0  0  0
  123.0974  106.0767  106.4716 H   0  0  0  0  0  0  0  0  0  0  0  0
  118.2468  106.4300  106.0244 H   0  0  0  0  0  0  0  0  0  0  0  0
  122.5783  103.9571  108.4471 H   0  0  0  0  0  0  0  0  0  0  0  0
  122.5346  105.5664  108.7685 H   0  0  0  0  0  0  0  0  0  0  0  0
  1  3  1  0  0  0  0
  1  9  2  0  0  0  0
  2  3  2  0  0  0  0
  2 11  1  0  0  0  0
  3  8  1  0  0  0  0
  4  6  1  0  0  0  0
  4 10  2  0  0  0  0
  4 13  1  0  0  0  0
  5  7  1  0  0  0  0
  5 10  1  0  0  0  0
  5 14  2  0  0  0  0
  6  7  1  0  0  0  0
  7 12  1  0  0  0  0
  8 12  1  0  0  0  0
  9 11  1  0  0  0  0
  1 15  1  0  0  0  0
  2 16  1  0  0  0  0
  6 17  1  0  0  0  0
  6 18  1  0  0  0  0
  7 19  1  0  0  0  0
  8 20  1  0  0  0  0
  8 21  1  0  0  0  0
 11 22  1  0  0  0  0
 12 23  1  0  0  0  0
 12 24  1  0  0  0  0
M  CHG  2  12   1  13  -1
M  END
> <FRED Chemgauss4 score>
-7.704697

$$$$
C50395723	P75386859
  -OEChem-05122015313D

 28 28  0     1  0  0  0  0  0999 V2000
  125.0317  108.9206  108.4724 C   0  0  0  0  0  0  0  0  0  0  0  0
  126.5586  106.4332  108.5292 C   0  0  0  0  0  0  0  0  0  0  0  0
  125.0398  106.3589  108.5090 C   0  0  0  0  0  0  0  0  0  0  0  0
  127.0061  107.5883  107.6537 C   0  0  0  0  0  0  0  0  0  0  0  0
  124.4599  107.6474  109.0867 C   0  0  2  0  0  0  0  0  0  0  0  0
  120.2252  107.3993  108.0580 C   0  0  0  0  0  0  0  0  0  0  0  0
  122.6574  107.7264  107.5034 C   0  0  0  0  0  0  0  0  0  0  0  0
  121.2426  108.2762  107.3404 C   0  0  2  0  0  0  0  0  0  0  0  0
  126.2977  108.8238  107.9316 N   0  0  0  0  0  0  0  0  0  0  0  0
  123.0084  107.6757  108.9143 N   0  0  0  0  0  0  0  0  0  0  0  0
  124.4331  109.9970  108.5286 O   0  0  0  0  0  0  0  0  0  0  0  0
  121.1945  109.5854  107.9043 O   0  0  0  0  0  0  0  0  0  0  0  0
  126.9107  106.5798  109.5575 H   0  0  0  0  0  0  0  0  0  0  0  0
  126.9933  105.4963  108.1646 H   0  0  0  0  0  0  0  0  0  0  0  0
  124.6958  106.2029  107.4780 H   0  0  0  0  0  0  0  0  0  0  0  0
  124.7036  105.4952  109.0951 H   0  0  0  0  0  0  0  0  0  0  0  0
  128.0758  107.7814  107.7819 H   0  0  0  0  0  0  0  0  0  0  0  0
  126.8323  107.3576  106.5968 H   0  0  0  0  0  0  0  0  0  0  0  0
  124.6903  107.6934  110.1633 H   0  0  0  0  0  0  0  0  0  0  0  0
  120.4631  107.3029  109.1218 H   0  0  0  0  0  0  0  0  0  0  0  0
  119.2143  107.8100  107.9587 H   0  0  0  0  0  0  0  0  0  0  0  0
  120.2024  106.3976  107.6152 H   0  0  0  0  0  0  0  0  0  0  0  0
  122.7321  106.7154  107.0886 H   0  0  0  0  0  0  0  0  0  0  0  0
  123.3821  108.3640  106.9867 H   0  0  0  0  0  0  0  0  0  0  0  0
  120.9809  108.3556  106.2789 H   0  0  0  0  0  0  0  0  0  0  0  0
  126.7747  109.6922  107.7091 H   0  0  0  0  0  0  0  0  0  0  0  0
  122.6356  108.4971  109.3861 H   0  0  0  0  0  0  0  0  0  0  0  0
  120.2913  109.9103  107.7687 H   0  0  0  0  0  0  0  0  0  0  0  0
  1  5  1  0  0  0  0
  1  9  1  0  0  0  0
  1 11  2  0  0  0  0
  2  3  1  0  0  0  0
  2  4  1  0  0  0  0
  3  5  1  0  0  0  0
  4  9  1  0  0  0  0
  5 10  1  0  0  0  0
  6  8  1  0  0  0  0
  7  8  1  0  0  0  0
  7 10  1  0  0  0  0
  8 12  1  0  0  0  0
  2 13  1  0  0  0  0
  2 14  1  0  0  0  0
  3 15  1  0  0  0  0
  3 16  1  0  0  0  0
  4 17  1  0  0  0  0
  4 18  1  0  0  0  0
  5 19  1  0  0  0  0
  6 20  1  0  0  0  0
  6 21  1  0  0  0  0
  6 22  1  0  0  0  0
  7 23  1  0  0  0  0
  7 24  1  0  0  0  0
  8 25  1  0  0  0  0
  9 26  1  0  0  0  0
 10 27  1  0  0  0  0
 12 28  1  0  0  0  0
M  END
> <FRED Chemgauss4 score>
-7.702030

$$$$
C82055066	P127998912
  -OEChem-05122015313D

 18 18  0     0  0  0  0  0  0999 V2000
  125.4940  106.9683  108.2021 C   0  0  0  0  0  0  0  0  0  0  0  0
  127.4957  107.3837  107.3792 C   0  0  0  0  0  0  0  0  0  0  0  0
  125.5505  106.6963  106.8555 C   0  0  0  0  0  0  0  0  0  0  0  0
  123.1775  105.9525  106.6533 C   0  0  0  0  0  0  0  0  0  0  0  0
  123.1245  104.5257  107.1683 C   0  0  0  0  0  0  0  0  0  0  0  0
  126.7993  106.9567  106.3493 N   0  0  0  0  0  0  0  0  0  0  0  0
  126.7475  107.4073  108.5233 N   0  0  0  0  0  0  0  0  0  0  0  0
  124.5197  106.2284  106.0920 N   0  0  0  0  0  0  0  0  0  0  0  0
  121.8458  104.2766  107.7383 O   0  0  0  0  0  0  0  0  0  0  0  0
  124.7072  106.8943  108.9396 H   0  0  0  0  0  0  0  0  0  0  0  0
  128.5324  107.6875  107.3649 H   0  0  0  0  0  0  0  0  0  0  0  0
  122.4356  106.1179  105.8656 H   0  0  0  0  0  0  0  0  0  0  0  0
  122.9972  106.6588  107.4693 H   0  0  0  0  0  0  0  0  0  0  0  0
  123.8768  104.3812  107.9499 H   0  0  0  0  0  0  0  0  0  0  0  0
  123.2995  103.8014  106.3660 H   0  0  0  0  0  0  0  0  0  0  0  0
  127.0638  107.6979  109.4389 H   0  0  0  0  0  0  0  0  0  0  0  0
  124.6342  106.0519  105.1174 H   0  0  0  0  0  0  0  0  0  0  0  0
  121.8544  103.3585  108.0535 H   0  0  0  0  0  0  0  0  0  0  0  0
  1  3  2  0  0  0  0
  1  7  1  0  0  0  0
  2  6  2  0  0  0  0
  2  7  1  0  0  0  0
  3  6  1  0  0  0  0
  3  8  1  0  0  0  0
  4  5  1  0  0  0  0
  4  8  1  0  0  0  0
  5  9  1  0  0  0  0
  1 10  1  0  0  0  0
  2 11  1  0  0  0  0
  4 12  1  0  0  0  0
  4 13  1  0  0  0  0
  5 14  1  0  0  0  0
  5 15  1  0  0  0  0
  7 16  1  0  0  0  0
  8 17  1  0  0  0  0
  9 18  1  0  0  0  0
M  END
> <FRED Chemgauss4 score>
-7.701791

$$$$
C84444287	P132137690
  -OEChem-05122015313D

 22 22  0     0  0  0  0  0  0999 V2000
  125.1473  105.5579  107.2027 C   0  0  0  0  0  0  0  0  0  0  0  0
  126.1164  104.6552  108.8788 C   0  0  0  0  0  0  0  0  0  0  0  0
  125.6356  106.0938  108.5703 C   0  0  0  0  0  0  0  0  0  0  0  0
  125.0374  104.1694  107.8796 C   0  0  0  0  0  0  0  0  0  0  0  0
  126.4212  108.2706  107.6306 C   0  0  0  0  0  0  0  0  0  0  0  0
  125.2203  108.9886  108.2140 C   0  0  0  0  0  0  0  0  0  0  0  0
  126.7281  107.0660  108.4621 N   0  3  0  0  0  0  0  0  0  0  0  0
  125.4689  103.1164  107.0629 O   0  5  0  0  0  0  0  0  0  0  0  0
  124.9010  110.1147  107.4075 O   0  0  0  0  0  0  0  0  0  0  0  0
  124.2016  105.9832  106.8524 H   0  0  0  0  0  0  0  0  0  0  0  0
  125.8852  105.6391  106.3934 H   0  0  0  0  0  0  0  0  0  0  0  0
  127.1580  104.4543  108.5949 H   0  0  0  0  0  0  0  0  0  0  0  0
  125.9721  104.3334  109.9150 H   0  0  0  0  0  0  0  0  0  0  0  0
  124.8290  106.4435  109.2251 H   0  0  0  0  0  0  0  0  0  0  0  0
  124.0618  103.9633  108.3329 H   0  0  0  0  0  0  0  0  0  0  0  0
  127.3206  108.8927  107.6454 H   0  0  0  0  0  0  0  0  0  0  0  0
  126.2242  107.9105  106.6174 H   0  0  0  0  0  0  0  0  0  0  0  0
  124.3538  108.3201  108.2186 H   0  0  0  0  0  0  0  0  0  0  0  0
  125.4093  109.3265  109.2382 H   0  0  0  0  0  0  0  0  0  0  0  0
  127.0136  107.3895  109.4041 H   0  0  0  0  0  0  0  0  0  0  0  0
  127.5734  106.6118  108.0712 H   0  0  0  0  0  0  0  0  0  0  0  0
  124.1308  110.5421  107.8157 H   0  0  0  0  0  0  0  0  0  0  0  0
  1  3  1  0  0  0  0
  1  4  1  0  0  0  0
  2  3  1  0  0  0  0
  2  4  1  0  0  0  0
  3  7  1  0  0  0  0
  4  8  1  0  0  0  0
  5  6  1  0  0  0  0
  5  7  1  0  0  0  0
  6  9  1  0  0  0  0
  1 10  1  0  0  0  0
  1 11  1  0  0  0  0
  2 12  1  0  0  0  0
  2 13  1  0  0  0  0
  3 14  1  0  0  0  0
  4 15  1  0  0  0  0
  5 16  1  0  0  0  0
  5 17  1  0  0  0  0
  6 18  1  0  0  0  0
  6 19  1  0  0  0  0
  7 20  1  0  0  0  0
  7 21  1  0  0  0  0
  9 22  1  0  0  0  0
M  CHG  2   7   1   8  -1
M  END
> <FRED Chemgauss4 score>
-7.700187

$$$$
C82598966	P129091305
  -OEChem-05122015313D

 29 29  0     1  0  0  0  0  0999 V2000
  123.0151  104.3857  106.6835 C   0  0  0  0  0  0  0  0  0  0  0  0
  121.9842  105.1807  107.0007 C   0  0  0  0  0  0  0  0  0  0  0  0
  124.3468  104.6626  107.2672 C   0  0  0  0  0  0  0  0  0  0  0  0
  123.2346  106.5124  108.3662 C   0  0  0  0  0  0  0  0  0  0  0  0
  120.6178  104.9350  106.4301 C   0  0  0  0  0  0  0  0  0  0  0  0
  123.3418  107.6959  109.2983 C   0  0  0  0  0  0  0  0  0  0  0  0
  125.6420  106.1415  108.7650 C   0  0  0  0  0  0  0  0  0  0  0  0
  125.9997  108.1677  107.2619 C   0  0  0  0  0  0  0  0  0  0  0  0
  126.5964  106.8767  107.8230 C   0  0  1  0  0  0  0  0  0  0  0  0
  122.0732  106.2575  107.8462 N   0  0  0  0  0  0  0  0  0  0  0  0
  124.3845  105.7662  108.1216 N   0  0  0  0  0  0  0  0  0  0  0  0
  126.9529  108.8133  106.3863 N   0  0  0  0  0  0  0  0  0  0  0  0
  125.2926  103.9348  106.9745 O   0  0  0  0  0  0  0  0  0  0  0  0
  127.8008  107.1920  108.5216 O   0  0  0  0  0  0  0  0  0  0  0  0
  122.9190  103.5405  106.0120 H   0  0  0  0  0  0  0  0  0  0  0  0
  120.0652  104.2689  107.0882 H   0  0  0  0  0  0  0  0  0  0  0  0
  120.7122  104.4812  105.4462 H   0  0  0  0  0  0  0  0  0  0  0  0
  120.0884  105.8806  106.3385 H   0  0  0  0  0  0  0  0  0  0  0  0
  123.1436  107.3656  110.3117 H   0  0  0  0  0  0  0  0  0  0  0  0
  122.6162  108.4455  109.0019 H   0  0  0  0  0  0  0  0  0  0  0  0
  124.3421  108.1093  109.2298 H   0  0  0  0  0  0  0  0  0  0  0  0
  126.1012  105.2242  109.1467 H   0  0  0  0  0  0  0  0  0  0  0  0
  125.3774  106.7776  109.6157 H   0  0  0  0  0  0  0  0  0  0  0  0
  125.7457  108.8668  108.0654 H   0  0  0  0  0  0  0  0  0  0  0  0
  125.0918  107.9527  106.6889 H   0  0  0  0  0  0  0  0  0  0  0  0
  126.8659  106.2037  106.9997 H   0  0  0  0  0  0  0  0  0  0  0  0
  127.9250  108.7974  106.6350 H   0  0  0  0  0  0  0  0  0  0  0  0
  126.6115  109.4287  105.6707 H   0  0  0  0  0  0  0  0  0  0  0  0
  128.1788  106.3477  108.8103 H   0  0  0  0  0  0  0  0  0  0  0  0
  1  2  2  0  0  0  0
  1  3  1  0  0  0  0
  2  5  1  0  0  0  0
  2 10  1  0  0  0  0
  3 11  1  0  0  0  0
  3 13  2  0  0  0  0
  4  6  1  0  0  0  0
  4 10  2  0  0  0  0
  4 11  1  0  0  0  0
  7  9  1  0  0  0  0
  7 11  1  0  0  0  0
  8  9  1  0  0  0  0
  8 12  1  0  0  0  0
  9 14  1  0  0  0  0
  1 15  1  0  0  0  0
  5 16  1  0  0  0  0
  5 17  1  0  0  0  0
  5 18  1  0  0  0  0
  6 19  1  0  0  0  0
  6 20  1  0  0  0  0
  6 21  1  0  0  0  0
  7 22  1  0  0  0  0
  7 23  1  0  0  0  0
  8 24  1  0  0  0  0
  8 25  1  0  0  0  0
  9 26  1  0  0  0  0
 12 27  1  0  0  0  0
 12 28  1  0  0  0  0
 14 29  1  0  0  0  0
M  END
> <FRED Chemgauss4 score>
-7.699285

$$$$
C88062526	P137750046
  -OEChem-05122015313D

 26 26  0     1  0  0  0  0  0999 V2000
  125.5945  108.1172  107.4533 C   0  0  0  0  0  0  0  0  0  0  0  0
  125.6040  105.2700  106.7417 C   0  0  0  0  0  0  0  0  0  0  0  0
  125.4112  104.5912  108.0676 C   0  0  0  0  0  0  0  0  0  0  0  0
  124.7765  105.9387  107.8145 C   0  0  0  0  0  0  0  0  0  0  0  0
  125.3612  107.1358  108.5125 C   0  0  0  0  0  0  0  0  0  0  0  0
  123.2855  105.9912  107.6251 C   0  0  0  0  0  0  0  0  0  0  0  0
  120.4164  107.3312  104.9813 C   0  0  0  0  0  0  0  0  0  0  0  0
  121.1447  106.9208  106.2500 C   0  0  0  0  0  0  0  0  0  0  0  0
  125.7855  108.9051  106.6228 N   0  0  0  0  0  0  0  0  0  0  0  0
  120.3323  106.2632  104.0217 N   0  0  0  0  0  0  0  0  0  0  0  0
  123.6185  107.5727  105.4721 O   0  0  0  0  0  0  0  0  0  0  0  0
  122.8310  106.3466  105.8974 S   0  0  1  0  0  0  0  0  0  0  0  0
  126.5865  105.6691  106.5195 H   0  0  0  0  0  0  0  0  0  0  0  0
  125.0967  104.8479  105.8822 H   0  0  0  0  0  0  0  0  0  0  0  0
  124.7747  103.7147  108.0959 H   0  0  0  0  0  0  0  0  0  0  0  0
  126.2646  104.5361  108.7331 H   0  0  0  0  0  0  0  0  0  0  0  0
  126.2912  106.8581  109.0108 H   0  0  0  0  0  0  0  0  0  0  0  0
  124.6584  107.5121  109.2573 H   0  0  0  0  0  0  0  0  0  0  0  0
  122.8345  106.7758  108.2465 H   0  0  0  0  0  0  0  0  0  0  0  0
  122.8174  105.0351  107.8933 H   0  0  0  0  0  0  0  0  0  0  0  0
  120.9530  108.1500  104.4917 H   0  0  0  0  0  0  0  0  0  0  0  0
  119.3962  107.6681  105.1920 H   0  0  0  0  0  0  0  0  0  0  0  0
  120.6226  106.0868  106.7288 H   0  0  0  0  0  0  0  0  0  0  0  0
  121.2131  107.7474  106.9643 H   0  0  0  0  0  0  0  0  0  0  0  0
  121.1122  105.6340  103.9175 H   0  0  0  0  0  0  0  0  0  0  0  0
  119.5963  106.2782  103.3337 H   0  0  0  0  0  0  0  0  0  0  0  0
  1  5  1  0  0  0  0
  1  9  3  0  0  0  0
  2  3  1  0  0  0  0
  2  4  1  0  0  0  0
  3  4  1  0  0  0  0
  4  5  1  0  0  0  0
  4  6  1  0  0  0  0
  6 12  1  0  0  0  0
  7  8  1  0  0  0  0
  7 10  1  0  0  0  0
  8 12  1  0  0  0  0
 11 12  2  0  0  0  0
  2 13  1  0  0  0  0
  2 14  1  0  0  0  0
  3 15  1  0  0  0  0
  3 16  1  0  0  0  0
  5 17  1  0  0  0  0
  5 18  1  0  0  0  0
  6 19  1  0  0  0  0
  6 20  1  0  0  0  0
  7 21  1  0  0  0  0
  7 22  1  0  0  0  0
  8 23  1  0  0  0  0
  8 24  1  0  0  0  0
 10 25  1  0  0  0  0
 10 26  1  0  0  0  0
M  END
> <FRED Chemgauss4 score>
-7.696921

$$$$
C67425135	P103549599
  -OEChem-05122015313D

 25 25  0     1  0  0  0  0  0999 V2000
  124.8617  108.6915  108.2588 C   0  0  0  0  0  0  0  0  0  0  0  0
  124.6199  105.7648  108.4208 C   0  0  0  0  0  0  0  0  0  0  0  0
  125.8884  106.3870  107.8712 C   0  0  0  0  0  0  0  0  0  0  0  0
  124.0514  106.6613  109.5040 C   0  0  0  0  0  0  0  0  0  0  0  0
  125.6119  107.7712  107.2913 C   0  0  1  0  0  0  0  0  0  0  0  0
  123.1232  108.9004  109.9901 C   0  0  0  0  0  0  0  0  0  0  0  0
  124.8270  107.7008  105.9770 C   0  0  0  0  0  0  0  0  0  0  0  0
  123.9676  108.0747  109.1374 N   0  0  0  0  0  0  0  0  0  0  0  0
  123.4343  107.6288  106.2566 N   0  0  0  0  0  0  0  0  0  0  0  0
  125.0103  109.9147  108.1818 O   0  0  0  0  0  0  0  0  0  0  0  0
  126.8768  108.3718  107.0204 O   0  0  0  0  0  0  0  0  0  0  0  0
  123.8828  105.6219  107.6232 H   0  0  0  0  0  0  0  0  0  0  0  0
  124.8327  104.7728  108.8345 H   0  0  0  0  0  0  0  0  0  0  0  0
  126.6393  106.4602  108.6697 H   0  0  0  0  0  0  0  0  0  0  0  0
  126.3316  105.7343  107.1089 H   0  0  0  0  0  0  0  0  0  0  0  0
  123.0496  106.3099  109.7755 H   0  0  0  0  0  0  0  0  0  0  0  0
  124.6800  106.6053  110.4010 H   0  0  0  0  0  0  0  0  0  0  0  0
  122.1818  109.1252  109.4821 H   0  0  0  0  0  0  0  0  0  0  0  0
  123.6289  109.8406  110.2262 H   0  0  0  0  0  0  0  0  0  0  0  0
  122.9026  108.3769  110.9243 H   0  0  0  0  0  0  0  0  0  0  0  0
  125.1355  106.8146  105.4418 H   0  0  0  0  0  0  0  0  0  0  0  0
  125.0351  108.5904  105.4012 H   0  0  0  0  0  0  0  0  0  0  0  0
  123.1059  107.1140  107.0678 H   0  0  0  0  0  0  0  0  0  0  0  0
  122.7603  107.9098  105.5509 H   0  0  0  0  0  0  0  0  0  0  0  0
  126.6914  109.2369  106.6241 H   0  0  0  0  0  0  0  0  0  0  0  0
  1  5  1  0  0  0  0
  1  8  1  0  0  0  0
  1 10  2  0  0  0  0
  2  3  1  0  0  0  0
  2  4  1  0  0  0  0
  3  5  1  0  0  0  0
  4  8  1  0  0  0  0
  5  7  1  0  0  0  0
  5 11  1  0  0  0  0
  6  8  1  0  0  0  0
  7  9  1  0  0  0  0
  2 12  1  0  0  0  0
  2 13  1  0  0  0  0
  3 14  1  0  0  0  0
  3 15  1  0  0  0  0
  4 16  1  0  0  0  0
  4 17  1  0  0  0  0
  6 18  1  0  0  0  0
  6 19  1  0  0  0  0
  6 20  1  0  0  0  0
  7 21  1  0  0  0  0
  7 22  1  0  0  0  0
  9 23  1  0  0  0  0
  9 24  1  0  0  0  0
 11 25  1  0  0  0  0
M  END
> <FRED Chemgauss4 score>
-7.695988

$$$$
C76576824	P119452343
  -OEChem-05122015313D

 25 25  0     1  0  0  0  0  0999 V2000
  124.8857  103.8923  107.1754 C   0  0  0  0  0  0  0  0  0  0  0  0
  125.5152  104.3807  108.4562 C   0  0  0  0  0  0  0  0  0  0  0  0
  123.8161  104.9341  106.9382 C   0  0  0  0  0  0  0  0  0  0  0  0
  125.4449  105.8934  108.3099 C   0  0  1  0  0  0  0  0  0  0  0  0
  126.6987  106.4878  107.6832 C   0  0  0  0  0  0  0  0  0  0  0  0
  125.5477  108.7454  108.0250 C   0  0  0  0  0  0  0  0  0  0  0  0
  126.4549  107.8967  107.1312 C   0  0  2  0  0  0  0  0  0  0  0  0
  125.6825  110.1526  107.7264 N   0  0  0  0  0  0  0  0  0  0  0  0
  124.3307  106.1731  107.4439 O   0  0  0  0  0  0  0  0  0  0  0  0
  125.8833  107.8015  105.8280 O   0  0  0  0  0  0  0  0  0  0  0  0
  125.5901  103.8049  106.3442 H   0  0  0  0  0  0  0  0  0  0  0  0
  124.4245  102.9111  107.3387 H   0  0  0  0  0  0  0  0  0  0  0  0
  125.0031  104.0179  109.3579 H   0  0  0  0  0  0  0  0  0  0  0  0
  126.5607  104.0382  108.5063 H   0  0  0  0  0  0  0  0  0  0  0  0
  123.6212  105.0660  105.8694 H   0  0  0  0  0  0  0  0  0  0  0  0
  122.8755  104.6927  107.4393 H   0  0  0  0  0  0  0  0  0  0  0  0
  125.2467  106.3683  109.2667 H   0  0  0  0  0  0  0  0  0  0  0  0
  127.0220  105.8153  106.8799 H   0  0  0  0  0  0  0  0  0  0  0  0
  127.4939  106.5154  108.4372 H   0  0  0  0  0  0  0  0  0  0  0  0
  125.7879  108.5763  109.0798 H   0  0  0  0  0  0  0  0  0  0  0  0
  124.5011  108.4623  107.8699 H   0  0  0  0  0  0  0  0  0  0  0  0
  127.4178  108.4110  107.0255 H   0  0  0  0  0  0  0  0  0  0  0  0
  126.5934  110.5175  107.5127 H   0  0  0  0  0  0  0  0  0  0  0  0
  124.9162  110.7676  107.9347 H   0  0  0  0  0  0  0  0  0  0  0  0
  126.5231  107.3202  105.2813 H   0  0  0  0  0  0  0  0  0  0  0  0
  1  2  1  0  0  0  0
  1  3  1  0  0  0  0
  2  4  1  0  0  0  0
  3  9  1  0  0  0  0
  4  5  1  0  0  0  0
  4  9  1  0  0  0  0
  5  7  1  0  0  0  0
  6  7  1  0  0  0  0
  6  8  1  0  0  0  0
  7 10  1  0  0  0  0
  1 11  1  0  0  0  0
  1 12  1  0  0  0  0
  2 13  1  0  0  0  0
  2 14  1  0  0  0  0
  3 15  1  0  0  0  0
  3 16  1  0  0  0  0
  4 17  1  0  0  0  0
  5 18  1  0  0  0  0
  5 19  1  0  0  0  0
  6 20  1  0  0  0  0
  6 21  1  0  0  0  0
  7 22  1  0  0  0  0
  8 23  1  0  0  0  0
  8 24  1  0  0  0  0
 10 25  1  0  0  0  0
M  END
> <FRED Chemgauss4 score>
-7.690383

$$$$
C85353307	P133560752
  -OEChem-05122015313D

 27 28  0     1  0  0  0  0  0999 V2000
  126.3379  107.4966  106.6971 C   0  0  0  0  0  0  0  0  0  0  0  0
  124.4408  106.6050  106.1357 C   0  0  0  0  0  0  0  0  0  0  0  0
  122.1105  105.9730  105.1648 C   0  0  0  0  0  0  0  0  0  0  0  0
  121.3231  104.5998  106.8786 C   0  0  0  0  0  0  0  0  0  0  0  0
  123.2921  105.6228  106.0698 C   0  0  2  0  0  0  0  0  0  0  0  0
  122.5754  105.3022  107.3863 C   0  0  1  0  0  0  0  0  0  0  0  0
  126.0710  105.7172  109.2057 C   0  0  0  0  0  0  0  0  0  0  0  0
  125.8357  105.2889  107.7674 C   0  0  0  0  0  0  0  0  0  0  0  0
  125.7529  108.3137  105.8506 N   0  0  0  0  0  0  0  0  0  0  0  0
  124.5460  107.7464  105.4934 N   0  0  0  0  0  0  0  0  0  0  0  0
  125.5470  106.4077  106.9053 N   0  0  0  0  0  0  0  0  0  0  0  0
  122.2078  106.4976  108.1503 N   0  0  0  0  0  0  0  0  0  0  0  0
  120.9992  105.1776  105.6058 O   0  0  0  0  0  0  0  0  0  0  0  0
  127.2981  107.6396  107.1718 H   0  0  0  0  0  0  0  0  0  0  0  0
  121.8311  107.0289  105.1819 H   0  0  0  0  0  0  0  0  0  0  0  0
  122.3216  105.6848  104.1308 H   0  0  0  0  0  0  0  0  0  0  0  0
  121.4678  103.5190  106.7639 H   0  0  0  0  0  0  0  0  0  0  0  0
  120.4597  104.7568  107.5383 H   0  0  0  0  0  0  0  0  0  0  0  0
  123.7755  104.6369  105.6765 H   0  0  0  0  0  0  0  0  0  0  0  0
  123.1500  104.6586  107.9699 H   0  0  0  0  0  0  0  0  0  0  0  0
  126.9102  106.4171  109.2780 H   0  0  0  0  0  0  0  0  0  0  0  0
  126.2982  104.8464  109.8284 H   0  0  0  0  0  0  0  0  0  0  0  0
  125.1868  106.2124  109.6205 H   0  0  0  0  0  0  0  0  0  0  0  0
  124.9946  104.5891  107.7053 H   0  0  0  0  0  0  0  0  0  0  0  0
  126.7171  104.7742  107.3685 H   0  0  0  0  0  0  0  0  0  0  0  0
  122.8658  107.2491  108.2052 H   0  0  0  0  0  0  0  0  0  0  0  0
  121.4123  106.4502  108.7553 H   0  0  0  0  0  0  0  0  0  0  0  0
  1  9  2  0  0  0  0
  1 11  1  0  0  0  0
  2  5  1  0  0  0  0
  2 10  2  0  0  0  0
  2 11  1  0  0  0  0
  3  5  1  0  0  0  0
  3 13  1  0  0  0  0
  4  6  1  0  0  0  0
  4 13  1  0  0  0  0
  5  6  1  0  0  0  0
  6 12  1  0  0  0  0
  7  8  1  0  0  0  0
  8 11  1  0  0  0  0
  9 10  1  0  0  0  0
  1 14  1  0  0  0  0
  3 15  1  0  0  0  0
  3 16  1  0  0  0  0
  4 17  1  0  0  0  0
  4 18  1  0  0  0  0
  5 19  1  0  0  0  0
  6 20  1  0  0  0  0
  7 21  1  0  0  0  0
  7 22  1  0  0  0  0
  7 23  1  0  0  0  0
  8 24  1  0  0  0  0
  8 25  1  0  0  0  0
 12 26  1  0  0  0  0
 12 27  1  0  0  0  0
M  END
> <FRED Chemgauss4 score>
-7.686887

$$$$
C39058911	P151021703
  -OEChem-05122015313D

 21 21  0     1  0  0  0  0  0999 V2000
  125.0804  108.8504  107.7650 C   0  0  0  0  0  0  0  0  0  0  0  0
  124.2360  108.0313  106.8076 C   0  0  2  0  0  0  0  0  0  0  0  0
  124.8069  106.6145  106.9812 C   0  0  1  0  0  0  0  0  0  0  0  0
  125.2105  106.5964  108.4579 C   0  0  1  0  0  0  0  0  0  0  0  0
  126.2947  105.5838  108.7853 C   0  0  0  0  0  0  0  0  0  0  0  0
  125.6373  107.9569  108.6793 N   0  0  0  0  0  0  0  0  0  0  0  0
  124.3944  108.5590  105.4622 N   0  0  0  0  0  0  0  0  0  0  0  0
  123.8383  105.5782  106.6573 N   0  0  0  0  0  0  0  0  0  0  0  0
  125.2156  110.0646  107.7545 O   0  0  0  0  0  0  0  0  0  0  0  0
  126.5885  105.6681  110.1680 O   0  0  0  0  0  0  0  0  0  0  0  0
  123.1690  108.0818  107.1105 H   0  0  0  0  0  0  0  0  0  0  0  0
  125.6975  106.4542  106.3217 H   0  0  0  0  0  0  0  0  0  0  0  0
  124.3412  106.4074  109.1165 H   0  0  0  0  0  0  0  0  0  0  0  0
  127.1956  105.8037  108.2120 H   0  0  0  0  0  0  0  0  0  0  0  0
  125.9475  104.5770  108.5519 H   0  0  0  0  0  0  0  0  0  0  0  0
  126.2919  108.2326  109.3957 H   0  0  0  0  0  0  0  0  0  0  0  0
  124.4760  109.5475  105.3497 H   0  0  0  0  0  0  0  0  0  0  0  0
  124.2137  107.9498  104.6922 H   0  0  0  0  0  0  0  0  0  0  0  0
  123.9509  104.6917  107.0898 H   0  0  0  0  0  0  0  0  0  0  0  0
  123.2417  105.7332  105.8789 H   0  0  0  0  0  0  0  0  0  0  0  0
  127.2827  105.0127  110.3526 H   0  0  0  0  0  0  0  0  0  0  0  0
  1  2  1  0  0  0  0
  1  6  1  0  0  0  0
  1  9  2  0  0  0  0
  2  3  1  0  0  0  0
  2  7  1  0  0  0  0
  3  4  1  0  0  0  0
  3  8  1  0  0  0  0
  4  5  1  0  0  0  0
  4  6  1  0  0  0  0
  5 10  1  0  0  0  0
  2 11  1  0  0  0  0
  3 12  1  0  0  0  0
  4 13  1  0  0  0  0
  5 14  1  0  0  0  0
  5 15  1  0  0  0  0
  6 16  1  0  0  0  0
  7 17  1  0  0  0  0
  7 18  1  0  0  0  0
  8 19  1  0  0  0  0
  8 20  1  0  0  0  0
 10 21  1  0  0  0  0
M  END
> <FRED Chemgauss4 score>
-7.685316

$$$$
C70648394	P108999506
  -OEChem-05122015313D

 23 23  0     1  0  0  0  0  0999 V2000
  123.6238  108.6151  110.0414 C   0  0  0  0  0  0  0  0  0  0  0  0
  124.5606  109.3166  108.2140 C   0  0  0  0  0  0  0  0  0  0  0  0
  125.0506  103.9650  107.2315 C   0  0  0  0  0  0  0  0  0  0  0  0
  124.1618  106.7769  108.3233 C   0  0  0  0  0  0  0  0  0  0  0  0
  125.3235  105.9406  108.8952 C   0  0  1  0  0  0  0  0  0  0  0  0
  125.1699  104.4160  108.6830 C   0  0  2  0  0  0  0  0  0  0  0  0
  123.7570  109.9184  110.1413 N   0  0  0  0  0  0  0  0  0  0  0  0
  124.3531  110.3647  108.9787 N   0  0  0  0  0  0  0  0  0  0  0  0
  124.1166  108.1936  108.8438 N   0  0  0  0  0  0  0  0  0  0  0  0
  126.5775  106.4382  108.3135 N   0  0  0  0  0  0  0  0  0  0  0  0
  126.2955  103.7427  109.2535 O   0  0  0  0  0  0  0  0  0  0  0  0
  123.1941  107.9519  110.7784 H   0  0  0  0  0  0  0  0  0  0  0  0
  125.0114  109.3146  107.2319 H   0  0  0  0  0  0  0  0  0  0  0  0
  125.9196  104.3119  106.6605 H   0  0  0  0  0  0  0  0  0  0  0  0
  124.1740  104.4033  106.7432 H   0  0  0  0  0  0  0  0  0  0  0  0
  125.0003  102.8770  107.1425 H   0  0  0  0  0  0  0  0  0  0  0  0
  123.2001  106.2806  108.5067 H   0  0  0  0  0  0  0  0  0  0  0  0
  124.2509  106.8339  107.2289 H   0  0  0  0  0  0  0  0  0  0  0  0
  125.3980  106.1234  109.9746 H   0  0  0  0  0  0  0  0  0  0  0  0
  124.2901  104.0560  109.2279 H   0  0  0  0  0  0  0  0  0  0  0  0
  127.3654  105.8345  108.3331 H   0  0  0  0  0  0  0  0  0  0  0  0
  126.6397  107.4093  108.1164 H   0  0  0  0  0  0  0  0  0  0  0  0
  126.1084  102.7951  109.1839 H   0  0  0  0  0  0  0  0  0  0  0  0
  1  7  2  0  0  0  0
  1  9  1  0  0  0  0
  2  8  2  0  0  0  0
  2  9  1  0  0  0  0
  3  6  1  0  0  0  0
  4  5  1  0  0  0  0
  4  9  1  0  0  0  0
  5  6  1  0  0  0  0
  5 10  1  0  0  0  0
  6 11  1  0  0  0  0
  7  8  1  0  0  0  0
  1 12  1  0  0  0  0
  2 13  1  0  0  0  0
  3 14  1  0  0  0  0
  3 15  1  0  0  0  0
  3 16  1  0  0  0  0
  4 17  1  0  0  0  0
  4 18  1  0  0  0  0
  5 19  1  0  0  0  0
  6 20  1  0  0  0  0
 10 21  1  0  0  0  0
 10 22  1  0  0  0  0
 11 23  1  0  0  0  0
M  END
> <FRED Chemgauss4 score>
-7.682939

$$$$
C83572707	P130735775
  -OEChem-05122015313D

 24 24  0     1  0  0  0  0  0999 V2000
  125.5974  108.4465  108.0002 C   0  0  0  0  0  0  0  0  0  0  0  0
  124.6864  107.5076  109.7675 C   0  0  0  0  0  0  0  0  0  0  0  0
  125.4992  107.2270  108.6965 C   0  0  0  0  0  0  0  0  0  0  0  0
  122.8956  105.1133  106.9276 C   0  0  0  0  0  0  0  0  0  0  0  0
  124.2321  105.0683  106.8912 C   0  0  0  0  0  0  0  0  0  0  0  0
  123.5187  109.5823  110.5490 C   0  0  0  0  0  0  0  0  0  0  0  0
  125.0964  104.7914  108.0894 C   0  0  0  0  0  0  0  0  0  0  0  0
  126.1446  105.8957  108.3430 C   0  0  2  0  0  0  0  0  0  0  0  0
  124.9024  109.4287  108.5799 N   0  0  0  0  0  0  0  0  0  0  0  0
  124.3596  108.8267  109.6519 N   0  0  0  0  0  0  0  0  0  0  0  0
  127.0806  105.4243  109.3514 N   0  0  0  0  0  0  0  0  0  0  0  0
  126.1451  108.6626  107.0938 H   0  0  0  0  0  0  0  0  0  0  0  0
  124.3207  106.8959  110.5811 H   0  0  0  0  0  0  0  0  0  0  0  0
  122.3107  105.3167  106.0376 H   0  0  0  0  0  0  0  0  0  0  0  0
  122.3656  104.9426  107.8582 H   0  0  0  0  0  0  0  0  0  0  0  0
  124.7340  105.2330  105.9414 H   0  0  0  0  0  0  0  0  0  0  0  0
  124.1561  110.0151  111.3246 H   0  0  0  0  0  0  0  0  0  0  0  0
  123.0068  110.3710  109.9907 H   0  0  0  0  0  0  0  0  0  0  0  0
  122.7734  108.9163  110.9928 H   0  0  0  0  0  0  0  0  0  0  0  0
  124.4796  104.6340  108.9841 H   0  0  0  0  0  0  0  0  0  0  0  0
  125.6113  103.8378  107.9111 H   0  0  0  0  0  0  0  0  0  0  0  0
  126.7289  106.0214  107.4215 H   0  0  0  0  0  0  0  0  0  0  0  0
  127.6373  106.0991  109.8353 H   0  0  0  0  0  0  0  0  0  0  0  0
  127.2870  104.4466  109.3877 H   0  0  0  0  0  0  0  0  0  0  0  0
  1  3  1  0  0  0  0
  1  9  2  0  0  0  0
  2  3  2  0  0  0  0
  2 10  1  0  0  0  0
  3  8  1  0  0  0  0
  4  5  2  0  0  0  0
  5  7  1  0  0  0  0
  6 10  1  0  0  0  0
  7  8  1  0  0  0  0
  8 11  1  0  0  0  0
  9 10  1  0  0  0  0
  1 12  1  0  0  0  0
  2 13  1  0  0  0  0
  4 14  1  0  0  0  0
  4 15  1  0  0  0  0
  5 16  1  0  0  0  0
  6 17  1  0  0  0  0
  6 18  1  0  0  0  0
  6 19  1  0  0  0  0
  7 20  1  0  0  0  0
  7 21  1  0  0  0  0
  8 22  1  0  0  0  0
 11 23  1  0  0  0  0
 11 24  1  0  0  0  0
M  END
> <FRED Chemgauss4 score>
-7.680161

$$$$
C26511060	P39122575
  -OEChem-05122015313D

 19 19  0     0  0  0  0  0  0999 V2000
  124.7051  107.7304  110.0072 C   0  0  0  0  0  0  0  0  0  0  0  0
  124.7692  109.2303  107.7810 C   0  0  0  0  0  0  0  0  0  0  0  0
  124.8328  107.1752  108.7503 C   0  0  0  0  0  0  0  0  0  0  0  0
  124.6127  109.1067  110.0453 C   0  0  0  0  0  0  0  0  0  0  0  0
  124.9442  105.6848  108.6069 C   0  0  0  0  0  0  0  0  0  0  0  0
  126.3781  105.1666  108.6511 C   0  0  0  0  0  0  0  0  0  0  0  0
  124.8684  107.8980  107.6116 N   0  0  0  0  0  0  0  0  0  0  0  0
  124.6416  109.8907  108.9477 N   0  0  0  0  0  0  0  0  0  0  0  0
  127.0354  105.5723  109.9180 N   0  3  0  0  0  0  0  0  0  0  0  0
  124.4922  109.7337  111.1523 O   0  5  0  0  0  0  0  0  0  0  0  0
  124.6817  107.1121  110.8985 H   0  0  0  0  0  0  0  0  0  0  0  0
  124.7952  109.8354  106.8830 H   0  0  0  0  0  0  0  0  0  0  0  0
  124.3806  105.2126  109.4227 H   0  0  0  0  0  0  0  0  0  0  0  0
  124.4566  105.3534  107.6809 H   0  0  0  0  0  0  0  0  0  0  0  0
  126.9732  105.6020  107.8429 H   0  0  0  0  0  0  0  0  0  0  0  0
  126.4370  104.0753  108.5971 H   0  0  0  0  0  0  0  0  0  0  0  0
  127.6152  104.8126  110.2899 H   0  0  0  0  0  0  0  0  0  0  0  0
  126.3388  105.8161  110.6302 H   0  0  0  0  0  0  0  0  0  0  0  0
  127.6388  106.3888  109.7729 H   0  0  0  0  0  0  0  0  0  0  0  0
  1  3  1  0  0  0  0
  1  4  2  0  0  0  0
  2  7  1  0  0  0  0
  2  8  2  0  0  0  0
  3  5  1  0  0  0  0
  3  7  2  0  0  0  0
  4  8  1  0  0  0  0
  4 10  1  0  0  0  0
  5  6  1  0  0  0  0
  6  9  1  0  0  0  0
  1 11  1  0  0  0  0
  2 12  1  0  0  0  0
  5 13  1  0  0  0  0
  5 14  1  0  0  0  0
  6 15  1  0  0  0  0
  6 16  1  0  0  0  0
  9 17  1  0  0  0  0
  9 18  1  0  0  0  0
  9 19  1  0  0  0  0
M  CHG  2   9   1  10  -1
M  END
> <FRED Chemgauss4 score>
-7.675187

$$$$
C85374462	P133634517
  -OEChem-05122015313D

 33 33  0     1  0  0  0  0  0999 V2000
  124.4704  106.3939  107.0522 C   0  0  0  0  0  0  0  0  0  0  0  0
  124.8420  107.4577  109.2572 C   0  0  0  0  0  0  0  0  0  0  0  0
  125.0530  109.3085  107.8435 C   0  0  0  0  0  0  0  0  0  0  0  0
  125.5009  106.9887  107.9711 C   0  0  2  0  0  0  0  0  0  0  0  0
  126.0968  108.2812  107.4428 C   0  0  1  0  0  0  0  0  0  0  0  0
  119.6020  103.8125  106.5696 C   0  0  0  0  0  0  0  0  0  0  0  0
  125.0139  104.1814  108.0797 C   0  0  0  0  0  0  0  0  0  0  0  0
  121.9298  104.2445  106.9640 C   0  0  0  0  0  0  0  0  0  0  0  0
  123.3004  104.3098  106.3114 C   0  0  0  0  0  0  0  0  0  0  0  0
  126.4002  108.2946  106.0235 N   0  0  0  0  0  0  0  0  0  0  0  0
  120.9772  103.5321  106.1555 N   0  0  0  0  0  0  0  0  0  0  0  0
  124.2701  105.0160  107.1448 N   0  0  0  0  0  0  0  0  0  0  0  0
  123.8603  107.1318  106.2739 O   0  0  0  0  0  0  0  0  0  0  0  0
  124.4680  108.8336  109.0658 O   0  0  0  0  0  0  0  0  0  0  0  0
  123.9533  106.8832  109.5357 H   0  0  0  0  0  0  0  0  0  0  0  0
  125.5499  107.4272  110.0928 H   0  0  0  0  0  0  0  0  0  0  0  0
  125.4813  110.3026  108.0049 H   0  0  0  0  0  0  0  0  0  0  0  0
  124.2464  109.3978  107.1069 H   0  0  0  0  0  0  0  0  0  0  0  0
  126.2557  106.2176  108.1501 H   0  0  0  0  0  0  0  0  0  0  0  0
  127.0160  108.4850  107.9944 H   0  0  0  0  0  0  0  0  0  0  0  0
  119.4007  104.8848  106.5025 H   0  0  0  0  0  0  0  0  0  0  0  0
  119.4448  103.4889  107.6021 H   0  0  0  0  0  0  0  0  0  0  0  0
  118.8972  103.2810  105.9246 H   0  0  0  0  0  0  0  0  0  0  0  0
  124.4822  104.1192  109.0327 H   0  0  0  0  0  0  0  0  0  0  0  0
  126.0063  104.6046  108.2572 H   0  0  0  0  0  0  0  0  0  0  0  0
  125.1305  103.1723  107.6752 H   0  0  0  0  0  0  0  0  0  0  0  0
  121.5240  105.2455  107.1418 H   0  0  0  0  0  0  0  0  0  0  0  0
  121.9942  103.7194  107.9220 H   0  0  0  0  0  0  0  0  0  0  0  0
  123.6911  103.3005  106.1490 H   0  0  0  0  0  0  0  0  0  0  0  0
  123.2586  104.8252  105.3465 H   0  0  0  0  0  0  0  0  0  0  0  0
  126.7708  107.4636  105.6068 H   0  0  0  0  0  0  0  0  0  0  0  0
  126.4257  109.1758  105.5494 H   0  0  0  0  0  0  0  0  0  0  0  0
  121.1368  102.5214  106.2286 H   0  0  0  0  0  0  0  0  0  0  0  0
  1  4  1  0  0  0  0
  1 12  1  0  0  0  0
  1 13  2  0  0  0  0
  2  4  1  0  0  0  0
  2 14  1  0  0  0  0
  3  5  1  0  0  0  0
  3 14  1  0  0  0  0
  4  5  1  0  0  0  0
  5 10  1  0  0  0  0
  6 11  1  0  0  0  0
  7 12  1  0  0  0  0
  8  9  1  0  0  0  0
  8 11  1  0  0  0  0
  9 12  1  0  0  0  0
  2 15  1  0  0  0  0
  2 16  1  0  0  0  0
  3 17  1  0  0  0  0
  3 18  1  0  0  0  0
  4 19  1  0  0  0  0
  5 20  1  0  0  0  0
  6 21  1  0  0  0  0
  6 22  1  0  0  0  0
  6 23  1  0  0  0  0
  7 24  1  0  0  0  0
  7 25  1  0  0  0  0
  7 26  1  0  0  0  0
  8 27  1  0  0  0  0
  8 28  1  0  0  0  0
  9 29  1  0  0  0  0
  9 30  1  0  0  0  0
 10 31  1  0  0  0  0
 10 32  1  0  0  0  0
 11 33  1  0  0  0  0
M  END
> <FRED Chemgauss4 score>
-7.672142

$$$$
C96551227	P152575900
  -OEChem-05122015313D

 25 25  0     1  0  0  0  0  0999 V2000
  123.6898  109.2123  110.1931 C   0  0  0  0  0  0  0  0  0  0  0  0
  123.7016  107.8375  110.1771 C   0  0  0  0  0  0  0  0  0  0  0  0
  124.6894  108.6729  108.3931 C   0  0  0  0  0  0  0  0  0  0  0  0
  125.4060  108.6918  107.1015 C   0  0  0  0  0  0  0  0  0  0  0  0
  124.6086  106.1466  108.5479 C   0  0  0  0  0  0  0  0  0  0  0  0
  126.0186  104.0733  108.7786 C   0  0  0  0  0  0  0  0  0  0  0  0
  125.7787  105.4923  109.2852 C   0  0  1  0  0  0  0  0  0  0  0  0
  124.3060  109.7262  109.0797 N   0  0  0  0  0  0  0  0  0  0  0  0
  124.3449  107.5066  109.0178 N   0  0  0  0  0  0  0  0  0  0  0  0
  124.6795  108.0213  106.0457 N   0  0  0  0  0  0  0  0  0  0  0  0
  127.1316  103.5193  109.4716 O   0  0  0  0  0  0  0  0  0  0  0  0
  126.9562  106.2643  109.0417 O   0  0  0  0  0  0  0  0  0  0  0  0
  123.2688  109.8582  110.9497 H   0  0  0  0  0  0  0  0  0  0  0  0
  123.3218  107.0949  110.8649 H   0  0  0  0  0  0  0  0  0  0  0  0
  125.5969  109.7222  106.7532 H   0  0  0  0  0  0  0  0  0  0  0  0
  126.3941  108.2035  107.1654 H   0  0  0  0  0  0  0  0  0  0  0  0
  123.6814  105.5786  108.6910 H   0  0  0  0  0  0  0  0  0  0  0  0
  124.8008  106.2050  107.4697 H   0  0  0  0  0  0  0  0  0  0  0  0
  126.2522  104.0693  107.7089 H   0  0  0  0  0  0  0  0  0  0  0  0
  125.1498  103.4348  108.9666 H   0  0  0  0  0  0  0  0  0  0  0  0
  125.6128  105.4856  110.3688 H   0  0  0  0  0  0  0  0  0  0  0  0
  125.1949  107.6235  105.2820 H   0  0  0  0  0  0  0  0  0  0  0  0
  123.6847  108.1430  105.9915 H   0  0  0  0  0  0  0  0  0  0  0  0
  127.2551  102.6210  109.1262 H   0  0  0  0  0  0  0  0  0  0  0  0
  127.0931  106.2574  108.0827 H   0  0  0  0  0  0  0  0  0  0  0  0
  1  2  2  0  0  0  0
  1  8  1  0  0  0  0
  2  9  1  0  0  0  0
  3  4  1  0  0  0  0
  3  8  2  0  0  0  0
  3  9  1  0  0  0  0
  4 10  1  0  0  0  0
  5  7  1  0  0  0  0
  5  9  1  0  0  0  0
  6  7  1  0  0  0  0
  6 11  1  0  0  0  0
  7 12  1  0  0  0  0
  1 13  1  0  0  0  0
  2 14  1  0  0  0  0
  4 15  1  0  0  0  0
  4 16  1  0  0  0  0
  5 17  1  0  0  0  0
  5 18  1  0  0  0  0
  6 19  1  0  0  0  0
  6 20  1  0  0  0  0
  7 21  1  0  0  0  0
 10 22  1  0  0  0  0
 10 23  1  0  0  0  0
 11 24  1  0  0  0  0
 12 25  1  0  0  0  0
M  END
> <FRED Chemgauss4 score>
-7.666156

$$$$
C42920684	P64883579
  -OEChem-05122015313D

 19 19  0     1  0  0  0  0  0999 V2000
  125.6571  108.5921  107.4731 C   0  0  0  0  0  0  0  0  0  0  0  0
  125.0621  107.9583  106.2383 C   0  0  0  0  0  0  0  0  0  0  0  0
  126.6972  106.3911  107.9475 C   0  0  0  0  0  0  0  0  0  0  0  0
  125.4789  105.7435  107.3067 C   0  0  1  0  0  0  0  0  0  0  0  0
  124.3515  105.4978  108.3071 C   0  0  0  0  0  0  0  0  0  0  0  0
  126.4216  107.7733  108.2757 N   0  0  0  0  0  0  0  0  0  0  0  0
  125.0221  106.5805  106.2096 N   0  0  0  0  0  0  0  0  0  0  0  0
  123.9417  106.7333  108.8847 N   0  0  0  0  0  0  0  0  0  0  0  0
  125.4255  109.7759  107.6788 O   0  0  0  0  0  0  0  0  0  0  0  0
  124.6587  108.6997  105.3520 O   0  0  0  0  0  0  0  0  0  0  0  0
  127.0048  105.8731  108.8612 H   0  0  0  0  0  0  0  0  0  0  0  0
  127.5439  106.3947  107.2515 H   0  0  0  0  0  0  0  0  0  0  0  0
  125.7702  104.7809  106.8712 H   0  0  0  0  0  0  0  0  0  0  0  0
  124.7156  104.8408  109.0859 H   0  0  0  0  0  0  0  0  0  0  0  0
  123.5143  105.0487  107.7902 H   0  0  0  0  0  0  0  0  0  0  0  0
  126.8638  108.1756  109.0964 H   0  0  0  0  0  0  0  0  0  0  0  0
  124.6119  106.1285  105.3981 H   0  0  0  0  0  0  0  0  0  0  0  0
  124.6290  107.4551  109.0741 H   0  0  0  0  0  0  0  0  0  0  0  0
  123.0161  106.8186  109.2913 H   0  0  0  0  0  0  0  0  0  0  0  0
  1  2  1  0  0  0  0
  1  6  1  0  0  0  0
  1  9  2  0  0  0  0
  2  7  1  0  0  0  0
  2 10  2  0  0  0  0
  3  4  1  0  0  0  0
  3  6  1  0  0  0  0
  4  5  1  0  0  0  0
  4  7  1  0  0  0  0
  5  8  1  0  0  0  0
  3 11  1  0  0  0  0
  3 12  1  0  0  0  0
  4 13  1  0  0  0  0
  5 14  1  0  0  0  0
  5 15  1  0  0  0  0
  6 16  1  0  0  0  0
  7 17  1  0  0  0  0
  8 18  1  0  0  0  0
  8 19  1  0  0  0  0
M  END
> <FRED Chemgauss4 score>
-7.665431

$$$$
C01737540	P23999360
  -OEChem-05122015313D

 11 11  0     0  0  0  0  0  0999 V2000
  124.2378  106.5171  107.3704 C   0  0  0  0  0  0  0  0  0  0  0  0
  123.7404  107.0165  106.1941 C   0  0  0  0  0  0  0  0  0  0  0  0
  125.9136  108.0272  107.2659 C   0  0  0  0  0  0  0  0  0  0  0  0
  125.3461  107.0154  107.9391 N   0  0  0  0  0  0  0  0  0  0  0  0
  124.3538  108.0341  105.5630 N   0  0  0  0  0  0  0  0  0  0  0  0
  125.4712  108.5577  106.1088 N   0  0  0  0  0  0  0  0  0  0  0  0
  127.0832  108.5897  107.8193 N   0  0  0  0  0  0  0  0  0  0  0  0
  123.7589  105.6985  107.8931 H   0  0  0  0  0  0  0  0  0  0  0  0
  122.8481  106.6241  105.7252 H   0  0  0  0  0  0  0  0  0  0  0  0
  127.4154  108.2543  108.7006 H   0  0  0  0  0  0  0  0  0  0  0  0
  127.5058  109.3759  107.3691 H   0  0  0  0  0  0  0  0  0  0  0  0
  1  2  1  0  0  0  0
  1  4  2  0  0  0  0
  2  5  2  0  0  0  0
  3  4  1  0  0  0  0
  3  6  2  0  0  0  0
  3  7  1  0  0  0  0
  5  6  1  0  0  0  0
  1  8  1  0  0  0  0
  2  9  1  0  0  0  0
  7 10  1  0  0  0  0
  7 11  1  0  0  0  0
M  END
> <FRED Chemgauss4 score>
-7.665187

$$$$
C39113384	P151023224
  -OEChem-05122015313D

 15 16  0     0  0  0  0  0  0999 V2000
  123.8700  105.2187  107.3220 C   0  0  0  0  0  0  0  0  0  0  0  0
  123.7179  106.4117  107.9728 C   0  0  0  0  0  0  0  0  0  0  0  0
  122.8259  106.1717  109.0204 C   0  0  0  0  0  0  0  0  0  0  0  0
  123.9498  108.7109  108.5551 C   0  0  0  0  0  0  0  0  0  0  0  0
  122.9749  108.4664  109.7073 C   0  0  0  0  0  0  0  0  0  0  0  0
  122.4189  104.9006  109.0540 N   0  0  0  0  0  0  0  0  0  0  0  0
  123.0704  104.3459  108.0092 N   0  0  0  0  0  0  0  0  0  0  0  0
  124.2723  107.6413  107.7346 N   0  0  0  0  0  0  0  0  0  0  0  0
  122.4617  107.1888  109.8745 N   0  0  0  0  0  0  0  0  0  0  0  0
  124.3922  109.8463  108.4226 O   0  0  0  0  0  0  0  0  0  0  0  0
  122.7001  109.4229  110.4233 O   0  0  0  0  0  0  0  0  0  0  0  0
  124.4492  104.9088  106.4640 H   0  0  0  0  0  0  0  0  0  0  0  0
  122.9232  103.3621  107.8215 H   0  0  0  0  0  0  0  0  0  0  0  0
  124.9164  107.7687  106.9608 H   0  0  0  0  0  0  0  0  0  0  0  0
  121.8116  106.9802  110.6250 H   0  0  0  0  0  0  0  0  0  0  0  0
  1  2  2  0  0  0  0
  1  7  1  0  0  0  0
  2  3  1  0  0  0  0
  2  8  1  0  0  0  0
  3  6  2  0  0  0  0
  3  9  1  0  0  0  0
  4  5  1  0  0  0  0
  4  8  1  0  0  0  0
  4 10  2  0  0  0  0
  5  9  1  0  0  0  0
  5 11  2  0  0  0  0
  6  7  1  0  0  0  0
  1 12  1  0  0  0  0
  7 13  1  0  0  0  0
  8 14  1  0  0  0  0
  9 15  1  0  0  0  0
M  END
> <FRED Chemgauss4 score>
-7.659316

$$$$
C13544507	P20855322
  -OEChem-05122015313D

 17 17  0     0  0  0  0  0  0999 V2000
  125.2484  104.6646  108.5957 C   0  0  0  0  0  0  0  0  0  0  0  0
  125.4050  106.4475  107.4437 C   0  0  0  0  0  0  0  0  0  0  0  0
  124.3627  105.7424  106.8897 C   0  0  0  0  0  0  0  0  0  0  0  0
  122.1900  105.5886  105.6532 C   0  0  0  0  0  0  0  0  0  0  0  0
  125.8990  107.7211  107.0129 C   0  0  0  0  0  0  0  0  0  0  0  0
  125.9524  105.7711  108.5050 N   0  0  0  0  0  0  0  0  0  0  0  0
  124.2746  104.6024  107.6381 N   0  0  0  0  0  0  0  0  0  0  0  0
  126.9778  108.2898  107.7051 N   0  0  0  0  0  0  0  0  0  0  0  0
  123.5254  105.9990  105.8410 N   0  0  0  0  0  0  0  0  0  0  0  0
  121.4440  105.8208  104.7123 O   0  0  0  0  0  0  0  0  0  0  0  0
  125.3893  108.3476  106.0521 O   0  0  0  0  0  0  0  0  0  0  0  0
  125.3908  103.8770  109.3218 H   0  0  0  0  0  0  0  0  0  0  0  0
  121.8391  104.9822  106.5059 H   0  0  0  0  0  0  0  0  0  0  0  0
  123.6114  103.8506  107.5064 H   0  0  0  0  0  0  0  0  0  0  0  0
  127.3773  107.7854  108.4890 H   0  0  0  0  0  0  0  0  0  0  0  0
  127.3724  109.1889  107.4484 H   0  0  0  0  0  0  0  0  0  0  0  0
  123.8844  106.5726  105.0524 H   0  0  0  0  0  0  0  0  0  0  0  0
  1  6  2  0  0  0  0
  1  7  1  0  0  0  0
  2  3  2  0  0  0  0
  2  5  1  0  0  0  0
  2  6  1  0  0  0  0
  3  7  1  0  0  0  0
  3  9  1  0  0  0  0
  4  9  1  0  0  0  0
  4 10  2  0  0  0  0
  5  8  1  0  0  0  0
  5 11  2  0  0  0  0
  1 12  1  0  0  0  0
  4 13  1  0  0  0  0
  7 14  1  0  0  0  0
  8 15  1  0  0  0  0
  8 16  1  0  0  0  0
  9 17  1  0  0  0  0
M  END
> <FRED Chemgauss4 score>
-7.656746

$$$$
C01762927	P05459972
  -OEChem-05122015313D

 26 26  0     1  0  0  0  0  0999 V2000
  123.4116  106.6759  107.7064 C   0  0  0  0  0  0  0  0  0  0  0  0
  124.4242  105.8241  107.5821 C   0  0  0  0  0  0  0  0  0  0  0  0
  123.7402  107.5691  108.8193 C   0  0  0  0  0  0  0  0  0  0  0  0
  125.4820  106.0796  108.5796 C   0  0  1  0  0  0  0  0  0  0  0  0
  122.1894  105.7520  105.9656 C   0  0  0  0  0  0  0  0  0  0  0  0
  124.6378  103.5336  107.2894 C   0  0  0  0  0  0  0  0  0  0  0  0
  126.7100  107.7992  107.2137 C   0  0  0  0  0  0  0  0  0  0  0  0
  126.8173  106.4839  107.9751 C   0  0  1  0  0  0  0  0  0  0  0  0
  123.0463  108.4839  109.2270 O   0  0  0  0  0  0  0  0  0  0  0  0
  124.9556  107.1952  109.3269 O   0  0  0  0  0  0  0  0  0  0  0  0
  126.3144  108.8260  108.1170 O   0  0  0  0  0  0  0  0  0  0  0  0
  127.7684  106.6519  109.0256 O   0  0  0  0  0  0  0  0  0  0  0  0
  122.2687  106.7395  106.9770 O   0  0  0  0  0  0  0  0  0  0  0  0
  124.5116  104.8033  106.6819 O   0  0  0  0  0  0  0  0  0  0  0  0
  125.6023  105.2340  109.2646 H   0  0  0  0  0  0  0  0  0  0  0  0
  121.2485  105.8619  105.4209 H   0  0  0  0  0  0  0  0  0  0  0  0
  122.2464  104.7593  106.4192 H   0  0  0  0  0  0  0  0  0  0  0  0
  123.0253  105.8832  105.2744 H   0  0  0  0  0  0  0  0  0  0  0  0
  124.7027  102.7638  106.5165 H   0  0  0  0  0  0  0  0  0  0  0  0
  123.7731  103.3483  107.9315 H   0  0  0  0  0  0  0  0  0  0  0  0
  125.5480  103.5176  107.8937 H   0  0  0  0  0  0  0  0  0  0  0  0
  127.6739  108.0860  106.7804 H   0  0  0  0  0  0  0  0  0  0  0  0
  125.9576  107.7355  106.4214 H   0  0  0  0  0  0  0  0  0  0  0  0
  127.1948  105.6952  107.3144 H   0  0  0  0  0  0  0  0  0  0  0  0
  126.2569  109.6445  107.5992 H   0  0  0  0  0  0  0  0  0  0  0  0
  128.6020  106.9080  108.6026 H   0  0  0  0  0  0  0  0  0  0  0  0
  1  2  2  0  0  0  0
  1  3  1  0  0  0  0
  1 13  1  0  0  0  0
  2  4  1  0  0  0  0
  2 14  1  0  0  0  0
  3  9  2  0  0  0  0
  3 10  1  0  0  0  0
  4  8  1  0  0  0  0
  4 10  1  0  0  0  0
  5 13  1  0  0  0  0
  6 14  1  0  0  0  0
  7  8  1  0  0  0  0
  7 11  1  0  0  0  0
  8 12  1  0  0  0  0
  4 15  1  0  0  0  0
  5 16  1  0  0  0  0
  5 17  1  0  0  0  0
  5 18  1  0  0  0  0
  6 19  1  0  0  0  0
  6 20  1  0  0  0  0
  6 21  1  0  0  0  0
  7 22  1  0  0  0  0
  7 23  1  0  0  0  0
  8 24  1  0  0  0  0
 11 25  1  0  0  0  0
 12 26  1  0  0  0  0
M  END
> <FRED Chemgauss4 score>
-7.654094

$$$$
C19202003	P141423228
  -OEChem-05122015313D

 18 19  0     1  0  0  0  0  0999 V2000
  124.3150  106.5625  107.3784 C   0  0  0  0  0  0  0  0  0  0  0  0
  124.3614  108.9803  108.6985 C   0  0  0  0  0  0  0  0  0  0  0  0
  123.5646  107.9469  108.9954 C   0  0  0  0  0  0  0  0  0  0  0  0
  125.3070  108.9061  107.5900 C   0  0  0  0  0  0  0  0  0  0  0  0
  123.1256  109.6340  110.4490 C   0  0  0  0  0  0  0  0  0  0  0  0
  125.3162  107.5793  106.8620 C   0  0  2  0  0  0  0  0  0  0  0  0
  123.4975  106.7363  108.3757 N   0  0  0  0  0  0  0  0  0  0  0  0
  124.1384  110.0284  109.5438 N   0  0  0  0  0  0  0  0  0  0  0  0
  122.7863  108.3105  110.0718 N   0  0  0  0  0  0  0  0  0  0  0  0
  124.9733  107.8398  105.4691 N   0  0  0  0  0  0  0  0  0  0  0  0
  126.0253  109.8530  107.2891 O   0  0  0  0  0  0  0  0  0  0  0  0
  122.4767  110.5240  111.6815 S   0  0  0  0  0  0  0  0  0  0  0  0
  124.2948  105.5839  106.8676 H   0  0  0  0  0  0  0  0  0  0  0  0
  126.3150  107.1375  106.9403 H   0  0  0  0  0  0  0  0  0  0  0  0
  124.6181  110.9193  109.5150 H   0  0  0  0  0  0  0  0  0  0  0  0
  122.0921  107.7156  110.5067 H   0  0  0  0  0  0  0  0  0  0  0  0
  124.6052  107.0880  104.9256 H   0  0  0  0  0  0  0  0  0  0  0  0
  125.3018  108.6856  105.0531 H   0  0  0  0  0  0  0  0  0  0  0  0
  1  6  1  0  0  0  0
  1  7  2  0  0  0  0
  2  3  2  0  0  0  0
  2  4  1  0  0  0  0
  2  8  1  0  0  0  0
  3  7  1  0  0  0  0
  3  9  1  0  0  0  0
  4  6  1  0  0  0  0
  4 11  2  0  0  0  0
  5  8  1  0  0  0  0
  5  9  1  0  0  0  0
  5 12  2  0  0  0  0
  6 10  1  0  0  0  0
  1 13  1  0  0  0  0
  6 14  1  0  0  0  0
  8 15  1  0  0  0  0
  9 16  1  0  0  0  0
 10 17  1  0  0  0  0
 10 18  1  0  0  0  0
M  END
> <FRED Chemgauss4 score>
-7.653782

$$$$
C26899001	P39653911
  -OEChem-05122015313D

 16 16  0     0  0  0  0  0  0999 V2000
  124.1152  107.2012  108.7631 C   0  0  0  0  0  0  0  0  0  0  0  0
  126.0455  107.9550  107.6851 C   0  0  0  0  0  0  0  0  0  0  0  0
  124.0628  109.0349  107.4207 C   0  0  0  0  0  0  0  0  0  0  0  0
  125.4639  107.0291  108.5269 C   0  0  0  0  0  0  0  0  0  0  0  0
  126.2162  105.9551  109.1226 C   0  0  0  0  0  0  0  0  0  0  0  0
  123.3810  108.1967  108.2245 N   0  0  0  0  0  0  0  0  0  0  0  0
  125.3723  108.9743  107.1122 N   0  0  0  0  0  0  0  0  0  0  0  0
  127.2672  106.2367  109.9263 N   0  0  0  0  0  0  0  0  0  0  0  0
  125.8677  104.6737  108.8725 N   0  3  0  0  0  0  0  0  0  0  0  0
  128.0776  105.2758  110.5872 O   0  5  0  0  0  0  0  0  0  0  0  0
  123.5641  106.5269  109.4111 H   0  0  0  0  0  0  0  0  0  0  0  0
  127.1007  107.9076  107.4349 H   0  0  0  0  0  0  0  0  0  0  0  0
  123.4976  109.8435  106.9738 H   0  0  0  0  0  0  0  0  0  0  0  0
  127.5284  107.1987  110.1118 H   0  0  0  0  0  0  0  0  0  0  0  0
  125.0807  104.4444  108.2754 H   0  0  0  0  0  0  0  0  0  0  0  0
  126.3879  103.9106  109.2909 H   0  0  0  0  0  0  0  0  0  0  0  0
  1  4  1  0  0  0  0
  1  6  2  0  0  0  0
  2  4  2  0  0  0  0
  2  7  1  0  0  0  0
  3  6  1  0  0  0  0
  3  7  2  0  0  0  0
  4  5  1  0  0  0  0
  5  8  1  0  0  0  0
  5  9  2  0  0  0  0
  8 10  1  0  0  0  0
  1 11  1  0  0  0  0
  2 12  1  0  0  0  0
  3 13  1  0  0  0  0
  8 14  1  0  0  0  0
  9 15  1  0  0  0  0
  9 16  1  0  0  0  0
M  CHG  2   9   1  10  -1
M  END
> <FRED Chemgauss4 score>
-7.653120

$$$$
C41052378	P62314790
  -OEChem-05122015313D

 28 29  0     1  0  0  0  0  0999 V2000
  123.0118  108.6837  111.4939 C   0  0  0  0  0  0  0  0  0  0  0  0
  123.9166  110.6623  111.1750 C   0  0  0  0  0  0  0  0  0  0  0  0
  123.6894  109.4660  110.5396 C   0  0  0  0  0  0  0  0  0  0  0  0
  124.0865  109.1218  109.1586 C   0  0  0  0  0  0  0  0  0  0  0  0
  124.3779  108.1168  107.3740 C   0  0  0  0  0  0  0  0  0  0  0  0
  126.5453  106.0132  107.1304 C   0  0  0  0  0  0  0  0  0  0  0  0
  123.3752  111.5286  113.4636 C   0  0  0  0  0  0  0  0  0  0  0  0
  125.0772  105.7543  106.8145 C   0  0  0  0  0  0  0  0  0  0  0  0
  124.3461  107.0182  106.3308 C   0  0  1  0  0  0  0  0  0  0  0  0
  122.8211  109.3287  112.6479 N   0  0  0  0  0  0  0  0  0  0  0  0
  123.8356  107.9572  108.6160 N   0  0  0  0  0  0  0  0  0  0  0  0
  124.9405  109.3049  107.1341 N   0  0  0  0  0  0  0  0  0  0  0  0
  123.3824  110.5289  112.4228 N   0  0  0  0  0  0  0  0  0  0  0  0
  122.9845  106.7295  105.9390 N   0  0  0  0  0  0  0  0  0  0  0  0
  124.7437  109.9863  108.3418 O   0  0  0  0  0  0  0  0  0  0  0  0
  122.6470  107.6703  111.4001 H   0  0  0  0  0  0  0  0  0  0  0  0
  124.4006  111.5757  110.8560 H   0  0  0  0  0  0  0  0  0  0  0  0
  126.6516  106.8038  107.8800 H   0  0  0  0  0  0  0  0  0  0  0  0
  127.0101  105.1054  107.5280 H   0  0  0  0  0  0  0  0  0  0  0  0
  127.1003  106.3094  106.2349 H   0  0  0  0  0  0  0  0  0  0  0  0
  122.4631  112.1215  113.3555 H   0  0  0  0  0  0  0  0  0  0  0  0
  123.3983  111.0374  114.4404 H   0  0  0  0  0  0  0  0  0  0  0  0
  124.2596  112.1635  113.3610 H   0  0  0  0  0  0  0  0  0  0  0  0
  125.0162  104.9581  106.0619 H   0  0  0  0  0  0  0  0  0  0  0  0
  124.5919  105.3712  107.7213 H   0  0  0  0  0  0  0  0  0  0  0  0
  124.8397  107.3771  105.4190 H   0  0  0  0  0  0  0  0  0  0  0  0
  122.7813  105.8430  105.5142 H   0  0  0  0  0  0  0  0  0  0  0  0
  122.3202  107.4815  105.9095 H   0  0  0  0  0  0  0  0  0  0  0  0
  1  3  1  0  0  0  0
  1 10  2  0  0  0  0
  2  3  2  0  0  0  0
  2 13  1  0  0  0  0
  3  4  1  0  0  0  0
  4 11  2  0  0  0  0
  4 15  1  0  0  0  0
  5  9  1  0  0  0  0
  5 11  1  0  0  0  0
  5 12  2  0  0  0  0
  6  8  1  0  0  0  0
  7 13  1  0  0  0  0
  8  9  1  0  0  0  0
  9 14  1  0  0  0  0
 10 13  1  0  0  0  0
 12 15  1  0  0  0  0
  1 16  1  0  0  0  0
  2 17  1  0  0  0  0
  6 18  1  0  0  0  0
  6 19  1  0  0  0  0
  6 20  1  0  0  0  0
  7 21  1  0  0  0  0
  7 22  1  0  0  0  0
  7 23  1  0  0  0  0
  8 24  1  0  0  0  0
  8 25  1  0  0  0  0
  9 26  1  0  0  0  0
 14 27  1  0  0  0  0
 14 28  1  0  0  0  0
M  END
> <FRED Chemgauss4 score>
-7.649690

$$$$
AOC	P10000032
  -OEChem-05122015313D

 15 15  0     0  0  0  0  0  0999 V2000
  124.8570  107.6673  106.6721 C   0  0  0  0  0  0  0  0  0  0  0  0
  124.8791  108.5938  109.0561 C   0  0  0  0  0  0  0  0  0  0  0  0
  125.6479  106.6853  108.8984 C   0  0  0  0  0  0  0  0  0  0  0  0
  125.6242  107.8716  107.9284 C   0  0  0  0  0  0  0  0  0  0  0  0
  126.9674  108.4325  107.6918 N   0  3  0  0  0  0  0  0  0  0  0  0
  124.2019  106.5902  106.6097 O   0  5  0  0  0  0  0  0  0  0  0  0
  124.9623  108.6020  105.8293 O   0  0  0  0  0  0  0  0  0  0  0  0
  124.7708  107.3711  109.8245 O   0  0  0  0  0  0  0  0  0  0  0  0
  125.4481  109.3520  109.6045 H   0  0  0  0  0  0  0  0  0  0  0  0
  123.8935  108.9994  108.8065 H   0  0  0  0  0  0  0  0  0  0  0  0
  125.2011  105.7534  108.5377 H   0  0  0  0  0  0  0  0  0  0  0  0
  126.6130  106.4612  109.3648 H   0  0  0  0  0  0  0  0  0  0  0  0
  127.2681  108.2897  106.7184 H   0  0  0  0  0  0  0  0  0  0  0  0
  127.6706  107.9916  108.3000 H   0  0  0  0  0  0  0  0  0  0  0  0
  126.9899  109.4443  107.8767 H   0  0  0  0  0  0  0  0  0  0  0  0
  1  4  1  0  0  0  0
  1  6  1  0  0  0  0
  1  7  2  0  0  0  0
  2  4  1  0  0  0  0
  2  8  1  0  0  0  0
  3  4  1  0  0  0  0
  3  8  1  0  0  0  0
  4  5  1  0  0  0  0
  2  9  1  0  0  0  0
  2 10  1  0  0  0  0
  3 11  1  0  0  0  0
  3 12  1  0  0  0  0
  5 13  1  0  0  0  0
  5 14  1  0  0  0  0
  5 15  1  0  0  0  0
M  CHG  2   5   1   6  -1
M  END
> <FRED Chemgauss4 score>
-7.649233

$$$$
C39941431	P60608793
  -OEChem-05122015313D

 22 23  0     1  0  0  0  0  0999 V2000
  124.3839  104.8794  107.8567 C   0  0  0  0  0  0  0  0  0  0  0  0
  123.4360  105.7282  108.4329 C   0  0  0  0  0  0  0  0  0  0  0  0
  125.6354  105.3715  107.4583 C   0  0  0  0  0  0  0  0  0  0  0  0
  123.7648  107.0636  108.6163 C   0  0  0  0  0  0  0  0  0  0  0  0
  125.0129  107.5522  108.2115 C   0  0  0  0  0  0  0  0  0  0  0  0
  125.9551  106.7195  107.6288 C   0  0  0  0  0  0  0  0  0  0  0  0
  125.1269  109.0227  108.4532 C   0  0  0  0  0  0  0  0  0  0  0  0
  122.9103  108.1688  109.1661 C   0  0  2  0  0  0  0  0  0  0  0  0
  123.9648  109.2698  109.4330 C   0  0  2  0  0  0  0  0  0  0  0  0
  122.2073  107.8232  110.3950 N   0  0  0  0  0  0  0  0  0  0  0  0
  123.4106  110.5611  109.2288 O   0  0  0  0  0  0  0  0  0  0  0  0
  127.1450  107.1919  107.2371 F   0  0  0  0  0  0  0  0  0  0  0  0
  124.1516  103.8270  107.7184 H   0  0  0  0  0  0  0  0  0  0  0  0
  122.4644  105.3453  108.7304 H   0  0  0  0  0  0  0  0  0  0  0  0
  126.3627  104.6964  107.0164 H   0  0  0  0  0  0  0  0  0  0  0  0
  126.0944  109.2412  108.9220 H   0  0  0  0  0  0  0  0  0  0  0  0
  125.0155  109.5945  107.5241 H   0  0  0  0  0  0  0  0  0  0  0  0
  122.1830  108.5134  108.3948 H   0  0  0  0  0  0  0  0  0  0  0  0
  124.3329  109.2537  110.4827 H   0  0  0  0  0  0  0  0  0  0  0  0
  121.8010  106.9146  110.4654 H   0  0  0  0  0  0  0  0  0  0  0  0
  121.9807  108.5584  111.0304 H   0  0  0  0  0  0  0  0  0  0  0  0
  124.1285  111.1915  109.3852 H   0  0  0  0  0  0  0  0  0  0  0  0
  1  2  1  0  0  0  0
  1  3  2  0  0  0  0
  2  4  2  0  0  0  0
  3  6  1  0  0  0  0
  4  5  1  0  0  0  0
  4  8  1  0  0  0  0
  5  6  2  0  0  0  0
  5  7  1  0  0  0  0
  6 12  1  0  0  0  0
  7  9  1  0  0  0  0
  8  9  1  0  0  0  0
  8 10  1  0  0  0  0
  9 11  1  0  0  0  0
  1 13  1  0  0  0  0
  2 14  1  0  0  0  0
  3 15  1  0  0  0  0
  7 16  1  0  0  0  0
  7 17  1  0  0  0  0
  8 18  1  0  0  0  0
  9 19  1  0  0  0  0
 10 20  1  0  0  0  0
 10 21  1  0  0  0  0
 11 22  1  0  0  0  0
M  END
> <FRED Chemgauss4 score>
-7.644332

$$$$
C85467239	P133776201
  -OEChem-05122015313D

 31 32  0     1  0  0  0  0  0999 V2000
  120.5465  105.7392  106.9021 C   0  0  0  0  0  0  0  0  0  0  0  0
  121.1537  106.3642  104.8026 C   0  0  0  0  0  0  0  0  0  0  0  0
  121.3924  106.6767  107.4588 C   0  0  0  0  0  0  0  0  0  0  0  0
  122.1077  107.4429  106.5613 C   0  0  0  0  0  0  0  0  0  0  0  0
  126.2037  107.6749  107.6218 C   0  0  0  0  0  0  0  0  0  0  0  0
  125.2090  108.7720  108.0566 C   0  0  2  0  0  0  0  0  0  0  0  0
  124.3844  108.4362  106.7964 C   0  0  1  0  0  0  0  0  0  0  0  0
  125.0389  107.0299  106.8260 C   0  0  2  0  0  0  0  0  0  0  0  0
  124.2495  103.6964  108.1821 C   0  0  0  0  0  0  0  0  0  0  0  0
  125.0337  104.7637  107.4490 C   0  0  0  0  0  0  0  0  0  0  0  0
  120.4019  105.5553  105.5733 N   0  0  0  0  0  0  0  0  0  0  0  0
  122.0127  107.3129  105.2218 N   0  0  0  0  0  0  0  0  0  0  0  0
  125.8377  110.0748  107.8835 N   0  0  0  0  0  0  0  0  0  0  0  0
  122.9861  108.4146  107.0505 N   0  0  0  0  0  0  0  0  0  0  0  0
  124.3232  105.9841  107.5147 O   0  0  0  0  0  0  0  0  0  0  0  0
  121.5135  106.8454  109.3328 Br  0  0  0  0  0  0  0  0  0  0  0  0
  119.9365  105.0827  107.5151 H   0  0  0  0  0  0  0  0  0  0  0  0
  121.0574  106.2383  103.7312 H   0  0  0  0  0  0  0  0  0  0  0  0
  127.0343  107.9945  106.9800 H   0  0  0  0  0  0  0  0  0  0  0  0
  126.6078  107.0692  108.4385 H   0  0  0  0  0  0  0  0  0  0  0  0
  124.7260  108.6012  109.0243 H   0  0  0  0  0  0  0  0  0  0  0  0
  124.6218  109.0064  105.8912 H   0  0  0  0  0  0  0  0  0  0  0  0
  125.3425  106.6720  105.8353 H   0  0  0  0  0  0  0  0  0  0  0  0
  124.1137  103.9649  109.2335 H   0  0  0  0  0  0  0  0  0  0  0  0
  123.2653  103.5566  107.7230 H   0  0  0  0  0  0  0  0  0  0  0  0
  124.7659  102.7323  108.1277 H   0  0  0  0  0  0  0  0  0  0  0  0
  125.1660  104.4891  106.3982 H   0  0  0  0  0  0  0  0  0  0  0  0
  126.0164  104.9027  107.9095 H   0  0  0  0  0  0  0  0  0  0  0  0
  126.7615  110.2046  108.2397 H   0  0  0  0  0  0  0  0  0  0  0  0
  125.2638  110.8429  107.6048 H   0  0  0  0  0  0  0  0  0  0  0  0
  122.5722  109.1510  107.6303 H   0  0  0  0  0  0  0  0  0  0  0  0
  1  3  2  0  0  0  0
  1 11  1  0  0  0  0
  2 11  2  0  0  0  0
  2 12  1  0  0  0  0
  3  4  1  0  0  0  0
  3 16  1  0  0  0  0
  4 12  2  0  0  0  0
  4 14  1  0  0  0  0
  5  6  1  0  0  0  0
  5  8  1  0  0  0  0
  6  7  1  0  0  0  0
  6 13  1  0  0  0  0
  7  8  1  0  0  0  0
  7 14  1  0  0  0  0
  8 15  1  0  0  0  0
  9 10  1  0  0  0  0
 10 15  1  0  0  0  0
  1 17  1  0  0  0  0
  2 18  1  0  0  0  0
  5 19  1  0  0  0  0
  5 20  1  0  0  0  0
  6 21  1  0  0  0  0
  7 22  1  0  0  0  0
  8 23  1  0  0  0  0
  9 24  1  0  0  0  0
  9 25  1  0  0  0  0
  9 26  1  0  0  0  0
 10 27  1  0  0  0  0
 10 28  1  0  0  0  0
 13 29  1  0  0  0  0
 13 30  1  0  0  0  0
 14 31  1  0  0  0  0
M  END
> <FRED Chemgauss4 score>
-7.643483

$$$$
C51356228	P76951199
  -OEChem-05122015313D

 27 27  0     1  0  0  0  0  0999 V2000
  127.1132  107.0341  107.5697 C   0  0  0  0  0  0  0  0  0  0  0  0
  125.2272  106.2308  106.4415 C   0  0  0  0  0  0  0  0  0  0  0  0
  126.0404  108.1123  107.6465 C   0  0  1  0  0  0  0  0  0  0  0  0
  125.1404  107.7443  106.4836 C   0  0  1  0  0  0  0  0  0  0  0  0
  123.8506  109.1773  110.5323 C   0  0  0  0  0  0  0  0  0  0  0  0
  123.1376  110.4778  110.8967 C   0  0  0  0  0  0  0  0  0  0  0  0
  124.6329  109.2491  109.2228 C   0  0  0  0  0  0  0  0  0  0  0  0
  124.0490  111.5738  111.0813 N   0  0  0  0  0  0  0  0  0  0  0  0
  125.3201  108.0049  108.9138 N   0  0  0  0  0  0  0  0  0  0  0  0
  126.5230  105.8790  106.9539 O   0  0  0  0  0  0  0  0  0  0  0  0
  125.6593  108.2948  105.2745 O   0  0  0  0  0  0  0  0  0  0  0  0
  127.9395  107.3583  106.9269 H   0  0  0  0  0  0  0  0  0  0  0  0
  127.5369  106.7559  108.5403 H   0  0  0  0  0  0  0  0  0  0  0  0
  124.4818  105.7679  107.0962 H   0  0  0  0  0  0  0  0  0  0  0  0
  125.1250  105.8182  105.4336 H   0  0  0  0  0  0  0  0  0  0  0  0
  126.4762  109.1061  107.5673 H   0  0  0  0  0  0  0  0  0  0  0  0
  124.0994  108.0984  106.5847 H   0  0  0  0  0  0  0  0  0  0  0  0
  123.1041  108.3763  110.4651 H   0  0  0  0  0  0  0  0  0  0  0  0
  124.5428  108.9055  111.3386 H   0  0  0  0  0  0  0  0  0  0  0  0
  122.4160  110.7687  110.1272 H   0  0  0  0  0  0  0  0  0  0  0  0
  122.5951  110.3538  111.8393 H   0  0  0  0  0  0  0  0  0  0  0  0
  125.3998  110.0273  109.2893 H   0  0  0  0  0  0  0  0  0  0  0  0
  123.9799  109.4893  108.3781 H   0  0  0  0  0  0  0  0  0  0  0  0
  123.7874  112.3343  111.6889 H   0  0  0  0  0  0  0  0  0  0  0  0
  124.8342  111.6713  110.4567 H   0  0  0  0  0  0  0  0  0  0  0  0
  125.9852  107.7916  109.6541 H   0  0  0  0  0  0  0  0  0  0  0  0
  125.5801  109.2577  105.3544 H   0  0  0  0  0  0  0  0  0  0  0  0
  1  3  1  0  0  0  0
  1 10  1  0  0  0  0
  2  4  1  0  0  0  0
  2 10  1  0  0  0  0
  3  4  1  0  0  0  0
  3  9  1  0  0  0  0
  4 11  1  0  0  0  0
  5  6  1  0  0  0  0
  5  7  1  0  0  0  0
  6  8  1  0  0  0  0
  7  9  1  0  0  0  0
  1 12  1  0  0  0  0
  1 13  1  0  0  0  0
  2 14  1  0  0  0  0
  2 15  1  0  0  0  0
  3 16  1  0  0  0  0
  4 17  1  0  0  0  0
  5 18  1  0  0  0  0
  5 19  1  0  0  0  0
  6 20  1  0  0  0  0
  6 21  1  0  0  0  0
  7 22  1  0  0  0  0
  7 23  1  0  0  0  0
  8 24  1  0  0  0  0
  8 25  1  0  0  0  0
  9 26  1  0  0  0  0
 11 27  1  0  0  0  0
M  END
> <FRED Chemgauss4 score>
-7.641135

$$$$
C85189699	P133308478
  -OEChem-05122015313D

 25 26  0     1  0  0  0  0  0999 V2000
  123.3022  108.1293  106.5024 C   0  0  0  0  0  0  0  0  0  0  0  0
  123.1101  106.0420  106.1326 C   0  0  0  0  0  0  0  0  0  0  0  0
  124.4824  107.5698  106.9320 C   0  0  0  0  0  0  0  0  0  0  0  0
  124.9068  103.7239  107.1920 C   0  0  0  0  0  0  0  0  0  0  0  0
  125.4296  104.5189  108.3471 C   0  0  0  0  0  0  0  0  0  0  0  0
  125.3577  105.1496  106.9762 C   0  0  0  0  0  0  0  0  0  0  0  0
  125.3916  108.9580  108.8269 C   0  0  0  0  0  0  0  0  0  0  0  0
  125.7188  108.1840  107.5474 C   0  0  2  0  0  0  0  0  0  0  0  0
  122.4521  107.1729  106.0061 N   0  0  0  0  0  0  0  0  0  0  0  0
  124.3444  106.2322  106.6891 N   0  0  0  0  0  0  0  0  0  0  0  0
  124.4620  110.0243  108.5290 N   0  0  0  0  0  0  0  0  0  0  0  0
  126.3111  109.0615  106.5892 O   0  0  0  0  0  0  0  0  0  0  0  0
  123.0190  109.1718  106.5245 H   0  0  0  0  0  0  0  0  0  0  0  0
  122.7468  105.0649  105.8441 H   0  0  0  0  0  0  0  0  0  0  0  0
  125.5329  102.9324  106.7987 H   0  0  0  0  0  0  0  0  0  0  0  0
  123.8452  103.5093  107.1685 H   0  0  0  0  0  0  0  0  0  0  0  0
  124.7201  104.8384  109.1007 H   0  0  0  0  0  0  0  0  0  0  0  0
  126.4095  104.2651  108.7327 H   0  0  0  0  0  0  0  0  0  0  0  0
  126.2690  105.3206  106.4456 H   0  0  0  0  0  0  0  0  0  0  0  0
  126.2972  109.3965  109.2601 H   0  0  0  0  0  0  0  0  0  0  0  0
  124.9383  108.3037  109.5796 H   0  0  0  0  0  0  0  0  0  0  0  0
  126.4566  107.3994  107.7561 H   0  0  0  0  0  0  0  0  0  0  0  0
  124.5631  110.5273  107.6661 H   0  0  0  0  0  0  0  0  0  0  0  0
  123.8736  110.3725  109.2643 H   0  0  0  0  0  0  0  0  0  0  0  0
  126.5316  108.5165  105.8189 H   0  0  0  0  0  0  0  0  0  0  0  0
  1  3  2  0  0  0  0
  1  9  1  0  0  0  0
  2  9  2  0  0  0  0
  2 10  1  0  0  0  0
  3  8  1  0  0  0  0
  3 10  1  0  0  0  0
  4  5  1  0  0  0  0
  4  6  1  0  0  0  0
  5  6  1  0  0  0  0
  6 10  1  0  0  0  0
  7  8  1  0  0  0  0
  7 11  1  0  0  0  0
  8 12  1  0  0  0  0
  1 13  1  0  0  0  0
  2 14  1  0  0  0  0
  4 15  1  0  0  0  0
  4 16  1  0  0  0  0
  5 17  1  0  0  0  0
  5 18  1  0  0  0  0
  6 19  1  0  0  0  0
  7 20  1  0  0  0  0
  7 21  1  0  0  0  0
  8 22  1  0  0  0  0
 11 23  1  0  0  0  0
 11 24  1  0  0  0  0
 12 25  1  0  0  0  0
M  END
> <FRED Chemgauss4 score>
-7.634612

$$$$
C40710569	P61812514
  -OEChem-05122015313D

 28 28  0     1  0  0  0  0  0999 V2000
  123.8151  109.3729  109.1645 C   0  0  0  0  0  0  0  0  0  0  0  0
  124.4904  108.2770  107.5451 C   0  0  0  0  0  0  0  0  0  0  0  0
  123.8190  110.8064  111.2379 C   0  0  0  0  0  0  0  0  0  0  0  0
  122.7983  108.5023  111.3004 C   0  0  0  0  0  0  0  0  0  0  0  0
  125.5006  105.9994  106.9866 C   0  0  0  0  0  0  0  0  0  0  0  0
  124.6532  105.2475  108.0077 C   0  0  0  0  0  0  0  0  0  0  0  0
  123.0976  109.7241  110.3951 C   0  0  0  0  0  0  0  0  0  0  0  0
  124.8253  107.2757  106.4596 C   0  0  2  0  0  0  0  0  0  0  0  0
  123.7036  108.1436  108.5828 N   0  0  0  0  0  0  0  0  0  0  0  0
  124.6196  110.2394  108.5419 N   0  0  0  0  0  0  0  0  0  0  0  0
  125.6473  107.8948  105.4420 N   0  0  0  0  0  0  0  0  0  0  0  0
  125.0776  109.4983  107.4453 O   0  0  0  0  0  0  0  0  0  0  0  0
  123.4344  104.8554  107.3892 O   0  0  0  0  0  0  0  0  0  0  0  0
  124.8247  110.4805  111.5251 H   0  0  0  0  0  0  0  0  0  0  0  0
  123.2737  111.0497  112.1562 H   0  0  0  0  0  0  0  0  0  0  0  0
  123.9210  111.7282  110.6543 H   0  0  0  0  0  0  0  0  0  0  0  0
  123.7343  108.0059  111.5801 H   0  0  0  0  0  0  0  0  0  0  0  0
  122.1624  107.7623  110.8023 H   0  0  0  0  0  0  0  0  0  0  0  0
  122.2929  108.8067  112.2235 H   0  0  0  0  0  0  0  0  0  0  0  0
  125.7120  105.3247  106.1454 H   0  0  0  0  0  0  0  0  0  0  0  0
  126.4849  106.2193  107.4209 H   0  0  0  0  0  0  0  0  0  0  0  0
  125.1610  104.3457  108.3626 H   0  0  0  0  0  0  0  0  0  0  0  0
  124.4174  105.8863  108.8647 H   0  0  0  0  0  0  0  0  0  0  0  0
  122.0978  110.1606  110.1638 H   0  0  0  0  0  0  0  0  0  0  0  0
  123.9054  106.9823  105.9382 H   0  0  0  0  0  0  0  0  0  0  0  0
  125.4939  108.8611  105.2202 H   0  0  0  0  0  0  0  0  0  0  0  0
  126.2011  107.3074  104.8464 H   0  0  0  0  0  0  0  0  0  0  0  0
  122.9195  104.3813  108.0618 H   0  0  0  0  0  0  0  0  0  0  0  0
  1  7  1  0  0  0  0
  1  9  1  0  0  0  0
  1 10  2  0  0  0  0
  2  8  1  0  0  0  0
  2  9  2  0  0  0  0
  2 12  1  0  0  0  0
  3  7  1  0  0  0  0
  4  7  1  0  0  0  0
  5  6  1  0  0  0  0
  5  8  1  0  0  0  0
  6 13  1  0  0  0  0
  8 11  1  0  0  0  0
 10 12  1  0  0  0  0
  3 14  1  0  0  0  0
  3 15  1  0  0  0  0
  3 16  1  0  0  0  0
  4 17  1  0  0  0  0
  4 18  1  0  0  0  0
  4 19  1  0  0  0  0
  5 20  1  0  0  0  0
  5 21  1  0  0  0  0
  6 22  1  0  0  0  0
  6 23  1  0  0  0  0
  7 24  1  0  0  0  0
  8 25  1  0  0  0  0
 11 26  1  0  0  0  0
 11 27  1  0  0  0  0
 13 28  1  0  0  0  0
M  END
> <FRED Chemgauss4 score>
-7.633436

$$$$
C40710778	P61812575
  -OEChem-05122015313D

 28 28  0     1  0  0  0  0  0999 V2000
  123.8075  110.6634  111.5280 C   0  0  0  0  0  0  0  0  0  0  0  0
  124.1178  109.1057  110.2026 C   0  0  0  0  0  0  0  0  0  0  0  0
  122.1636  113.9234  112.7828 C   0  0  0  0  0  0  0  0  0  0  0  0
  123.7156  112.0256  112.0651 C   0  0  0  0  0  0  0  0  0  0  0  0
  122.2589  112.5271  112.1886 C   0  0  0  0  0  0  0  0  0  0  0  0
  124.8439  108.8765  107.7636 C   0  0  0  0  0  0  0  0  0  0  0  0
  124.6948  108.0103  106.5171 C   0  0  0  0  0  0  0  0  0  0  0  0
  124.4095  108.1630  109.0539 C   0  0  1  0  0  0  0  0  0  0  0  0
  124.1684  110.4133  110.2361 N   0  0  0  0  0  0  0  0  0  0  0  0
  123.5429  109.5879  112.2758 N   0  0  0  0  0  0  0  0  0  0  0  0
  125.4121  107.1928  109.4384 N   0  0  0  0  0  0  0  0  0  0  0  0
  123.7526  108.5326  111.3793 O   0  0  0  0  0  0  0  0  0  0  0  0
  125.1403  108.7529  105.3894 O   0  0  0  0  0  0  0  0  0  0  0  0
  122.6258  113.9601  113.7744 H   0  0  0  0  0  0  0  0  0  0  0  0
  122.6635  114.6571  112.1424 H   0  0  0  0  0  0  0  0  0  0  0  0
  121.1153  114.2208  112.8858 H   0  0  0  0  0  0  0  0  0  0  0  0
  124.1916  112.1057  113.0670 H   0  0  0  0  0  0  0  0  0  0  0  0
  124.2764  112.7537  111.4387 H   0  0  0  0  0  0  0  0  0  0  0  0
  121.7877  112.5256  111.1982 H   0  0  0  0  0  0  0  0  0  0  0  0
  121.6855  111.8314  112.8132 H   0  0  0  0  0  0  0  0  0  0  0  0
  124.2420  109.7860  107.6294 H   0  0  0  0  0  0  0  0  0  0  0  0
  125.8789  109.2361  107.8360 H   0  0  0  0  0  0  0  0  0  0  0  0
  125.2994  107.1012  106.5871 H   0  0  0  0  0  0  0  0  0  0  0  0
  123.6480  107.7328  106.3582 H   0  0  0  0  0  0  0  0  0  0  0  0
  123.5124  107.5715  108.8314 H   0  0  0  0  0  0  0  0  0  0  0  0
  125.9307  106.7243  108.7187 H   0  0  0  0  0  0  0  0  0  0  0  0
  125.4256  106.8632  110.3859 H   0  0  0  0  0  0  0  0  0  0  0  0
  125.0332  108.1770  104.6154 H   0  0  0  0  0  0  0  0  0  0  0  0
  1  4  1  0  0  0  0
  1  9  1  0  0  0  0
  1 10  2  0  0  0  0
  2  8  1  0  0  0  0
  2  9  2  0  0  0  0
  2 12  1  0  0  0  0
  3  5  1  0  0  0  0
  4  5  1  0  0  0  0
  6  7  1  0  0  0  0
  6  8  1  0  0  0  0
  7 13  1  0  0  0  0
  8 11  1  0  0  0  0
 10 12  1  0  0  0  0
  3 14  1  0  0  0  0
  3 15  1  0  0  0  0
  3 16  1  0  0  0  0
  4 17  1  0  0  0  0
  4 18  1  0  0  0  0
  5 19  1  0  0  0  0
  5 20  1  0  0  0  0
  6 21  1  0  0  0  0
  6 22  1  0  0  0  0
  7 23  1  0  0  0  0
  7 24  1  0  0  0  0
  8 25  1  0  0  0  0
 11 26  1  0  0  0  0
 11 27  1  0  0  0  0
 13 28  1  0  0  0  0
M  END
> <FRED Chemgauss4 score>
-7.630520

$$$$
C08681527	P57121907
  -OEChem-05122015313D

 21 22  0     1  0  0  0  0  0999 V2000
  125.4116  104.8604  106.8887 C   0  0  0  0  0  0  0  0  0  0  0  0
  125.0634  105.6782  108.1197 C   0  0  1  0  0  0  0  0  0  0  0  0
  125.9630  106.9047  108.3459 C   0  0  2  0  0  0  0  0  0  0  0  0
  126.0368  107.8059  107.1029 C   0  0  1  0  0  0  0  0  0  0  0  0
  124.6609  107.9251  106.4319 C   0  0  2  0  0  0  0  0  0  0  0  0
  123.9703  106.5570  106.4004 C   0  0  1  0  0  0  0  0  0  0  0  0
  124.8569  105.6021  105.7908 O   0  0  0  0  0  0  0  0  0  0  0  0
  123.7608  106.1557  107.7624 O   0  0  0  0  0  0  0  0  0  0  0  0
  127.2695  106.4700  108.7065 O   0  0  0  0  0  0  0  0  0  0  0  0
  126.4910  109.0992  107.4998 O   0  0  0  0  0  0  0  0  0  0  0  0
  124.8352  108.4190  105.1090 O   0  0  0  0  0  0  0  0  0  0  0  0
  126.4829  104.7009  106.7413 H   0  0  0  0  0  0  0  0  0  0  0  0
  124.9052  103.8894  106.9072 H   0  0  0  0  0  0  0  0  0  0  0  0
  125.0212  105.0548  109.0184 H   0  0  0  0  0  0  0  0  0  0  0  0
  125.5664  107.4845  109.1892 H   0  0  0  0  0  0  0  0  0  0  0  0
  126.7865  107.4255  106.3979 H   0  0  0  0  0  0  0  0  0  0  0  0
  124.0464  108.6496  106.9800 H   0  0  0  0  0  0  0  0  0  0  0  0
  123.0242  106.5803  105.8517 H   0  0  0  0  0  0  0  0  0  0  0  0
  127.1754  105.9538  109.5227 H   0  0  0  0  0  0  0  0  0  0  0  0
  125.8433  109.4334  108.1387 H   0  0  0  0  0  0  0  0  0  0  0  0
  123.9500  108.4816  104.7161 H   0  0  0  0  0  0  0  0  0  0  0  0
  1  2  1  0  0  0  0
  1  7  1  0  0  0  0
  2  3  1  0  0  0  0
  2  8  1  0  0  0  0
  3  4  1  0  0  0  0
  3  9  1  0  0  0  0
  4  5  1  0  0  0  0
  4 10  1  0  0  0  0
  5  6  1  0  0  0  0
  5 11  1  0  0  0  0
  6  7  1  0  0  0  0
  6  8  1  0  0  0  0
  1 12  1  0  0  0  0
  1 13  1  0  0  0  0
  2 14  1  0  0  0  0
  3 15  1  0  0  0  0
  4 16  1  0  0  0  0
  5 17  1  0  0  0  0
  6 18  1  0  0  0  0
  9 19  1  0  0  0  0
 10 20  1  0  0  0  0
 11 21  1  0  0  0  0
M  END
> <FRED Chemgauss4 score>
-7.629077

$$$$
C08299019	P108959850
  -OEChem-05122015313D

 27 27  0     1  0  0  0  0  0999 V2000
  123.5331  106.8316  108.6093 C   0  0  0  0  0  0  0  0  0  0  0  0
  124.0793  106.4458  106.1762 C   0  0  1  0  0  0  0  0  0  0  0  0
  125.1167  107.5745  106.3175 C   0  0  2  0  0  0  0  0  0  0  0  0
  124.7625  108.5257  107.4691 C   0  0  1  0  0  0  0  0  0  0  0  0
  123.8469  105.7684  107.5470 C   0  0  1  0  0  0  0  0  0  0  0  0
  125.0664  104.9365  107.9717 C   0  0  0  0  0  0  0  0  0  0  0  0
  121.9903  105.9458  105.0906 C   0  0  0  0  0  0  0  0  0  0  0  0
  122.8150  106.9981  105.6617 N   0  0  0  0  0  0  0  0  0  0  0  0
  124.5686  107.8096  108.6908 O   0  0  0  0  0  0  0  0  0  0  0  0
  125.2274  108.3153  105.1042 O   0  0  0  0  0  0  0  0  0  0  0  0
  125.8008  109.4918  107.6385 O   0  0  0  0  0  0  0  0  0  0  0  0
  122.7380  104.8697  107.4684 O   0  0  0  0  0  0  0  0  0  0  0  0
  122.6188  107.3732  108.3440 H   0  0  0  0  0  0  0  0  0  0  0  0
  123.3793  106.3836  109.5975 H   0  0  0  0  0  0  0  0  0  0  0  0
  124.4349  105.7206  105.4869 H   0  0  0  0  0  0  0  0  0  0  0  0
  126.1126  107.1164  106.5127 H   0  0  0  0  0  0  0  0  0  0  0  0
  123.8407  109.0512  107.2568 H   0  0  0  0  0  0  0  0  0  0  0  0
  125.2784  104.1880  107.2125 H   0  0  0  0  0  0  0  0  0  0  0  0
  124.8582  104.4424  108.9172 H   0  0  0  0  0  0  0  0  0  0  0  0
  125.9288  105.5880  108.0870 H   0  0  0  0  0  0  0  0  0  0  0  0
  121.7576  105.1962  105.8513 H   0  0  0  0  0  0  0  0  0  0  0  0
  122.5171  105.4584  104.2657 H   0  0  0  0  0  0  0  0  0  0  0  0
  121.0542  106.3636  104.7103 H   0  0  0  0  0  0  0  0  0  0  0  0
  123.0265  107.6908  104.9476 H   0  0  0  0  0  0  0  0  0  0  0  0
  125.5056  107.6844  104.4236 H   0  0  0  0  0  0  0  0  0  0  0  0
  125.5290  110.0639  108.3730 H   0  0  0  0  0  0  0  0  0  0  0  0
  122.6454  104.4773  108.3485 H   0  0  0  0  0  0  0  0  0  0  0  0
  1  5  1  0  0  0  0
  1  9  1  0  0  0  0
  2  3  1  0  0  0  0
  2  5  1  0  0  0  0
  2  8  1  0  0  0  0
  3  4  1  0  0  0  0
  3 10  1  0  0  0  0
  4  9  1  0  0  0  0
  4 11  1  0  0  0  0
  5  6  1  0  0  0  0
  5 12  1  0  0  0  0
  7  8  1  0  0  0  0
  1 13  1  0  0  0  0
  1 14  1  0  0  0  0
  2 15  1  0  0  0  0
  3 16  1  0  0  0  0
  4 17  1  0  0  0  0
  6 18  1  0  0  0  0
  6 19  1  0  0  0  0
  6 20  1  0  0  0  0
  7 21  1  0  0  0  0
  7 22  1  0  0  0  0
  7 23  1  0  0  0  0
  8 24  1  0  0  0  0
 10 25  1  0  0  0  0
 11 26  1  0  0  0  0
 12 27  1  0  0  0  0
M  END
> <FRED Chemgauss4 score>
-7.628141

$$$$
C83977188	P131377775
  -OEChem-05122015313D

 21 21  0     0  0  0  0  0  0999 V2000
  124.1494  107.5074  105.5384 C   0  0  0  0  0  0  0  0  0  0  0  0
  125.5847  106.8859  106.9207 C   0  0  0  0  0  0  0  0  0  0  0  0
  125.2755  103.6428  107.0750 C   0  0  0  0  0  0  0  0  0  0  0  0
  126.7760  106.7267  107.8205 C   0  0  0  0  0  0  0  0  0  0  0  0
  124.4107  104.7657  107.6217 C   0  0  0  0  0  0  0  0  0  0  0  0
  125.3495  107.8675  106.0814 N   0  0  0  0  0  0  0  0  0  0  0  0
  123.6273  106.3647  105.9891 N   0  0  0  0  0  0  0  0  0  0  0  0
  124.5647  105.9876  106.8719 N   0  0  0  0  0  0  0  0  0  0  0  0
  127.6189  105.9277  109.8496 N   0  0  0  0  0  0  0  0  0  0  0  0
  126.4423  106.0132  109.0455 N   0  0  0  0  0  0  0  0  0  0  0  0
  123.6395  108.0961  104.7909 H   0  0  0  0  0  0  0  0  0  0  0  0
  125.0275  103.4249  106.0308 H   0  0  0  0  0  0  0  0  0  0  0  0
  125.1253  102.7296  107.6591 H   0  0  0  0  0  0  0  0  0  0  0  0
  126.3378  103.9051  107.1180 H   0  0  0  0  0  0  0  0  0  0  0  0
  127.5719  106.1711  107.3128 H   0  0  0  0  0  0  0  0  0  0  0  0
  127.1885  107.7012  108.1025 H   0  0  0  0  0  0  0  0  0  0  0  0
  124.6661  104.9764  108.6664 H   0  0  0  0  0  0  0  0  0  0  0  0
  123.3517  104.4852  107.5959 H   0  0  0  0  0  0  0  0  0  0  0  0
  127.8714  104.9484  109.9796 H   0  0  0  0  0  0  0  0  0  0  0  0
  128.3950  106.3502  109.3416 H   0  0  0  0  0  0  0  0  0  0  0  0
  125.7253  106.5283  109.5553 H   0  0  0  0  0  0  0  0  0  0  0  0
  1  6  1  0  0  0  0
  1  7  2  0  0  0  0
  2  4  1  0  0  0  0
  2  6  2  0  0  0  0
  2  8  1  0  0  0  0
  3  5  1  0  0  0  0
  4 10  1  0  0  0  0
  5  8  1  0  0  0  0
  7  8  1  0  0  0  0
  9 10  1  0  0  0  0
  1 11  1  0  0  0  0
  3 12  1  0  0  0  0
  3 13  1  0  0  0  0
  3 14  1  0  0  0  0
  4 15  1  0  0  0  0
  4 16  1  0  0  0  0
  5 17  1  0  0  0  0
  5 18  1  0  0  0  0
  9 19  1  0  0  0  0
  9 20  1  0  0  0  0
 10 21  1  0  0  0  0
M  END
> <FRED Chemgauss4 score>
-7.627982

$$$$
C39060572	P59188184
  -OEChem-05122015313D

 19 19  0     1  0  0  0  0  0999 V2000
  124.5762  105.8113  107.3242 C   0  0  0  0  0  0  0  0  0  0  0  0
  124.2736  106.8406  106.5234 C   0  0  0  0  0  0  0  0  0  0  0  0
  124.7188  108.1936  106.9302 C   0  0  0  0  0  0  0  0  0  0  0  0
  125.2912  105.9506  108.6370 C   0  0  1  0  0  0  0  0  0  0  0  0
  125.4684  108.3225  108.2425 C   0  0  1  0  0  0  0  0  0  0  0  0
  126.7339  105.4622  108.5588 C   0  0  0  0  0  0  0  0  0  0  0  0
  124.5221  109.1631  106.2001 O   0  0  0  0  0  0  0  0  0  0  0  0
  125.2174  107.2777  109.1624 O   0  0  0  0  0  0  0  0  0  0  0  0
  123.6102  106.7113  105.3266 O   0  0  0  0  0  0  0  0  0  0  0  0
  126.8417  108.5032  107.9463 O   0  0  0  0  0  0  0  0  0  0  0  0
  127.3393  105.6364  109.8273 O   0  0  0  0  0  0  0  0  0  0  0  0
  124.2828  104.8048  107.0148 H   0  0  0  0  0  0  0  0  0  0  0  0
  124.7521  105.2708  109.3774 H   0  0  0  0  0  0  0  0  0  0  0  0
  125.1468  109.3006  108.7047 H   0  0  0  0  0  0  0  0  0  0  0  0
  127.2839  106.0402  107.8156 H   0  0  0  0  0  0  0  0  0  0  0  0
  126.7565  104.4052  108.2918 H   0  0  0  0  0  0  0  0  0  0  0  0
  123.4968  107.5760  104.9145 H   0  0  0  0  0  0  0  0  0  0  0  0
  126.9147  109.3149  107.4159 H   0  0  0  0  0  0  0  0  0  0  0  0
  128.2552  105.3188  109.7521 H   0  0  0  0  0  0  0  0  0  0  0  0
  1  2  2  0  0  0  0
  1  4  1  0  0  0  0
  2  3  1  0  0  0  0
  2  9  1  0  0  0  0
  3  5  1  0  0  0  0
  3  7  2  0  0  0  0
  4  6  1  0  0  0  0
  4  8  1  0  0  0  0
  5  8  1  0  0  0  0
  5 10  1  0  0  0  0
  6 11  1  0  0  0  0
  1 12  1  0  0  0  0
  4 13  1  0  0  0  0
  5 14  1  0  0  0  0
  6 15  1  0  0  0  0
  6 16  1  0  0  0  0
  9 17  1  0  0  0  0
 10 18  1  0  0  0  0
 11 19  1  0  0  0  0
M  END
> <FRED Chemgauss4 score>
-7.626152

$$$$
C85190617	P133299831
  -OEChem-05122015313D

 23 24  0     0  0  0  0  0  0999 V2000
  124.8684  109.0312  107.9840 C   0  0  0  0  0  0  0  0  0  0  0  0
  126.3102  107.6981  107.1626 C   0  0  0  0  0  0  0  0  0  0  0  0
  124.6668  107.8315  108.6248 C   0  0  0  0  0  0  0  0  0  0  0  0
  125.7813  104.4778  107.3596 C   0  0  0  0  0  0  0  0  0  0  0  0
  124.6671  104.5531  108.3560 C   0  0  0  0  0  0  0  0  0  0  0  0
  125.8130  105.5342  108.4393 C   0  0  0  0  0  0  0  0  0  0  0  0
  123.7042  107.4273  109.6641 C   0  0  0  0  0  0  0  0  0  0  0  0
  125.8926  108.9414  107.0748 N   0  0  0  0  0  0  0  0  0  0  0  0
  125.5975  106.9872  108.0878 N   0  0  0  0  0  0  0  0  0  0  0  0
  122.4202  108.0155  111.5272 N   0  0  0  0  0  0  0  0  0  0  0  0
  123.3334  108.5144  110.5458 N   0  0  0  0  0  0  0  0  0  0  0  0
  124.3291  109.9562  108.1292 H   0  0  0  0  0  0  0  0  0  0  0  0
  127.1139  107.2603  106.5863 H   0  0  0  0  0  0  0  0  0  0  0  0
  126.4777  103.6523  107.4418 H   0  0  0  0  0  0  0  0  0  0  0  0
  125.5684  104.7854  106.3429 H   0  0  0  0  0  0  0  0  0  0  0  0
  123.7051  104.9106  108.0095 H   0  0  0  0  0  0  0  0  0  0  0  0
  124.6123  103.7792  109.1118 H   0  0  0  0  0  0  0  0  0  0  0  0
  126.5178  105.4279  109.2350 H   0  0  0  0  0  0  0  0  0  0  0  0
  122.7648  107.0379  109.2299 H   0  0  0  0  0  0  0  0  0  0  0  0
  124.0956  106.6196  110.3096 H   0  0  0  0  0  0  0  0  0  0  0  0
  121.5260  108.4961  111.4321 H   0  0  0  0  0  0  0  0  0  0  0  0
  122.2296  107.0326  111.3364 H   0  0  0  0  0  0  0  0  0  0  0  0
  124.1626  108.8764  111.0214 H   0  0  0  0  0  0  0  0  0  0  0  0
  1  3  2  0  0  0  0
  1  8  1  0  0  0  0
  2  8  2  0  0  0  0
  2  9  1  0  0  0  0
  3  7  1  0  0  0  0
  3  9  1  0  0  0  0
  4  5  1  0  0  0  0
  4  6  1  0  0  0  0
  5  6  1  0  0  0  0
  6  9  1  0  0  0  0
  7 11  1  0  0  0  0
 10 11  1  0  0  0  0
  1 12  1  0  0  0  0
  2 13  1  0  0  0  0
  4 14  1  0  0  0  0
  4 15  1  0  0  0  0
  5 16  1  0  0  0  0
  5 17  1  0  0  0  0
  6 18  1  0  0  0  0
  7 19  1  0  0  0  0
  7 20  1  0  0  0  0
 10 21  1  0  0  0  0
 10 22  1  0  0  0  0
 11 23  1  0  0  0  0
M  END
> <FRED Chemgauss4 score>
-7.624940

$$$$
C82872757	P129533931
  -OEChem-05122015313D

 29 29  0     1  0  0  0  0  0999 V2000
  123.4241  107.9341  110.9657 C   0  0  0  0  0  0  0  0  0  0  0  0
  123.4057  109.1186  111.6938 C   0  0  0  0  0  0  0  0  0  0  0  0
  123.8167  107.9504  109.6320 C   0  0  0  0  0  0  0  0  0  0  0  0
  123.7859  110.2834  111.0469 C   0  0  0  0  0  0  0  0  0  0  0  0
  124.1783  109.1676  109.0774 C   0  0  0  0  0  0  0  0  0  0  0  0
  123.7796  111.5726  111.7987 C   0  0  0  0  0  0  0  0  0  0  0  0
  124.6115  109.2450  107.6501 C   0  0  0  0  0  0  0  0  0  0  0  0
  125.1723  105.9061  108.9167 C   0  0  0  0  0  0  0  0  0  0  0  0
  125.3610  104.8935  107.7919 C   0  0  0  0  0  0  0  0  0  0  0  0
  123.8375  106.6639  108.8335 C   0  0  1  0  0  0  0  0  0  0  0  0
  124.1731  110.3386  109.7529 N   0  0  0  0  0  0  0  0  0  0  0  0
  122.7551  105.7960  109.2452 N   0  0  0  0  0  0  0  0  0  0  0  0
  124.2984  103.9501  107.8442 O   0  0  0  0  0  0  0  0  0  0  0  0
  123.1315  107.0044  111.4455 H   0  0  0  0  0  0  0  0  0  0  0  0
  123.1001  109.1194  112.7347 H   0  0  0  0  0  0  0  0  0  0  0  0
  124.7531  111.7409  112.2744 H   0  0  0  0  0  0  0  0  0  0  0  0
  123.5651  112.4191  111.1342 H   0  0  0  0  0  0  0  0  0  0  0  0
  123.0059  111.5749  112.5771 H   0  0  0  0  0  0  0  0  0  0  0  0
  123.7472  109.4234  107.0000 H   0  0  0  0  0  0  0  0  0  0  0  0
  125.3357  110.0550  107.4992 H   0  0  0  0  0  0  0  0  0  0  0  0
  125.1013  108.3158  107.3337 H   0  0  0  0  0  0  0  0  0  0  0  0
  126.0026  106.6250  108.8808 H   0  0  0  0  0  0  0  0  0  0  0  0
  125.2839  105.4005  109.8850 H   0  0  0  0  0  0  0  0  0  0  0  0
  125.3398  105.3770  106.8108 H   0  0  0  0  0  0  0  0  0  0  0  0
  126.3077  104.3561  107.9060 H   0  0  0  0  0  0  0  0  0  0  0  0
  123.6370  106.8870  107.7780 H   0  0  0  0  0  0  0  0  0  0  0  0
  122.8239  104.8141  109.0511 H   0  0  0  0  0  0  0  0  0  0  0  0
  121.8850  106.2098  109.5246 H   0  0  0  0  0  0  0  0  0  0  0  0
  124.4463  103.3220  107.1190 H   0  0  0  0  0  0  0  0  0  0  0  0
  1  2  2  0  0  0  0
  1  3  1  0  0  0  0
  2  4  1  0  0  0  0
  3  5  2  0  0  0  0
  3 10  1  0  0  0  0
  4  6  1  0  0  0  0
  4 11  2  0  0  0  0
  5  7  1  0  0  0  0
  5 11  1  0  0  0  0
  8  9  1  0  0  0  0
  8 10  1  0  0  0  0
  9 13  1  0  0  0  0
 10 12  1  0  0  0  0
  1 14  1  0  0  0  0
  2 15  1  0  0  0  0
  6 16  1  0  0  0  0
  6 17  1  0  0  0  0
  6 18  1  0  0  0  0
  7 19  1  0  0  0  0
  7 20  1  0  0  0  0
  7 21  1  0  0  0  0
  8 22  1  0  0  0  0
  8 23  1  0  0  0  0
  9 24  1  0  0  0  0
  9 25  1  0  0  0  0
 10 26  1  0  0  0  0
 12 27  1  0  0  0  0
 12 28  1  0  0  0  0
 13 29  1  0  0  0  0
M  END
> <FRED Chemgauss4 score>
-7.624366

$$$$
C97666462	P154881391
  -OEChem-05122015313D

 45 46  0     1  0  0  0  0  0999 V2000
  124.1953  104.7521  106.8945 C   0  0  0  0  0  0  0  0  0  0  0  0
  125.2196  104.4053  107.7436 C   0  0  0  0  0  0  0  0  0  0  0  0
  124.5960  106.4974  108.0451 C   0  0  0  0  0  0  0  0  0  0  0  0
  123.7414  107.4915  111.6743 C   0  0  0  0  0  0  0  0  0  0  0  0
  123.6717  108.9425  112.1439 C   0  0  0  0  0  0  0  0  0  0  0  0
  122.8940  107.2636  110.4258 C   0  0  0  0  0  0  0  0  0  0  0  0
  123.1886  109.6865  109.7779 C   0  0  0  0  0  0  0  0  0  0  0  0
  124.0474  109.9263  111.0280 C   0  0  1  0  0  0  0  0  0  0  0  0
  123.2341  108.2310  109.2828 C   0  0  1  0  0  0  0  0  0  0  0  0
  123.8993  111.3684  111.5121 C   0  0  0  0  0  0  0  0  0  0  0  0
  120.0195  108.5722  107.5234 C   0  0  0  0  0  0  0  0  0  0  0  0
  126.4655  105.6650  109.5076 C   0  0  0  0  0  0  0  0  0  0  0  0
  121.0476  108.7760  108.6157 C   0  0  0  0  0  0  0  0  0  0  0  0
  124.5806  107.8886  108.6357 C   0  0  2  0  0  0  0  0  0  0  0  0
  123.8119  106.0558  107.0870 N   0  0  0  0  0  0  0  0  0  0  0  0
  125.4657  105.5336  108.4741 N   0  0  0  0  0  0  0  0  0  0  0  0
  126.3571  108.8900  107.4924 N   0  0  0  0  0  0  0  0  0  0  0  0
  124.9342  108.8844  107.6529 N   0  0  0  0  0  0  0  0  0  0  0  0
  122.2278  108.0686  108.2766 O   0  0  0  0  0  0  0  0  0  0  0  0
  123.7145  104.1294  106.1543 H   0  0  0  0  0  0  0  0  0  0  0  0
  125.7733  103.4876  107.8849 H   0  0  0  0  0  0  0  0  0  0  0  0
  124.7841  107.2179  111.4757 H   0  0  0  0  0  0  0  0  0  0  0  0
  123.3927  106.8314  112.4769 H   0  0  0  0  0  0  0  0  0  0  0  0
  122.6553  109.1550  112.5003 H   0  0  0  0  0  0  0  0  0  0  0  0
  124.3415  109.0762  113.0018 H   0  0  0  0  0  0  0  0  0  0  0  0
  122.9998  106.2251  110.0877 H   0  0  0  0  0  0  0  0  0  0  0  0
  121.8330  107.3740  110.6887 H   0  0  0  0  0  0  0  0  0  0  0  0
  122.1445  109.9566  109.9911 H   0  0  0  0  0  0  0  0  0  0  0  0
  123.5000  110.3639  108.9719 H   0  0  0  0  0  0  0  0  0  0  0  0
  125.1025  109.7724  110.7693 H   0  0  0  0  0  0  0  0  0  0  0  0
  122.8622  111.5621  111.7797 H   0  0  0  0  0  0  0  0  0  0  0  0
  124.1986  112.0544  110.7219 H   0  0  0  0  0  0  0  0  0  0  0  0
  124.5300  111.5304  112.3843 H   0  0  0  0  0  0  0  0  0  0  0  0
  120.3885  108.9481  106.5651 H   0  0  0  0  0  0  0  0  0  0  0  0
  119.7755  107.5101  107.4162 H   0  0  0  0  0  0  0  0  0  0  0  0
  119.0865  109.0897  107.7702 H   0  0  0  0  0  0  0  0  0  0  0  0
  127.3928  106.0044  109.0386 H   0  0  0  0  0  0  0  0  0  0  0  0
  126.1261  106.3903  110.2524 H   0  0  0  0  0  0  0  0  0  0  0  0
  126.6135  104.6961  109.9926 H   0  0  0  0  0  0  0  0  0  0  0  0
  120.6723  108.3979  109.5713 H   0  0  0  0  0  0  0  0  0  0  0  0
  121.2908  109.8376  108.7208 H   0  0  0  0  0  0  0  0  0  0  0  0
  125.3466  107.9607  109.4153 H   0  0  0  0  0  0  0  0  0  0  0  0
  126.7234  109.8014  107.7662 H   0  0  0  0  0  0  0  0  0  0  0  0
  126.7713  108.2184  108.1376 H   0  0  0  0  0  0  0  0  0  0  0  0
  124.5051  108.6596  106.7509 H   0  0  0  0  0  0  0  0  0  0  0  0
  1  2  2  0  0  0  0
  1 15  1  0  0  0  0
  2 16  1  0  0  0  0
  3 14  1  0  0  0  0
  3 15  2  0  0  0  0
  3 16  1  0  0  0  0
  4  5  1  0  0  0  0
  4  6  1  0  0  0  0
  5  8  1  0  0  0  0
  6  9  1  0  0  0  0
  7  8  1  0  0  0  0
  7  9  1  0  0  0  0
  8 10  1  0  0  0  0
  9 14  1  0  0  0  0
  9 19  1  0  0  0  0
 11 13  1  0  0  0  0
 12 16  1  0  0  0  0
 13 19  1  0  0  0  0
 14 18  1  0  0  0  0
 17 18  1  0  0  0  0
  1 20  1  0  0  0  0
  2 21  1  0  0  0  0
  4 22  1  0  0  0  0
  4 23  1  0  0  0  0
  5 24  1  0  0  0  0
  5 25  1  0  0  0  0
  6 26  1  0  0  0  0
  6 27  1  0  0  0  0
  7 28  1  0  0  0  0
  7 29  1  0  0  0  0
  8 30  1  0  0  0  0
 10 31  1  0  0  0  0
 10 32  1  0  0  0  0
 10 33  1  0  0  0  0
 11 34  1  0  0  0  0
 11 35  1  0  0  0  0
 11 36  1  0  0  0  0
 12 37  1  0  0  0  0
 12 38  1  0  0  0  0
 12 39  1  0  0  0  0
 13 40  1  0  0  0  0
 13 41  1  0  0  0  0
 14 42  1  0  0  0  0
 17 43  1  0  0  0  0
 17 44  1  0  0  0  0
 18 45  1  0  0  0  0
M  END
> <FRED Chemgauss4 score>
-7.619503

$$$$
C86661154	P135662458
  -OEChem-05122015313D

 23 23  0     1  0  0  0  0  0999 V2000
  122.3418  106.1127  106.3702 C   0  0  0  0  0  0  0  0  0  0  0  0
  124.1253  107.1603  106.2326 C   0  0  0  0  0  0  0  0  0  0  0  0
  123.6332  106.0755  107.2105 C   0  0  0  0  0  0  0  0  0  0  0  0
  127.0303  106.5498  107.7300 C   0  0  0  0  0  0  0  0  0  0  0  0
  125.5367  104.6300  108.5701 C   0  0  0  0  0  0  0  0  0  0  0  0
  126.1203  106.0206  108.8361 C   0  0  1  0  0  0  0  0  0  0  0  0
  122.7026  107.4995  105.9896 N   0  0  0  0  0  0  0  0  0  0  0  0
  127.1544  107.9617  107.8770 O   0  0  0  0  0  0  0  0  0  0  0  0
  126.8291  106.0169  110.0761 O   0  0  0  0  0  0  0  0  0  0  0  0
  124.5408  104.5089  107.0502 S   0  0  0  0  0  0  0  0  0  0  0  0
  122.2961  105.4289  105.5135 H   0  0  0  0  0  0  0  0  0  0  0  0
  121.4096  106.0287  106.9362 H   0  0  0  0  0  0  0  0  0  0  0  0
  124.7110  107.9677  106.6814 H   0  0  0  0  0  0  0  0  0  0  0  0
  124.6441  106.8078  105.3325 H   0  0  0  0  0  0  0  0  0  0  0  0
  123.5089  106.4233  108.2415 H   0  0  0  0  0  0  0  0  0  0  0  0
  128.0373  106.1260  107.7917 H   0  0  0  0  0  0  0  0  0  0  0  0
  126.6048  106.3489  106.7420 H   0  0  0  0  0  0  0  0  0  0  0  0
  124.9000  104.3288  109.4083 H   0  0  0  0  0  0  0  0  0  0  0  0
  126.3472  103.8994  108.4798 H   0  0  0  0  0  0  0  0  0  0  0  0
  125.2873  106.7200  108.9742 H   0  0  0  0  0  0  0  0  0  0  0  0
  122.4809  107.7508  105.0278 H   0  0  0  0  0  0  0  0  0  0  0  0
  127.7360  108.2639  107.1621 H   0  0  0  0  0  0  0  0  0  0  0  0
  126.2133  105.6752  110.7416 H   0  0  0  0  0  0  0  0  0  0  0  0
  1  3  1  0  0  0  0
  1  7  1  0  0  0  0
  2  3  1  0  0  0  0
  2  7  1  0  0  0  0
  3 10  1  0  0  0  0
  4  6  1  0  0  0  0
  4  8  1  0  0  0  0
  5  6  1  0  0  0  0
  5 10  1  0  0  0  0
  6  9  1  0  0  0  0
  1 11  1  0  0  0  0
  1 12  1  0  0  0  0
  2 13  1  0  0  0  0
  2 14  1  0  0  0  0
  3 15  1  0  0  0  0
  4 16  1  0  0  0  0
  4 17  1  0  0  0  0
  5 18  1  0  0  0  0
  5 19  1  0  0  0  0
  6 20  1  0  0  0  0
  7 21  1  0  0  0  0
  8 22  1  0  0  0  0
  9 23  1  0  0  0  0
M  END
> <FRED Chemgauss4 score>
-7.619418

$$$$
C36762383	P54642196
  -OEChem-05122015313D

 24 24  0     1  0  0  0  0  0999 V2000
  124.5946  108.3585  107.5666 C   0  0  0  0  0  0  0  0  0  0  0  0
  124.2157  109.0444  109.4811 C   0  0  0  0  0  0  0  0  0  0  0  0
  123.8314  109.2948  110.8768 C   0  0  0  0  0  0  0  0  0  0  0  0
  125.2188  103.8103  107.6093 C   0  0  0  0  0  0  0  0  0  0  0  0
  124.4775  105.1157  107.3649 C   0  0  0  0  0  0  0  0  0  0  0  0
  125.3618  106.1333  106.6371 C   0  0  0  0  0  0  0  0  0  0  0  0
  124.6227  107.4511  106.3525 C   0  0  2  0  0  0  0  0  0  0  0  0
  124.0058  107.9861  108.7399 N   0  0  0  0  0  0  0  0  0  0  0  0
  125.1469  109.5753  107.5543 N   0  0  0  0  0  0  0  0  0  0  0  0
  125.2057  108.1738  105.2461 N   0  0  0  0  0  0  0  0  0  0  0  0
  124.8908  110.0407  108.8502 O   0  0  0  0  0  0  0  0  0  0  0  0
  124.6183  108.9643  111.5783 H   0  0  0  0  0  0  0  0  0  0  0  0
  123.6422  110.3663  111.0753 H   0  0  0  0  0  0  0  0  0  0  0  0
  122.8989  108.7700  111.1570 H   0  0  0  0  0  0  0  0  0  0  0  0
  126.1275  103.9793  108.1958 H   0  0  0  0  0  0  0  0  0  0  0  0
  124.5887  103.0961  108.1489 H   0  0  0  0  0  0  0  0  0  0  0  0
  125.5087  103.3553  106.6571 H   0  0  0  0  0  0  0  0  0  0  0  0
  123.5765  104.9075  106.7769 H   0  0  0  0  0  0  0  0  0  0  0  0
  124.1507  105.5277  108.3268 H   0  0  0  0  0  0  0  0  0  0  0  0
  126.2469  106.3384  107.2537 H   0  0  0  0  0  0  0  0  0  0  0  0
  125.7248  105.6872  105.7020 H   0  0  0  0  0  0  0  0  0  0  0  0
  123.5960  107.2180  106.0436 H   0  0  0  0  0  0  0  0  0  0  0  0
  125.0377  109.1612  105.1694 H   0  0  0  0  0  0  0  0  0  0  0  0
  125.5886  107.6547  104.4759 H   0  0  0  0  0  0  0  0  0  0  0  0
  1  7  1  0  0  0  0
  1  8  1  0  0  0  0
  1  9  2  0  0  0  0
  2  3  1  0  0  0  0
  2  8  2  0  0  0  0
  2 11  1  0  0  0  0
  4  5  1  0  0  0  0
  5  6  1  0  0  0  0
  6  7  1  0  0  0  0
  7 10  1  0  0  0  0
  9 11  1  0  0  0  0
  3 12  1  0  0  0  0
  3 13  1  0  0  0  0
  3 14  1  0  0  0  0
  4 15  1  0  0  0  0
  4 16  1  0  0  0  0
  4 17  1  0  0  0  0
  5 18  1  0  0  0  0
  5 19  1  0  0  0  0
  6 20  1  0  0  0  0
  6 21  1  0  0  0  0
  7 22  1  0  0  0  0
 10 23  1  0  0  0  0
 10 24  1  0  0  0  0
M  END
> <FRED Chemgauss4 score>
-7.615076

$$$$
C52833943	P79173630
  -OEChem-05122015313D

 22 22  0     0  0  0  0  0  0999 V2000
  122.6131  106.8646  106.2703 C   0  0  0  0  0  0  0  0  0  0  0  0
  123.9395  107.9240  107.6221 C   0  0  0  0  0  0  0  0  0  0  0  0
  126.0661  106.4090  109.2132 C   0  0  0  0  0  0  0  0  0  0  0  0
  122.2446  106.4092  108.7052 C   0  0  0  0  0  0  0  0  0  0  0  0
  124.5764  108.3962  108.8971 C   0  0  0  0  0  0  0  0  0  0  0  0
  123.4208  107.5972  105.5373 N   0  0  0  0  0  0  0  0  0  0  0  0
  124.2646  108.2712  106.3973 N   0  0  0  0  0  0  0  0  0  0  0  0
  125.3256  105.5382  108.5775 N   0  0  0  0  0  0  0  0  0  0  0  0
  122.9043  107.0397  107.5891 N   0  0  0  0  0  0  0  0  0  0  0  0
  127.1274  106.1090  110.0397 N   0  0  0  0  0  0  0  0  0  0  0  0
  125.8587  107.7738  109.1230 N   0  0  0  0  0  0  0  0  0  0  0  0
  125.7608  104.2379  108.8513 O   0  0  0  0  0  0  0  0  0  0  0  0
  121.8292  106.2132  105.9109 H   0  0  0  0  0  0  0  0  0  0  0  0
  122.7675  105.4738  108.9214 H   0  0  0  0  0  0  0  0  0  0  0  0
  122.2785  107.0753  109.5718 H   0  0  0  0  0  0  0  0  0  0  0  0
  121.2008  106.2135  108.4445 H   0  0  0  0  0  0  0  0  0  0  0  0
  124.7273  109.4810  108.8745 H   0  0  0  0  0  0  0  0  0  0  0  0
  123.9398  108.1743  109.7600 H   0  0  0  0  0  0  0  0  0  0  0  0
  127.4046  105.1479  110.2074 H   0  0  0  0  0  0  0  0  0  0  0  0
  127.6611  106.8360  110.5034 H   0  0  0  0  0  0  0  0  0  0  0  0
  126.6558  108.3964  109.2212 H   0  0  0  0  0  0  0  0  0  0  0  0
  125.1364  103.7088  108.3266 H   0  0  0  0  0  0  0  0  0  0  0  0
  1  6  2  0  0  0  0
  1  9  1  0  0  0  0
  2  5  1  0  0  0  0
  2  7  2  0  0  0  0
  2  9  1  0  0  0  0
  3  8  2  0  0  0  0
  3 10  1  0  0  0  0
  3 11  1  0  0  0  0
  4  9  1  0  0  0  0
  5 11  1  0  0  0  0
  6  7  1  0  0  0  0
  8 12  1  0  0  0  0
  1 13  1  0  0  0  0
  4 14  1  0  0  0  0
  4 15  1  0  0  0  0
  4 16  1  0  0  0  0
  5 17  1  0  0  0  0
  5 18  1  0  0  0  0
 10 19  1  0  0  0  0
 10 20  1  0  0  0  0
 11 21  1  0  0  0  0
 12 22  1  0  0  0  0
M  END
> <FRED Chemgauss4 score>
-7.613964

$$$$
C04334611	P61785085
  -OEChem-05122015313D

 23 23  0     1  0  0  0  0  0999 V2000
  126.5146  106.3651  107.9235 C   0  0  0  0  0  0  0  0  0  0  0  0
  125.0993  105.8803  108.2744 C   0  0  1  0  0  0  0  0  0  0  0  0
  126.5120  107.7569  107.2703 C   0  0  2  0  0  0  0  0  0  0  0  0
  124.3198  106.9245  109.0863 C   0  0  1  0  0  0  0  0  0  0  0  0
  125.7332  108.7729  108.1135 C   0  0  2  0  0  0  0  0  0  0  0  0
  124.3154  108.3016  108.4282 C   0  0  0  0  0  0  0  0  0  0  0  0
  127.2899  106.4011  109.1186 O   0  0  0  0  0  0  0  0  0  0  0  0
  124.3901  105.5507  107.0803 O   0  0  0  0  0  0  0  0  0  0  0  0
  125.9224  107.6757  105.9727 O   0  0  0  0  0  0  0  0  0  0  0  0
  122.9700  106.4970  109.2535 O   0  0  0  0  0  0  0  0  0  0  0  0
  125.6761  110.0104  107.4072 O   0  0  0  0  0  0  0  0  0  0  0  0
  123.7747  109.1856  109.3207 F   0  0  0  0  0  0  0  0  0  0  0  0
  126.9744  105.6451  107.2369 H   0  0  0  0  0  0  0  0  0  0  0  0
  125.1611  104.9498  108.8712 H   0  0  0  0  0  0  0  0  0  0  0  0
  127.5368  108.1199  107.1341 H   0  0  0  0  0  0  0  0  0  0  0  0
  124.7525  107.0119  110.0902 H   0  0  0  0  0  0  0  0  0  0  0  0
  126.2694  108.9658  109.0507 H   0  0  0  0  0  0  0  0  0  0  0  0
  123.6711  108.3295  107.5440 H   0  0  0  0  0  0  0  0  0  0  0  0
  127.3033  105.4962  109.4673 H   0  0  0  0  0  0  0  0  0  0  0  0
  124.8970  104.8482  106.6462 H   0  0  0  0  0  0  0  0  0  0  0  0
  126.4655  107.0555  105.4631 H   0  0  0  0  0  0  0  0  0  0  0  0
  123.0052  105.6508  109.7254 H   0  0  0  0  0  0  0  0  0  0  0  0
  126.5935  110.2945  107.2744 H   0  0  0  0  0  0  0  0  0  0  0  0
  1  2  1  0  0  0  0
  1  3  1  0  0  0  0
  1  7  1  0  0  0  0
  2  4  1  0  0  0  0
  2  8  1  0  0  0  0
  3  5  1  0  0  0  0
  3  9  1  0  0  0  0
  4  6  1  0  0  0  0
  4 10  1  0  0  0  0
  5  6  1  0  0  0  0
  5 11  1  0  0  0  0
  6 12  1  0  0  0  0
  1 13  1  0  0  0  0
  2 14  1  0  0  0  0
  3 15  1  0  0  0  0
  4 16  1  0  0  0  0
  5 17  1  0  0  0  0
  6 18  1  0  0  0  0
  7 19  1  0  0  0  0
  8 20  1  0  0  0  0
  9 21  1  0  0  0  0
 10 22  1  0  0  0  0
 11 23  1  0  0  0  0
M  END
> <FRED Chemgauss4 score>
-7.609762

$$$$
C43444164	P128429507
  -OEChem-05122015313D

 28 27  0     0  0  0  0  0  0999 V2000
  119.4572  106.0611  106.6553 C   0  0  0  0  0  0  0  0  0  0  0  0
  126.2226  106.7034  108.0952 C   0  0  0  0  0  0  0  0  0  0  0  0
  125.0478  105.7354  108.0505 C   0  0  0  0  0  0  0  0  0  0  0  0
  123.7155  104.2453  106.7208 C   0  0  0  0  0  0  0  0  0  0  0  0
  122.3874  104.9821  106.6767 C   0  0  0  0  0  0  0  0  0  0  0  0
  126.0481  107.8882  107.1529 C   0  0  0  0  0  0  0  0  0  0  0  0
  124.8555  105.1628  106.7461 N   0  0  0  0  0  0  0  0  0  0  0  0
  121.2695  104.0778  106.6724 N   0  0  0  0  0  0  0  0  0  0  0  0
  118.7651  103.5712  106.2408 O   0  0  0  0  0  0  0  0  0  0  0  0
  120.0865  104.7843  104.4692 O   0  0  0  0  0  0  0  0  0  0  0  0
  127.1945  108.7230  107.2505 O   0  0  0  0  0  0  0  0  0  0  0  0
  119.8067  104.5070  105.8650 S   0  0  0  0  0  0  0  0  0  0  0  0
  118.5341  106.4619  106.2337 H   0  0  0  0  0  0  0  0  0  0  0  0
  119.3438  105.8851  107.7260 H   0  0  0  0  0  0  0  0  0  0  0  0
  120.2905  106.7392  106.4651 H   0  0  0  0  0  0  0  0  0  0  0  0
  126.3439  107.0786  109.1191 H   0  0  0  0  0  0  0  0  0  0  0  0
  127.1578  106.1823  107.8543 H   0  0  0  0  0  0  0  0  0  0  0  0
  125.2188  104.9041  108.7416 H   0  0  0  0  0  0  0  0  0  0  0  0
  124.1163  106.2333  108.3380 H   0  0  0  0  0  0  0  0  0  0  0  0
  123.8396  103.5933  105.8503 H   0  0  0  0  0  0  0  0  0  0  0  0
  123.7758  103.6331  107.6260 H   0  0  0  0  0  0  0  0  0  0  0  0
  122.2797  105.6220  107.5579 H   0  0  0  0  0  0  0  0  0  0  0  0
  122.3079  105.6077  105.7818 H   0  0  0  0  0  0  0  0  0  0  0  0
  125.9498  107.5582  106.1141 H   0  0  0  0  0  0  0  0  0  0  0  0
  125.1660  108.4764  107.4255 H   0  0  0  0  0  0  0  0  0  0  0  0
  125.6935  104.6448  106.4590 H   0  0  0  0  0  0  0  0  0  0  0  0
  121.1361  103.5178  107.5428 H   0  0  0  0  0  0  0  0  0  0  0  0
  127.0530  109.4652  106.6409 H   0  0  0  0  0  0  0  0  0  0  0  0
  1 12  1  0  0  0  0
  2  3  1  0  0  0  0
  2  6  1  0  0  0  0
  3  7  1  0  0  0  0
  4  5  1  0  0  0  0
  4  7  1  0  0  0  0
  5  8  1  0  0  0  0
  6 11  1  0  0  0  0
  8 12  1  0  0  0  0
  9 12  2  0  0  0  0
 10 12  2  0  0  0  0
  1 13  1  0  0  0  0
  1 14  1  0  0  0  0
  1 15  1  0  0  0  0
  2 16  1  0  0  0  0
  2 17  1  0  0  0  0
  3 18  1  0  0  0  0
  3 19  1  0  0  0  0
  4 20  1  0  0  0  0
  4 21  1  0  0  0  0
  5 22  1  0  0  0  0
  5 23  1  0  0  0  0
  6 24  1  0  0  0  0
  6 25  1  0  0  0  0
  7 26  1  0  0  0  0
  8 27  1  0  0  0  0
 11 28  1  0  0  0  0
M  END
> <FRED Chemgauss4 score>
-7.604358

$$$$
C87580198	P137000610
  -OEChem-05122015313D

 26 27  0     1  0  0  0  0  0999 V2000
  123.7057  109.0679  110.1729 C   0  0  0  0  0  0  0  0  0  0  0  0
  124.9684  108.6362  108.5921 C   0  0  0  0  0  0  0  0  0  0  0  0
  124.1615  111.3760  112.8342 C   0  0  0  0  0  0  0  0  0  0  0  0
  122.8474  112.0512  112.5571 C   0  0  0  0  0  0  0  0  0  0  0  0
  123.4793  111.1775  111.5090 C   0  0  0  0  0  0  0  0  0  0  0  0
  122.8750  109.8599  111.1667 C   0  0  0  0  0  0  0  0  0  0  0  0
  126.8427  107.3837  107.4416 C   0  0  0  0  0  0  0  0  0  0  0  0
  125.8758  108.5931  107.4375 C   0  0  1  0  0  0  0  0  0  0  0  0
  124.4309  109.6711  109.1868 N   0  0  0  0  0  0  0  0  0  0  0  0
  123.7728  107.7338  110.2101 N   0  0  0  0  0  0  0  0  0  0  0  0
  125.1574  108.6194  106.1625 N   0  0  0  0  0  0  0  0  0  0  0  0
  124.6274  107.4404  109.1400 O   0  0  0  0  0  0  0  0  0  0  0  0
  127.6465  107.3858  108.6171 O   0  0  0  0  0  0  0  0  0  0  0  0
  125.0479  111.9971  112.8737 H   0  0  0  0  0  0  0  0  0  0  0  0
  124.1646  110.5450  113.5287 H   0  0  0  0  0  0  0  0  0  0  0  0
  121.9695  111.6729  113.0662 H   0  0  0  0  0  0  0  0  0  0  0  0
  122.8540  113.1242  112.4109 H   0  0  0  0  0  0  0  0  0  0  0  0
  123.9116  111.6639  110.6429 H   0  0  0  0  0  0  0  0  0  0  0  0
  121.8567  109.9814  110.7478 H   0  0  0  0  0  0  0  0  0  0  0  0
  122.7303  109.2368  112.0714 H   0  0  0  0  0  0  0  0  0  0  0  0
  126.2708  106.4493  107.4332 H   0  0  0  0  0  0  0  0  0  0  0  0
  127.5071  107.3964  106.5708 H   0  0  0  0  0  0  0  0  0  0  0  0
  126.5132  109.5038  107.3836 H   0  0  0  0  0  0  0  0  0  0  0  0
  125.6159  108.2458  105.3618 H   0  0  0  0  0  0  0  0  0  0  0  0
  124.3393  109.1831  106.1005 H   0  0  0  0  0  0  0  0  0  0  0  0
  128.2253  106.6095  108.5588 H   0  0  0  0  0  0  0  0  0  0  0  0
  1  6  1  0  0  0  0
  1  9  1  0  0  0  0
  1 10  2  0  0  0  0
  2  8  1  0  0  0  0
  2  9  2  0  0  0  0
  2 12  1  0  0  0  0
  3  4  1  0  0  0  0
  3  5  1  0  0  0  0
  4  5  1  0  0  0  0
  5  6  1  0  0  0  0
  7  8  1  0  0  0  0
  7 13  1  0  0  0  0
  8 11  1  0  0  0  0
 10 12  1  0  0  0  0
  3 14  1  0  0  0  0
  3 15  1  0  0  0  0
  4 16  1  0  0  0  0
  4 17  1  0  0  0  0
  5 18  1  0  0  0  0
  6 19  1  0  0  0  0
  6 20  1  0  0  0  0
  7 21  1  0  0  0  0
  7 22  1  0  0  0  0
  8 23  1  0  0  0  0
 11 24  1  0  0  0  0
 11 25  1  0  0  0  0
 13 26  1  0  0  0  0
M  END
> <FRED Chemgauss4 score>
-7.603640

$$$$
C82928767	P129631279
  -OEChem-05122015313D

 29 29  0     1  0  0  0  0  0999 V2000
  121.6659  104.9540  108.4865 C   0  0  0  0  0  0  0  0  0  0  0  0
  122.7403  104.9180  106.6972 C   0  0  0  0  0  0  0  0  0  0  0  0
  125.2437  102.9506  106.9051 C   0  0  0  0  0  0  0  0  0  0  0  0
  125.0216  106.9756  108.8110 C   0  0  0  0  0  0  0  0  0  0  0  0
  125.9279  105.3745  107.0994 C   0  0  0  0  0  0  0  0  0  0  0  0
  126.9166  107.7652  107.3134 C   0  0  0  0  0  0  0  0  0  0  0  0
  125.0342  104.2541  107.6911 C   0  0  1  0  0  0  0  0  0  0  0  0
  126.2827  106.5586  108.0372 C   0  0  1  0  0  0  0  0  0  0  0  0
  121.5276  105.1515  107.1424 N   0  0  0  0  0  0  0  0  0  0  0  0
  122.8880  104.6132  108.9009 N   0  0  0  0  0  0  0  0  0  0  0  0
  123.5558  104.5972  107.7373 N   0  0  0  0  0  0  0  0  0  0  0  0
  126.0519  108.3704  106.3079 N   0  0  0  0  0  0  0  0  0  0  0  0
  127.2250  106.0955  109.0118 O   0  0  0  0  0  0  0  0  0  0  0  0
  120.8503  105.0601  109.1860 H   0  0  0  0  0  0  0  0  0  0  0  0
  123.0703  104.9629  105.6690 H   0  0  0  0  0  0  0  0  0  0  0  0
  124.9214  103.0718  105.8650 H   0  0  0  0  0  0  0  0  0  0  0  0
  126.3014  102.6639  106.8941 H   0  0  0  0  0  0  0  0  0  0  0  0
  124.6758  102.1179  107.3344 H   0  0  0  0  0  0  0  0  0  0  0  0
  125.2401  107.8128  109.4843 H   0  0  0  0  0  0  0  0  0  0  0  0
  124.2418  107.3285  108.1264 H   0  0  0  0  0  0  0  0  0  0  0  0
  124.6122  106.1550  109.4081 H   0  0  0  0  0  0  0  0  0  0  0  0
  125.4386  105.7770  106.2020 H   0  0  0  0  0  0  0  0  0  0  0  0
  126.8638  104.9151  106.7528 H   0  0  0  0  0  0  0  0  0  0  0  0
  127.1947  108.5299  108.0501 H   0  0  0  0  0  0  0  0  0  0  0  0
  127.8616  107.4694  106.8445 H   0  0  0  0  0  0  0  0  0  0  0  0
  125.3792  104.0466  108.7115 H   0  0  0  0  0  0  0  0  0  0  0  0
  126.4799  108.8628  105.5524 H   0  0  0  0  0  0  0  0  0  0  0  0
  125.0776  108.4502  106.5101 H   0  0  0  0  0  0  0  0  0  0  0  0
  127.3865  106.8423  109.6056 H   0  0  0  0  0  0  0  0  0  0  0  0
  1  9  1  0  0  0  0
  1 10  2  0  0  0  0
  2  9  2  0  0  0  0
  2 11  1  0  0  0  0
  3  7  1  0  0  0  0
  4  8  1  0  0  0  0
  5  7  1  0  0  0  0
  5  8  1  0  0  0  0
  6  8  1  0  0  0  0
  6 12  1  0  0  0  0
  7 11  1  0  0  0  0
  8 13  1  0  0  0  0
 10 11  1  0  0  0  0
  1 14  1  0  0  0  0
  2 15  1  0  0  0  0
  3 16  1  0  0  0  0
  3 17  1  0  0  0  0
  3 18  1  0  0  0  0
  4 19  1  0  0  0  0
  4 20  1  0  0  0  0
  4 21  1  0  0  0  0
  5 22  1  0  0  0  0
  5 23  1  0  0  0  0
  6 24  1  0  0  0  0
  6 25  1  0  0  0  0
  7 26  1  0  0  0  0
 12 27  1  0  0  0  0
 12 28  1  0  0  0  0
 13 29  1  0  0  0  0
M  END
> <FRED Chemgauss4 score>
-7.603136

$$$$
C41050725	P62314175
  -OEChem-05122015313D

 18 18  0     1  0  0  0  0  0999 V2000
  125.6625  105.5608  108.0288 C   0  0  0  0  0  0  0  0  0  0  0  0
  126.5692  107.3972  107.6255 C   0  0  0  0  0  0  0  0  0  0  0  0
  123.7776  104.4478  106.7637 C   0  0  0  0  0  0  0  0  0  0  0  0
  124.8708  104.2882  107.8183 C   0  0  2  0  0  0  0  0  0  0  0  0
  125.8468  106.4756  107.0319 N   0  0  0  0  0  0  0  0  0  0  0  0
  126.2253  105.8585  109.2019 N   0  0  0  0  0  0  0  0  0  0  0  0
  126.7986  107.0376  108.9169 N   0  0  0  0  0  0  0  0  0  0  0  0
  127.0744  108.5591  107.1616 N   0  0  0  0  0  0  0  0  0  0  0  0
  124.3123  103.8064  109.0608 N   0  0  0  0  0  0  0  0  0  0  0  0
  123.0657  105.2303  107.0487 H   0  0  0  0  0  0  0  0  0  0  0  0
  124.2141  104.7220  105.7967 H   0  0  0  0  0  0  0  0  0  0  0  0
  123.2160  103.5192  106.6115 H   0  0  0  0  0  0  0  0  0  0  0  0
  125.5484  103.4954  107.4783 H   0  0  0  0  0  0  0  0  0  0  0  0
  127.3167  107.5255  109.6378 H   0  0  0  0  0  0  0  0  0  0  0  0
  126.9680  108.8503  106.1781 H   0  0  0  0  0  0  0  0  0  0  0  0
  127.6714  109.1682  107.7411 H   0  0  0  0  0  0  0  0  0  0  0  0
  124.8366  103.9311  109.9082 H   0  0  0  0  0  0  0  0  0  0  0  0
  123.5233  103.1858  109.0287 H   0  0  0  0  0  0  0  0  0  0  0  0
  1  4  1  0  0  0  0
  1  5  1  0  0  0  0
  1  6  2  0  0  0  0
  2  5  2  0  0  0  0
  2  7  1  0  0  0  0
  2  8  1  0  0  0  0
  3  4  1  0  0  0  0
  4  9  1  0  0  0  0
  6  7  1  0  0  0  0
  3 10  1  0  0  0  0
  3 11  1  0  0  0  0
  3 12  1  0  0  0  0
  4 13  1  0  0  0  0
  7 14  1  0  0  0  0
  8 15  1  0  0  0  0
  8 16  1  0  0  0  0
  9 17  1  0  0  0  0
  9 18  1  0  0  0  0
M  END
> <FRED Chemgauss4 score>
-7.601346

$$$$
C36915741	P54887083
  -OEChem-05122015313D

 28 28  0     1  0  0  0  0  0999 V2000
  126.0502  106.2557  106.8644 C   0  0  0  0  0  0  0  0  0  0  0  0
  125.3916  107.8908  107.9471 C   0  0  0  0  0  0  0  0  0  0  0  0
  125.7691  103.8933  108.7782 C   0  0  0  0  0  0  0  0  0  0  0  0
  123.4973  109.1767  111.1218 C   0  0  0  0  0  0  0  0  0  0  0  0
  126.2989  104.8633  106.4751 C   0  0  0  0  0  0  0  0  0  0  0  0
  125.4614  103.8515  107.2897 C   0  0  0  0  0  0  0  0  0  0  0  0
  124.8101  108.9066  108.9208 C   0  0  2  0  0  0  0  0  0  0  0  0
  124.1599  108.2108  110.1416 C   0  0  2  0  0  0  0  0  0  0  0  0
  125.3764  106.5831  108.0049 N   0  0  0  0  0  0  0  0  0  0  0  0
  126.4711  107.2845  106.1227 N   0  0  0  0  0  0  0  0  0  0  0  0
  123.8664  109.7913  108.2286 N   0  0  0  0  0  0  0  0  0  0  0  0
  126.0256  108.3922  106.8548 O   0  0  0  0  0  0  0  0  0  0  0  0
  123.1445  107.3127  109.6808 O   0  0  0  0  0  0  0  0  0  0  0  0
  126.8289  103.6930  108.9653 H   0  0  0  0  0  0  0  0  0  0  0  0
  125.5235  104.8722  109.2021 H   0  0  0  0  0  0  0  0  0  0  0  0
  125.1820  103.1367  109.3081 H   0  0  0  0  0  0  0  0  0  0  0  0
  122.7517  109.8088  110.6316 H   0  0  0  0  0  0  0  0  0  0  0  0
  124.2429  109.8193  111.6030 H   0  0  0  0  0  0  0  0  0  0  0  0
  122.9979  108.6213  111.9237 H   0  0  0  0  0  0  0  0  0  0  0  0
  126.0869  104.6935  105.3965 H   0  0  0  0  0  0  0  0  0  0  0  0
  127.3709  104.5895  106.5877 H   0  0  0  0  0  0  0  0  0  0  0  0
  124.3945  104.0557  107.1380 H   0  0  0  0  0  0  0  0  0  0  0  0
  125.6466  102.8381  106.9133 H   0  0  0  0  0  0  0  0  0  0  0  0
  125.6336  109.5329  109.2893 H   0  0  0  0  0  0  0  0  0  0  0  0
  124.8932  107.6080  110.6894 H   0  0  0  0  0  0  0  0  0  0  0  0
  124.0604  110.0244  107.2822 H   0  0  0  0  0  0  0  0  0  0  0  0
  123.1979  110.2768  108.7809 H   0  0  0  0  0  0  0  0  0  0  0  0
  122.8080  106.8598  110.4673 H   0  0  0  0  0  0  0  0  0  0  0  0
  1  5  1  0  0  0  0
  1  9  1  0  0  0  0
  1 10  2  0  0  0  0
  2  7  1  0  0  0  0
  2  9  2  0  0  0  0
  2 12  1  0  0  0  0
  3  6  1  0  0  0  0
  4  8  1  0  0  0  0
  5  6  1  0  0  0  0
  7  8  1  0  0  0  0
  7 11  1  0  0  0  0
  8 13  1  0  0  0  0
 10 12  1  0  0  0  0
  3 14  1  0  0  0  0
  3 15  1  0  0  0  0
  3 16  1  0  0  0  0
  4 17  1  0  0  0  0
  4 18  1  0  0  0  0
  4 19  1  0  0  0  0
  5 20  1  0  0  0  0
  5 21  1  0  0  0  0
  6 22  1  0  0  0  0
  6 23  1  0  0  0  0
  7 24  1  0  0  0  0
  8 25  1  0  0  0  0
 11 26  1  0  0  0  0
 11 27  1  0  0  0  0
 13 28  1  0  0  0  0
M  END
> <FRED Chemgauss4 score>
-7.599899

$$$$
C82897720	P129591541
  -OEChem-05122015313D

 27 27  0     1  0  0  0  0  0999 V2000
  122.7281  105.3713  106.9596 C   0  0  0  0  0  0  0  0  0  0  0  0
  122.3649  106.5432  107.6499 C   0  0  0  0  0  0  0  0  0  0  0  0
  123.9921  105.0833  107.4133 C   0  0  0  0  0  0  0  0  0  0  0  0
  121.1024  107.2935  107.5418 C   0  0  0  0  0  0  0  0  0  0  0  0
  124.9155  103.9848  107.0752 C   0  0  0  0  0  0  0  0  0  0  0  0
  125.5779  106.2035  109.1003 C   0  0  0  0  0  0  0  0  0  0  0  0
  126.8220  107.5217  107.2674 C   0  0  0  0  0  0  0  0  0  0  0  0
  126.8331  106.3142  108.2141 C   0  0  1  0  0  0  0  0  0  0  0  0
  123.3208  106.9703  108.4792 N   0  0  0  0  0  0  0  0  0  0  0  0
  124.2971  106.0619  108.3130 N   0  0  0  0  0  0  0  0  0  0  0  0
  128.0102  106.4082  109.0854 N   0  0  0  0  0  0  0  0  0  0  0  0
  126.7379  108.7401  107.9944 O   0  0  0  0  0  0  0  0  0  0  0  0
  122.1544  104.8132  106.2336 H   0  0  0  0  0  0  0  0  0  0  0  0
  120.3556  106.9279  108.2674 H   0  0  0  0  0  0  0  0  0  0  0  0
  121.2421  108.3739  107.7247 H   0  0  0  0  0  0  0  0  0  0  0  0
  120.6544  107.2134  106.5350 H   0  0  0  0  0  0  0  0  0  0  0  0
  125.5666  104.2575  106.2278 H   0  0  0  0  0  0  0  0  0  0  0  0
  125.5680  103.7144  107.9238 H   0  0  0  0  0  0  0  0  0  0  0  0
  124.3782  103.0605  106.7994 H   0  0  0  0  0  0  0  0  0  0  0  0
  125.4826  107.1017  109.7267 H   0  0  0  0  0  0  0  0  0  0  0  0
  125.6749  105.3679  109.8063 H   0  0  0  0  0  0  0  0  0  0  0  0
  127.7371  107.5454  106.6664 H   0  0  0  0  0  0  0  0  0  0  0  0
  125.9734  107.4697  106.5757 H   0  0  0  0  0  0  0  0  0  0  0  0
  126.9403  105.4057  107.6089 H   0  0  0  0  0  0  0  0  0  0  0  0
  128.8357  106.8094  108.7048 H   0  0  0  0  0  0  0  0  0  0  0  0
  127.9989  105.8918  109.9342 H   0  0  0  0  0  0  0  0  0  0  0  0
  126.7353  109.4572  107.3399 H   0  0  0  0  0  0  0  0  0  0  0  0
  1  2  1  0  0  0  0
  1  3  2  0  0  0  0
  2  4  1  0  0  0  0
  2  9  2  0  0  0  0
  3  5  1  0  0  0  0
  3 10  1  0  0  0  0
  6  8  1  0  0  0  0
  6 10  1  0  0  0  0
  7  8  1  0  0  0  0
  7 12  1  0  0  0  0
  8 11  1  0  0  0  0
  9 10  1  0  0  0  0
  1 13  1  0  0  0  0
  4 14  1  0  0  0  0
  4 15  1  0  0  0  0
  4 16  1  0  0  0  0
  5 17  1  0  0  0  0
  5 18  1  0  0  0  0
  5 19  1  0  0  0  0
  6 20  1  0  0  0  0
  6 21  1  0  0  0  0
  7 22  1  0  0  0  0
  7 23  1  0  0  0  0
  8 24  1  0  0  0  0
 11 25  1  0  0  0  0
 11 26  1  0  0  0  0
 12 27  1  0  0  0  0
M  END
> <FRED Chemgauss4 score>
-7.596086

$$$$
C62939634	P96575290
  -OEChem-05122015313D

 25 26  0     0  0  0  0  0  0999 V2000
  125.4512  103.8870  108.2817 C   0  0  0  0  0  0  0  0  0  0  0  0
  125.8018  105.0303  107.6030 C   0  0  0  0  0  0  0  0  0  0  0  0
  123.6231  104.7016  107.5571 C   0  0  0  0  0  0  0  0  0  0  0  0
  124.4804  106.6946  106.4016 C   0  0  0  0  0  0  0  0  0  0  0  0
  126.4544  108.0055  107.2869 C   0  0  0  0  0  0  0  0  0  0  0  0
  122.1690  104.9448  107.2357 C   0  0  0  0  0  0  0  0  0  0  0  0
  121.6596  106.2856  107.7588 C   0  0  0  0  0  0  0  0  0  0  0  0
  124.0937  103.6879  108.2492 N   0  0  0  0  0  0  0  0  0  0  0  0
  123.5415  106.9274  105.5135 N   0  0  0  0  0  0  0  0  0  0  0  0
  123.7948  108.1902  105.0277 N   0  0  0  0  0  0  0  0  0  0  0  0
  124.8657  108.7185  105.6075 N   0  0  0  0  0  0  0  0  0  0  0  0
  124.6203  105.5409  107.1441 N   0  0  0  0  0  0  0  0  0  0  0  0
  125.2925  107.7817  106.4657 N   0  0  0  0  0  0  0  0  0  0  0  0
  121.7981  106.4103  109.1850 N   0  0  0  0  0  0  0  0  0  0  0  0
  126.1074  103.1971  108.7920 H   0  0  0  0  0  0  0  0  0  0  0  0
  126.7575  105.5017  107.4174 H   0  0  0  0  0  0  0  0  0  0  0  0
  127.3298  107.6510  106.7365 H   0  0  0  0  0  0  0  0  0  0  0  0
  126.5462  109.0732  107.5046 H   0  0  0  0  0  0  0  0  0  0  0  0
  126.3440  107.4567  108.2264 H   0  0  0  0  0  0  0  0  0  0  0  0
  121.5748  104.1343  107.6766 H   0  0  0  0  0  0  0  0  0  0  0  0
  122.0124  104.8783  106.1515 H   0  0  0  0  0  0  0  0  0  0  0  0
  122.2355  107.1029  107.3131 H   0  0  0  0  0  0  0  0  0  0  0  0
  120.6034  106.4396  107.5147 H   0  0  0  0  0  0  0  0  0  0  0  0
  121.1971  107.0475  109.6829 H   0  0  0  0  0  0  0  0  0  0  0  0
  122.6126  106.0238  109.6348 H   0  0  0  0  0  0  0  0  0  0  0  0
  1  2  2  0  0  0  0
  1  8  1  0  0  0  0
  2 12  1  0  0  0  0
  3  6  1  0  0  0  0
  3  8  2  0  0  0  0
  3 12  1  0  0  0  0
  4  9  2  0  0  0  0
  4 12  1  0  0  0  0
  4 13  1  0  0  0  0
  5 13  1  0  0  0  0
  6  7  1  0  0  0  0
  7 14  1  0  0  0  0
  9 10  1  0  0  0  0
 10 11  2  0  0  0  0
 11 13  1  0  0  0  0
  1 15  1  0  0  0  0
  2 16  1  0  0  0  0
  5 17  1  0  0  0  0
  5 18  1  0  0  0  0
  5 19  1  0  0  0  0
  6 20  1  0  0  0  0
  6 21  1  0  0  0  0
  7 22  1  0  0  0  0
  7 23  1  0  0  0  0
 14 24  1  0  0  0  0
 14 25  1  0  0  0  0
M  END
> <FRED Chemgauss4 score>
-7.595871

$$$$
C43016649	P65067557
  -OEChem-05122015313D

 36 37  0     1  0  0  0  0  0999 V2000
  118.3851  109.0716  107.8968 C   0  0  0  0  0  0  0  0  0  0  0  0
  118.6287  108.1677  106.8628 C   0  0  0  0  0  0  0  0  0  0  0  0
  117.0863  109.2553  108.3711 C   0  0  0  0  0  0  0  0  0  0  0  0
  116.2745  107.6311  106.7773 C   0  0  0  0  0  0  0  0  0  0  0  0
  119.4702  103.3476  106.2643 C   0  0  0  0  0  0  0  0  0  0  0  0
  117.5734  107.4474  106.3030 C   0  0  0  0  0  0  0  0  0  0  0  0
  116.0310  108.5351  107.8114 C   0  0  0  0  0  0  0  0  0  0  0  0
  120.4286  104.3652  106.4308 C   0  0  0  0  0  0  0  0  0  0  0  0
  118.3653  103.9946  105.7671 C   0  0  0  0  0  0  0  0  0  0  0  0
  121.8035  104.2282  106.9402 C   0  0  0  0  0  0  0  0  0  0  0  0
  117.0354  103.4857  105.3849 C   0  0  0  0  0  0  0  0  0  0  0  0
  117.4100  108.1421  103.2773 C   0  0  0  0  0  0  0  0  0  0  0  0
  117.8410  106.4576  105.1687 C   0  0  1  0  0  0  0  0  0  0  0  0
  118.3793  107.0994  103.8491 C   0  0  2  0  0  0  0  0  0  0  0  0
  119.9726  105.5673  106.0688 N   0  0  0  0  0  0  0  0  0  0  0  0
  118.7155  105.3091  105.6696 N   0  0  0  0  0  0  0  0  0  0  0  0
  119.6567  107.7852  104.0922 N   0  0  0  0  0  0  0  0  0  0  0  0
  114.4285  108.7630  108.3962 Cl  0  0  0  0  0  0  0  0  0  0  0  0
  119.2071  109.6323  108.3324 H   0  0  0  0  0  0  0  0  0  0  0  0
  119.6439  108.0310  106.4995 H   0  0  0  0  0  0  0  0  0  0  0  0
  116.9112  109.9634  109.1774 H   0  0  0  0  0  0  0  0  0  0  0  0
  115.4552  107.0668  106.3379 H   0  0  0  0  0  0  0  0  0  0  0  0
  119.5660  102.2923  106.4757 H   0  0  0  0  0  0  0  0  0  0  0  0
  122.5161  104.0289  106.1215 H   0  0  0  0  0  0  0  0  0  0  0  0
  122.1465  105.1377  107.4651 H   0  0  0  0  0  0  0  0  0  0  0  0
  121.8977  103.4047  107.6706 H   0  0  0  0  0  0  0  0  0  0  0  0
  116.3386  103.5088  106.2395 H   0  0  0  0  0  0  0  0  0  0  0  0
  116.5830  104.0767  104.5694 H   0  0  0  0  0  0  0  0  0  0  0  0
  117.0785  102.4454  105.0174 H   0  0  0  0  0  0  0  0  0  0  0  0
  117.2013  108.9358  104.0012 H   0  0  0  0  0  0  0  0  0  0  0  0
  117.8332  108.6265  102.3894 H   0  0  0  0  0  0  0  0  0  0  0  0
  116.4556  107.6872  102.9888 H   0  0  0  0  0  0  0  0  0  0  0  0
  116.8667  106.0198  104.8991 H   0  0  0  0  0  0  0  0  0  0  0  0
  118.5482  106.3353  103.0821 H   0  0  0  0  0  0  0  0  0  0  0  0
  119.9074  108.5214  103.4758 H   0  0  0  0  0  0  0  0  0  0  0  0
  120.2951  107.3577  104.7204 H   0  0  0  0  0  0  0  0  0  0  0  0
  1  2  2  0  0  0  0
  1  3  1  0  0  0  0
  2  6  1  0  0  0  0
  3  7  2  0  0  0  0
  4  6  2  0  0  0  0
  4  7  1  0  0  0  0
  5  8  1  0  0  0  0
  5  9  2  0  0  0  0
  6 13  1  0  0  0  0
  7 18  1  0  0  0  0
  8 10  1  0  0  0  0
  8 15  2  0  0  0  0
  9 11  1  0  0  0  0
  9 16  1  0  0  0  0
 12 14  1  0  0  0  0
 13 14  1  0  0  0  0
 13 16  1  0  0  0  0
 14 17  1  0  0  0  0
 15 16  1  0  0  0  0
  1 19  1  0  0  0  0
  2 20  1  0  0  0  0
  3 21  1  0  0  0  0
  4 22  1  0  0  0  0
  5 23  1  0  0  0  0
 10 24  1  0  0  0  0
 10 25  1  0  0  0  0
 10 26  1  0  0  0  0
 11 27  1  0  0  0  0
 11 28  1  0  0  0  0
 11 29  1  0  0  0  0
 12 30  1  0  0  0  0
 12 31  1  0  0  0  0
 12 32  1  0  0  0  0
 13 33  1  0  0  0  0
 14 34  1  0  0  0  0
 17 35  1  0  0  0  0
 17 36  1  0  0  0  0
M  END
> <FRED Chemgauss4 score>
-7.595654

$$$$
C17173856	P25815810
  -OEChem-05122015313D

 23 23  0     1  0  0  0  0  0999 V2000
  124.3940  108.0312  106.7570 C   0  0  0  0  0  0  0  0  0  0  0  0
  124.1332  106.7324  105.9915 C   0  0  1  0  0  0  0  0  0  0  0  0
  125.7721  108.0033  107.4093 C   0  0  1  0  0  0  0  0  0  0  0  0
  124.4128  105.4945  106.8540 C   0  0  2  0  0  0  0  0  0  0  0  0
  125.9543  106.7271  108.2325 C   0  0  1  0  0  0  0  0  0  0  0  0
  123.3494  105.2068  107.9154 C   0  0  0  0  0  0  0  0  0  0  0  0
  125.7208  105.5658  107.4339 O   0  0  0  0  0  0  0  0  0  0  0  0
  122.7976  106.7080  105.5066 O   0  0  0  0  0  0  0  0  0  0  0  0
  126.7737  108.0389  106.3904 O   0  0  0  0  0  0  0  0  0  0  0  0
  127.2805  106.7122  108.7571 O   0  0  0  0  0  0  0  0  0  0  0  0
  122.2506  104.5669  107.2918 O   0  0  0  0  0  0  0  0  0  0  0  0
  124.3218  108.8883  106.0751 H   0  0  0  0  0  0  0  0  0  0  0  0
  123.6306  108.1860  107.5298 H   0  0  0  0  0  0  0  0  0  0  0  0
  124.7965  106.7095  105.0950 H   0  0  0  0  0  0  0  0  0  0  0  0
  125.8920  108.8654  108.0410 H   0  0  0  0  0  0  0  0  0  0  0  0
  124.4171  104.6019  106.1551 H   0  0  0  0  0  0  0  0  0  0  0  0
  125.2707  106.7243  109.0688 H   0  0  0  0  0  0  0  0  0  0  0  0
  123.0127  106.1396  108.3684 H   0  0  0  0  0  0  0  0  0  0  0  0
  123.7581  104.5513  108.6849 H   0  0  0  0  0  0  0  0  0  0  0  0
  122.7045  107.4743  104.9205 H   0  0  0  0  0  0  0  0  0  0  0  0
  126.6406  108.8634  105.8952 H   0  0  0  0  0  0  0  0  0  0  0  0
  127.3631  105.8946  109.2711 H   0  0  0  0  0  0  0  0  0  0  0  0
  121.5902  104.3948  107.9844 H   0  0  0  0  0  0  0  0  0  0  0  0
  1  2  1  0  0  0  0
  1  3  1  0  0  0  0
  2  4  1  0  0  0  0
  2  8  1  0  0  0  0
  3  5  1  0  0  0  0
  3  9  1  0  0  0  0
  4  6  1  0  0  0  0
  4  7  1  0  0  0  0
  5  7  1  0  0  0  0
  5 10  1  0  0  0  0
  6 11  1  0  0  0  0
  1 12  1  0  0  0  0
  1 13  1  0  0  0  0
  2 14  1  0  0  0  0
  3 15  1  0  0  0  0
  4 16  1  0  0  0  0
  5 17  1  0  0  0  0
  6 18  1  0  0  0  0
  6 19  1  0  0  0  0
  8 20  1  0  0  0  0
  9 21  1  0  0  0  0
 10 22  1  0  0  0  0
 11 23  1  0  0  0  0
M  END
> <FRED Chemgauss4 score>
-7.591257

$$$$
5-dithiazole-oppedesano	P10000010
  -OEChem-05122015313D

 19 20  0     0  0  0  0  0  0999 V2000
  120.9857  104.9094  103.6499 C   0  0  0  0  0  0  0  0  0  0  0  0
  119.0680  103.7886  106.6516 C   0  0  0  0  0  0  0  0  0  0  0  0
  117.7765  103.7338  106.1276 C   0  0  0  0  0  0  0  0  0  0  0  0
  118.6173  104.4534  103.9800 C   0  0  0  0  0  0  0  0  0  0  0  0
  119.9089  104.5082  104.5040 C   0  0  0  0  0  0  0  0  0  0  0  0
  120.1342  104.1758  105.8398 C   0  0  0  0  0  0  0  0  0  0  0  0
  117.5511  104.0662  104.7918 C   0  0  0  0  0  0  0  0  0  0  0  0
  123.0573  105.6569  107.5625 C   0  0  0  0  0  0  0  0  0  0  0  0
  121.7635  105.3437  106.9157 C   0  0  0  0  0  0  0  0  0  0  0  0
  121.8585  105.2347  102.9577 N   0  0  0  0  0  0  0  0  0  0  0  0
  123.2106  106.6302  108.3996 N   0  0  0  0  0  0  0  0  0  0  0  0
  121.4211  104.2242  106.3942 N   0  0  0  0  0  0  0  0  0  0  0  0
  120.8720  106.8013  107.0030 S   0  0  0  0  0  0  0  0  0  0  0  0
  121.7924  107.4640  108.6875 S   0  0  0  0  0  0  0  0  0  0  0  0
  124.3864  104.6753  107.1436 Cl  0  0  0  0  0  0  0  0  0  0  0  0
  115.8004  103.9917  104.0831 Br  0  0  0  0  0  0  0  0  0  0  0  0
  119.2329  103.5279  107.6938 H   0  0  0  0  0  0  0  0  0  0  0  0
  116.9564  103.4304  106.7731 H   0  0  0  0  0  0  0  0  0  0  0  0
  118.4404  104.7125  102.9378 H   0  0  0  0  0  0  0  0  0  0  0  0
  1  5  1  0  0  0  0
  1 10  3  0  0  0  0
  2  3  1  0  0  0  0
  2  6  2  0  0  0  0
  3  7  2  0  0  0  0
  4  5  2  0  0  0  0
  4  7  1  0  0  0  0
  5  6  1  0  0  0  0
  6 12  1  0  0  0  0
  7 16  1  0  0  0  0
  8  9  1  0  0  0  0
  8 11  2  0  0  0  0
  8 15  1  0  0  0  0
  9 12  2  0  0  0  0
  9 13  1  0  0  0  0
 11 14  1  0  0  0  0
 13 14  1  0  0  0  0
  2 17  1  0  0  0  0
  3 18  1  0  0  0  0
  4 19  1  0  0  0  0
M  END
> <FRED Chemgauss4 score>
-7.590056

$$$$
C25174372	P37220313
  -OEChem-05122015313D

 38 41  0     1  0  0  0  0  0999 V2000
  120.6500  108.6523  108.7716 C   0  0  0  0  0  0  0  0  0  0  0  0
  122.6930  107.5549  108.0788 C   0  0  0  0  0  0  0  0  0  0  0  0
  120.1113  108.4654  107.4951 C   0  0  0  0  0  0  0  0  0  0  0  0
  120.8766  107.8171  106.5128 C   0  0  0  0  0  0  0  0  0  0  0  0
  121.9353  108.1908  109.0627 C   0  0  0  0  0  0  0  0  0  0  0  0
  122.1678  107.3731  106.8001 C   0  0  0  0  0  0  0  0  0  0  0  0
  118.7957  108.9937  107.1490 C   0  0  0  0  0  0  0  0  0  0  0  0
  118.2689  108.5803  105.9930 C   0  0  0  0  0  0  0  0  0  0  0  0
  117.0324  109.1253  105.3406 C   0  0  0  0  0  0  0  0  0  0  0  0
  117.1556  108.6529  103.8898 C   0  0  0  0  0  0  0  0  0  0  0  0
  118.6183  108.2376  103.7277 C   0  0  0  0  0  0  0  0  0  0  0  0
  118.5613  105.7609  106.5513 C   0  0  0  0  0  0  0  0  0  0  0  0
  119.1291  105.3647  104.2450 C   0  0  0  0  0  0  0  0  0  0  0  0
  117.9933  104.3464  106.6249 C   0  0  0  0  0  0  0  0  0  0  0  0
  118.5467  103.9600  104.3726 C   0  0  0  0  0  0  0  0  0  0  0  0
  118.9984  107.6237  105.0818 C   0  0  2  0  0  0  0  0  0  0  0  0
  118.4487  106.2730  105.1785 N   0  0  0  0  0  0  0  0  0  0  0  0
  120.4256  107.6300  105.2268 O   0  0  0  0  0  0  0  0  0  0  0  0
  118.6790  103.4869  105.7134 O   0  0  0  0  0  0  0  0  0  0  0  0
  122.5913  108.4171  110.6383 Cl  0  0  0  0  0  0  0  0  0  0  0  0
  123.1406  106.5891  105.6083 Cl  0  0  0  0  0  0  0  0  0  0  0  0
  120.0692  109.1621  109.5377 H   0  0  0  0  0  0  0  0  0  0  0  0
  123.6965  107.2041  108.3111 H   0  0  0  0  0  0  0  0  0  0  0  0
  118.3103  109.7187  107.7902 H   0  0  0  0  0  0  0  0  0  0  0  0
  116.1217  108.7302  105.8007 H   0  0  0  0  0  0  0  0  0  0  0  0
  117.0147  110.2191  105.3891 H   0  0  0  0  0  0  0  0  0  0  0  0
  116.4935  107.7961  103.7158 H   0  0  0  0  0  0  0  0  0  0  0  0
  116.8725  109.4355  103.1790 H   0  0  0  0  0  0  0  0  0  0  0  0
  118.7583  107.5457  102.8890 H   0  0  0  0  0  0  0  0  0  0  0  0
  119.2440  109.1145  103.5112 H   0  0  0  0  0  0  0  0  0  0  0  0
  118.0066  106.4045  107.2447 H   0  0  0  0  0  0  0  0  0  0  0  0
  119.6131  105.7486  106.8682 H   0  0  0  0  0  0  0  0  0  0  0  0
  120.2062  105.3346  104.4590 H   0  0  0  0  0  0  0  0  0  0  0  0
  118.9986  105.7113  103.2127 H   0  0  0  0  0  0  0  0  0  0  0  0
  118.1319  103.9420  107.6328 H   0  0  0  0  0  0  0  0  0  0  0  0
  116.9189  104.3305  106.4055 H   0  0  0  0  0  0  0  0  0  0  0  0
  117.4909  103.9303  104.0766 H   0  0  0  0  0  0  0  0  0  0  0  0
  119.0921  103.2696  103.7213 H   0  0  0  0  0  0  0  0  0  0  0  0
  1  3  2  0  0  0  0
  1  5  1  0  0  0  0
  2  5  2  0  0  0  0
  2  6  1  0  0  0  0
  3  4  1  0  0  0  0
  3  7  1  0  0  0  0
  4  6  2  0  0  0  0
  4 18  1  0  0  0  0
  5 20  1  0  0  0  0
  6 21  1  0  0  0  0
  7  8  2  0  0  0  0
  8  9  1  0  0  0  0
  8 16  1  0  0  0  0
  9 10  1  0  0  0  0
 10 11  1  0  0  0  0
 11 16  1  0  0  0  0
 12 14  1  0  0  0  0
 12 17  1  0  0  0  0
 13 15  1  0  0  0  0
 13 17  1  0  0  0  0
 14 19  1  0  0  0  0
 15 19  1  0  0  0  0
 16 17  1  0  0  0  0
 16 18  1  0  0  0  0
  1 22  1  0  0  0  0
  2 23  1  0  0  0  0
  7 24  1  0  0  0  0
  9 25  1  0  0  0  0
  9 26  1  0  0  0  0
 10 27  1  0  0  0  0
 10 28  1  0  0  0  0
 11 29  1  0  0  0  0
 11 30  1  0  0  0  0
 12 31  1  0  0  0  0
 12 32  1  0  0  0  0
 13 33  1  0  0  0  0
 13 34  1  0  0  0  0
 14 35  1  0  0  0  0
 14 36  1  0  0  0  0
 15 37  1  0  0  0  0
 15 38  1  0  0  0  0
M  END
> <FRED Chemgauss4 score>
-7.589222

$$$$
C91987417	P144000811
  -OEChem-05122015313D

 28 29  0     1  0  0  0  0  0999 V2000
  125.3884  106.8503  106.5882 C   0  0  0  0  0  0  0  0  0  0  0  0
  123.3858  106.2426  105.9787 C   0  0  0  0  0  0  0  0  0  0  0  0
  126.7444  106.8172  107.1875 C   0  0  0  0  0  0  0  0  0  0  0  0
  124.5637  104.5947  107.4277 C   0  0  0  0  0  0  0  0  0  0  0  0
  126.7368  106.6422  108.7095 C   0  0  0  0  0  0  0  0  0  0  0  0
  125.7533  104.4157  108.3768 C   0  0  0  0  0  0  0  0  0  0  0  0
  121.4191  105.6826  104.4885 C   0  0  0  0  0  0  0  0  0  0  0  0
  122.1553  105.4428  105.8227 C   0  0  2  0  0  0  0  0  0  0  0  0
  124.8728  107.8168  105.8537 N   0  0  0  0  0  0  0  0  0  0  0  0
  123.6072  107.4317  105.4689 N   0  0  0  0  0  0  0  0  0  0  0  0
  124.4760  105.8360  106.6904 N   0  0  0  0  0  0  0  0  0  0  0  0
  125.9140  105.5621  109.2631 N   0  0  0  0  0  0  0  0  0  0  0  0
  121.2166  105.6343  106.9238 N   0  0  0  0  0  0  0  0  0  0  0  0
  127.2978  105.9752  106.7458 H   0  0  0  0  0  0  0  0  0  0  0  0
  127.3009  107.7239  106.9066 H   0  0  0  0  0  0  0  0  0  0  0  0
  124.5742  103.7602  106.6919 H   0  0  0  0  0  0  0  0  0  0  0  0
  123.5980  104.4772  107.9723 H   0  0  0  0  0  0  0  0  0  0  0  0
  127.7774  106.5726  109.1057 H   0  0  0  0  0  0  0  0  0  0  0  0
  126.3439  107.5880  109.1421 H   0  0  0  0  0  0  0  0  0  0  0  0
  125.5391  103.5507  109.0042 H   0  0  0  0  0  0  0  0  0  0  0  0
  126.6709  104.2061  107.8298 H   0  0  0  0  0  0  0  0  0  0  0  0
  121.1603  106.7416  104.3809 H   0  0  0  0  0  0  0  0  0  0  0  0
  122.0319  105.3938  103.6272 H   0  0  0  0  0  0  0  0  0  0  0  0
  120.4920  105.1010  104.4331 H   0  0  0  0  0  0  0  0  0  0  0  0
  122.3808  104.3562  105.8558 H   0  0  0  0  0  0  0  0  0  0  0  0
  126.3599  105.2383  110.1259 H   0  0  0  0  0  0  0  0  0  0  0  0
  121.5873  105.7507  107.8424 H   0  0  0  0  0  0  0  0  0  0  0  0
  120.2523  105.4407  106.7581 H   0  0  0  0  0  0  0  0  0  0  0  0
  1  3  1  0  0  0  0
  1  9  2  0  0  0  0
  1 11  1  0  0  0  0
  2  8  1  0  0  0  0
  2 10  2  0  0  0  0
  2 11  1  0  0  0  0
  3  5  1  0  0  0  0
  4  6  1  0  0  0  0
  4 11  1  0  0  0  0
  5 12  1  0  0  0  0
  6 12  1  0  0  0  0
  7  8  1  0  0  0  0
  8 13  1  0  0  0  0
  9 10  1  0  0  0  0
  3 14  1  0  0  0  0
  3 15  1  0  0  0  0
  4 16  1  0  0  0  0
  4 17  1  0  0  0  0
  5 18  1  0  0  0  0
  5 19  1  0  0  0  0
  6 20  1  0  0  0  0
  6 21  1  0  0  0  0
  7 22  1  0  0  0  0
  7 23  1  0  0  0  0
  7 24  1  0  0  0  0
  8 25  1  0  0  0  0
 12 26  1  0  0  0  0
 13 27  1  0  0  0  0
 13 28  1  0  0  0  0
M  END
> <FRED Chemgauss4 score>
-7.583633

$$$$
C00392817	P06167783
  -OEChem-05122015313D

 24 24  0     1  0  0  0  0  0999 V2000
  125.9720  105.5542  108.4896 C   0  0  0  0  0  0  0  0  0  0  0  0
  125.3600  107.4751  106.4175 C   0  0  0  0  0  0  0  0  0  0  0  0
  125.3272  105.1013  107.1850 C   0  0  1  0  0  0  0  0  0  0  0  0
  126.6615  107.5680  107.1955 C   0  0  2  0  0  0  0  0  0  0  0  0
  127.8653  107.1479  106.3666 C   0  0  0  0  0  0  0  0  0  0  0  0
  123.4034  106.0898  105.8670 C   0  0  0  0  0  0  0  0  0  0  0  0
  124.4231  103.8941  107.4388 C   0  0  0  0  0  0  0  0  0  0  0  0
  126.5276  106.8159  108.4267 N   0  0  0  0  0  0  0  0  0  0  0  0
  124.6610  106.2712  106.5834 N   0  0  0  0  0  0  0  0  0  0  0  0
  126.0905  104.8269  109.4739 O   0  0  0  0  0  0  0  0  0  0  0  0
  125.0328  108.3789  105.6469 O   0  0  0  0  0  0  0  0  0  0  0  0
  123.4223  104.2654  108.3702 O   0  0  0  0  0  0  0  0  0  0  0  0
  126.1509  104.8129  106.5330 H   0  0  0  0  0  0  0  0  0  0  0  0
  126.7966  108.6427  107.4849 H   0  0  0  0  0  0  0  0  0  0  0  0
  127.7667  106.1042  106.0670 H   0  0  0  0  0  0  0  0  0  0  0  0
  128.7791  107.2628  106.9501 H   0  0  0  0  0  0  0  0  0  0  0  0
  127.9372  107.7669  105.4720 H   0  0  0  0  0  0  0  0  0  0  0  0
  123.5897  105.6375  104.8895 H   0  0  0  0  0  0  0  0  0  0  0  0
  122.9095  107.0541  105.7201 H   0  0  0  0  0  0  0  0  0  0  0  0
  122.7354  105.4369  106.4353 H   0  0  0  0  0  0  0  0  0  0  0  0
  125.0067  103.0689  107.8493 H   0  0  0  0  0  0  0  0  0  0  0  0
  123.9483  103.5794  106.5085 H   0  0  0  0  0  0  0  0  0  0  0  0
  126.8619  107.2412  109.2959 H   0  0  0  0  0  0  0  0  0  0  0  0
  122.8629  103.4833  108.5139 H   0  0  0  0  0  0  0  0  0  0  0  0
  1  3  1  0  0  0  0
  1  8  1  0  0  0  0
  1 10  2  0  0  0  0
  2  4  1  0  0  0  0
  2  9  1  0  0  0  0
  2 11  2  0  0  0  0
  3  7  1  0  0  0  0
  3  9  1  0  0  0  0
  4  5  1  0  0  0  0
  4  8  1  0  0  0  0
  6  9  1  0  0  0  0
  7 12  1  0  0  0  0
  3 13  1  0  0  0  0
  4 14  1  0  0  0  0
  5 15  1  0  0  0  0
  5 16  1  0  0  0  0
  5 17  1  0  0  0  0
  6 18  1  0  0  0  0
  6 19  1  0  0  0  0
  6 20  1  0  0  0  0
  7 21  1  0  0  0  0
  7 22  1  0  0  0  0
  8 23  1  0  0  0  0
 12 24  1  0  0  0  0
M  END
> <FRED Chemgauss4 score>
-7.582847

$$$$
C88001858	P137647862
  -OEChem-05122015313D

 23 23  0     1  0  0  0  0  0999 V2000
  125.9547  106.2239  107.2129 C   0  0  0  0  0  0  0  0  0  0  0  0
  124.9036  108.0931  107.5455 C   0  0  0  0  0  0  0  0  0  0  0  0
  124.1847  106.1550  108.9833 C   0  0  0  0  0  0  0  0  0  0  0  0
  123.6654  110.7554  111.4164 C   0  0  0  0  0  0  0  0  0  0  0  0
  124.1222  109.2968  109.6313 C   0  0  0  0  0  0  0  0  0  0  0  0
  123.9323  109.0987  108.1252 C   0  0  2  0  0  0  0  0  0  0  0  0
  126.4573  107.1120  106.3853 N   0  0  0  0  0  0  0  0  0  0  0  0
  125.7886  108.3012  106.5969 N   0  0  0  0  0  0  0  0  0  0  0  0
  124.9735  106.7985  107.9625 N   0  0  0  0  0  0  0  0  0  0  0  0
  122.5646  108.7213  107.8389 N   0  0  0  0  0  0  0  0  0  0  0  0
  123.5068  110.5190  110.0251 O   0  0  0  0  0  0  0  0  0  0  0  0
  126.2534  105.1897  107.3077 H   0  0  0  0  0  0  0  0  0  0  0  0
  124.7049  106.2750  109.9373 H   0  0  0  0  0  0  0  0  0  0  0  0
  123.1957  106.6196  109.0262 H   0  0  0  0  0  0  0  0  0  0  0  0
  124.0722  105.0951  108.7386 H   0  0  0  0  0  0  0  0  0  0  0  0
  123.1828  111.6986  111.6839 H   0  0  0  0  0  0  0  0  0  0  0  0
  124.7298  110.7962  111.6610 H   0  0  0  0  0  0  0  0  0  0  0  0
  123.1971  109.9390  111.9713 H   0  0  0  0  0  0  0  0  0  0  0  0
  123.6443  108.4884  110.1957 H   0  0  0  0  0  0  0  0  0  0  0  0
  125.1811  109.3401  109.9087 H   0  0  0  0  0  0  0  0  0  0  0  0
  124.0695  110.0672  107.6278 H   0  0  0  0  0  0  0  0  0  0  0  0
  122.3612  108.2727  106.9651 H   0  0  0  0  0  0  0  0  0  0  0  0
  121.8317  109.0921  108.4149 H   0  0  0  0  0  0  0  0  0  0  0  0
  1  7  2  0  0  0  0
  1  9  1  0  0  0  0
  2  6  1  0  0  0  0
  2  8  2  0  0  0  0
  2  9  1  0  0  0  0
  3  9  1  0  0  0  0
  4 11  1  0  0  0  0
  5  6  1  0  0  0  0
  5 11  1  0  0  0  0
  6 10  1  0  0  0  0
  7  8  1  0  0  0  0
  1 12  1  0  0  0  0
  3 13  1  0  0  0  0
  3 14  1  0  0  0  0
  3 15  1  0  0  0  0
  4 16  1  0  0  0  0
  4 17  1  0  0  0  0
  4 18  1  0  0  0  0
  5 19  1  0  0  0  0
  5 20  1  0  0  0  0
  6 21  1  0  0  0  0
 10 22  1  0  0  0  0
 10 23  1  0  0  0  0
M  END
> <FRED Chemgauss4 score>
-7.582401

$$$$
C90748852	P141950415
  -OEChem-05122015313D

 33 34  0     1  0  0  0  0  0999 V2000
  123.1881  106.2511  108.0586 C   0  0  0  0  0  0  0  0  0  0  0  0
  123.4890  105.0610  107.4282 C   0  0  0  0  0  0  0  0  0  0  0  0
  121.8652  106.6395  108.0009 C   0  0  0  0  0  0  0  0  0  0  0  0
  121.3211  104.7866  106.8019 C   0  0  0  0  0  0  0  0  0  0  0  0
  118.0314  103.9235  105.3919 C   0  0  0  0  0  0  0  0  0  0  0  0
  118.8632  104.1809  106.6240 C   0  0  0  0  0  0  0  0  0  0  0  0
  118.8921  104.5238  104.3019 C   0  0  0  0  0  0  0  0  0  0  0  0
  120.2743  103.9659  106.0967 C   0  0  1  0  0  0  0  0  0  0  0  0
  125.4043  104.2604  108.8552 C   0  0  0  0  0  0  0  0  0  0  0  0
  125.8643  105.5101  106.7191 C   0  0  0  0  0  0  0  0  0  0  0  0
  125.0571  103.1595  106.6531 C   0  0  0  0  0  0  0  0  0  0  0  0
  124.9208  104.5009  107.4086 C   0  0  0  0  0  0  0  0  0  0  0  0
  122.5769  104.3004  106.7879 N   0  0  0  0  0  0  0  0  0  0  0  0
  120.9018  105.9290  107.3786 N   0  0  0  0  0  0  0  0  0  0  0  0
  120.2567  104.3307  104.7021 O   0  0  0  0  0  0  0  0  0  0  0  0
  121.2630  108.0856  108.7167 Cl  0  0  0  0  0  0  0  0  0  0  0  0
  124.5197  107.2672  108.9404 Br  0  0  0  0  0  0  0  0  0  0  0  0
  117.9288  102.8433  105.2346 H   0  0  0  0  0  0  0  0  0  0  0  0
  117.0307  104.3607  105.4371 H   0  0  0  0  0  0  0  0  0  0  0  0
  118.7118  105.2154  106.9588 H   0  0  0  0  0  0  0  0  0  0  0  0
  118.6183  103.5202  107.4613 H   0  0  0  0  0  0  0  0  0  0  0  0
  118.7236  104.0565  103.3277 H   0  0  0  0  0  0  0  0  0  0  0  0
  118.7205  105.6016  104.2083 H   0  0  0  0  0  0  0  0  0  0  0  0
  120.5619  102.9068  106.1528 H   0  0  0  0  0  0  0  0  0  0  0  0
  126.4248  103.8602  108.8695 H   0  0  0  0  0  0  0  0  0  0  0  0
  125.4137  105.1817  109.4478 H   0  0  0  0  0  0  0  0  0  0  0  0
  124.7571  103.5427  109.3732 H   0  0  0  0  0  0  0  0  0  0  0  0
  126.8989  105.1519  106.6821 H   0  0  0  0  0  0  0  0  0  0  0  0
  125.5537  105.6987  105.6848 H   0  0  0  0  0  0  0  0  0  0  0  0
  125.8675  106.4711  107.2470 H   0  0  0  0  0  0  0  0  0  0  0  0
  126.0938  102.8018  106.6669 H   0  0  0  0  0  0  0  0  0  0  0  0
  124.4404  102.3755  107.1079 H   0  0  0  0  0  0  0  0  0  0  0  0
  124.7645  103.2573  105.6011 H   0  0  0  0  0  0  0  0  0  0  0  0
  1  2  1  0  0  0  0
  1  3  2  0  0  0  0
  1 17  1  0  0  0  0
  2 12  1  0  0  0  0
  2 13  2  0  0  0  0
  3 14  1  0  0  0  0
  3 16  1  0  0  0  0
  4  8  1  0  0  0  0
  4 13  1  0  0  0  0
  4 14  2  0  0  0  0
  5  6  1  0  0  0  0
  5  7  1  0  0  0  0
  6  8  1  0  0  0  0
  7 15  1  0  0  0  0
  8 15  1  0  0  0  0
  9 12  1  0  0  0  0
 10 12  1  0  0  0  0
 11 12  1  0  0  0  0
  5 18  1  0  0  0  0
  5 19  1  0  0  0  0
  6 20  1  0  0  0  0
  6 21  1  0  0  0  0
  7 22  1  0  0  0  0
  7 23  1  0  0  0  0
  8 24  1  0  0  0  0
  9 25  1  0  0  0  0
  9 26  1  0  0  0  0
  9 27  1  0  0  0  0
 10 28  1  0  0  0  0
 10 29  1  0  0  0  0
 10 30  1  0  0  0  0
 11 31  1  0  0  0  0
 11 32  1  0  0  0  0
 11 33  1  0  0  0  0
M  END
> <FRED Chemgauss4 score>
-7.566892

$$$$
C03830888	P56794641
  -OEChem-05122015313D

 25 25  0     1  0  0  0  0  0999 V2000
  123.8350  106.3881  105.9714 C   0  0  1  0  0  0  0  0  0  0  0  0
  125.1717  107.1339  106.0474 C   0  0  2  0  0  0  0  0  0  0  0  0
  125.3261  107.9107  107.3601 C   0  0  2  0  0  0  0  0  0  0  0  0
  125.0033  107.0375  108.5812 C   0  0  2  0  0  0  0  0  0  0  0  0
  123.6621  105.5374  107.2357 C   0  0  1  0  0  0  0  0  0  0  0  0
  126.1285  106.0698  108.9407 C   0  0  0  0  0  0  0  0  0  0  0  0
  122.7210  107.2996  105.8019 N   0  0  0  0  0  0  0  0  0  0  0  0
  123.7580  106.3431  108.4121 O   0  0  0  0  0  0  0  0  0  0  0  0
  125.3269  107.9908  104.9222 O   0  0  0  0  0  0  0  0  0  0  0  0
  124.4447  109.0378  107.3671 O   0  0  0  0  0  0  0  0  0  0  0  0
  122.4005  104.8742  107.1796 O   0  0  0  0  0  0  0  0  0  0  0  0
  127.2955  106.8206  109.2212 O   0  0  0  0  0  0  0  0  0  0  0  0
  123.8817  105.7170  105.1231 H   0  0  0  0  0  0  0  0  0  0  0  0
  126.0190  106.3891  105.9639 H   0  0  0  0  0  0  0  0  0  0  0  0
  126.3487  108.2843  107.4358 H   0  0  0  0  0  0  0  0  0  0  0  0
  124.8886  107.7208  109.4825 H   0  0  0  0  0  0  0  0  0  0  0  0
  124.4328  104.7825  107.2790 H   0  0  0  0  0  0  0  0  0  0  0  0
  126.3234  105.3994  108.1038 H   0  0  0  0  0  0  0  0  0  0  0  0
  125.8526  105.4895  109.8210 H   0  0  0  0  0  0  0  0  0  0  0  0
  121.8154  106.9862  106.0738 H   0  0  0  0  0  0  0  0  0  0  0  0
  122.8624  108.1109  105.2416 H   0  0  0  0  0  0  0  0  0  0  0  0
  125.2992  107.4206  104.1396 H   0  0  0  0  0  0  0  0  0  0  0  0
  124.5802  109.4930  108.2136 H   0  0  0  0  0  0  0  0  0  0  0  0
  122.3286  104.3493  107.9917 H   0  0  0  0  0  0  0  0  0  0  0  0
  127.9964  106.1854  109.4469 H   0  0  0  0  0  0  0  0  0  0  0  0
  1  2  1  0  0  0  0
  1  5  1  0  0  0  0
  1  7  1  0  0  0  0
  2  3  1  0  0  0  0
  2  9  1  0  0  0  0
  3  4  1  0  0  0  0
  3 10  1  0  0  0  0
  4  6  1  0  0  0  0
  4  8  1  0  0  0  0
  5  8  1  0  0  0  0
  5 11  1  0  0  0  0
  6 12  1  0  0  0  0
  1 13  1  0  0  0  0
  2 14  1  0  0  0  0
  3 15  1  0  0  0  0
  4 16  1  0  0  0  0
  5 17  1  0  0  0  0
  6 18  1  0  0  0  0
  6 19  1  0  0  0  0
  7 20  1  0  0  0  0
  7 21  1  0  0  0  0
  9 22  1  0  0  0  0
 10 23  1  0  0  0  0
 11 24  1  0  0  0  0
 12 25  1  0  0  0  0
M  END
> <FRED Chemgauss4 score>
-7.565625

$$$$
C82987577	P129755020
  -OEChem-05122015313D

 27 27  0     1  0  0  0  0  0999 V2000
  123.7060  104.6412  107.2371 C   0  0  0  0  0  0  0  0  0  0  0  0
  125.8256  105.1948  107.4255 C   0  0  0  0  0  0  0  0  0  0  0  0
  125.0115  104.1192  107.1671 C   0  0  0  0  0  0  0  0  0  0  0  0
  125.4157  102.7329  106.8838 C   0  0  0  0  0  0  0  0  0  0  0  0
  123.5510  108.4236  109.5559 C   0  0  0  0  0  0  0  0  0  0  0  0
  126.4006  108.1852  106.8779 C   0  0  0  0  0  0  0  0  0  0  0  0
  125.4075  107.6874  107.9499 C   0  0  1  0  0  0  0  0  0  0  0  0
  124.1830  108.6232  108.1732 C   0  0  1  0  0  0  0  0  0  0  0  0
  123.6871  105.9468  107.5181 N   0  0  0  0  0  0  0  0  0  0  0  0
  124.9908  106.2543  107.6271 N   0  0  0  0  0  0  0  0  0  0  0  0
  123.1412  108.3652  107.1722 N   0  0  0  0  0  0  0  0  0  0  0  0
  125.7753  108.3045  105.6074 O   0  0  0  0  0  0  0  0  0  0  0  0
  122.7661  104.1264  107.0962 H   0  0  0  0  0  0  0  0  0  0  0  0
  126.9012  105.2937  107.4830 H   0  0  0  0  0  0  0  0  0  0  0  0
  125.5580  102.5691  105.8014 H   0  0  0  0  0  0  0  0  0  0  0  0
  126.3614  102.4617  107.3871 H   0  0  0  0  0  0  0  0  0  0  0  0
  124.6673  101.9991  107.2344 H   0  0  0  0  0  0  0  0  0  0  0  0
  123.2312  107.3860  109.7044 H   0  0  0  0  0  0  0  0  0  0  0  0
  124.2515  108.6798  110.3569 H   0  0  0  0  0  0  0  0  0  0  0  0
  122.6730  109.0675  109.6835 H   0  0  0  0  0  0  0  0  0  0  0  0
  127.2325  107.4799  106.7755 H   0  0  0  0  0  0  0  0  0  0  0  0
  126.8244  109.1585  107.1502 H   0  0  0  0  0  0  0  0  0  0  0  0
  125.9724  107.6546  108.8935 H   0  0  0  0  0  0  0  0  0  0  0  0
  124.4814  109.6741  108.0832 H   0  0  0  0  0  0  0  0  0  0  0  0
  123.4326  108.1579  106.2453 H   0  0  0  0  0  0  0  0  0  0  0  0
  122.2060  108.6057  107.4066 H   0  0  0  0  0  0  0  0  0  0  0  0
  126.4545  108.6194  104.9891 H   0  0  0  0  0  0  0  0  0  0  0  0
  1  3  1  0  0  0  0
  1  9  2  0  0  0  0
  2  3  2  0  0  0  0
  2 10  1  0  0  0  0
  3  4  1  0  0  0  0
  5  8  1  0  0  0  0
  6  7  1  0  0  0  0
  6 12  1  0  0  0  0
  7  8  1  0  0  0  0
  7 10  1  0  0  0  0
  8 11  1  0  0  0  0
  9 10  1  0  0  0  0
  1 13  1  0  0  0  0
  2 14  1  0  0  0  0
  4 15  1  0  0  0  0
  4 16  1  0  0  0  0
  4 17  1  0  0  0  0
  5 18  1  0  0  0  0
  5 19  1  0  0  0  0
  5 20  1  0  0  0  0
  6 21  1  0  0  0  0
  6 22  1  0  0  0  0
  7 23  1  0  0  0  0
  8 24  1  0  0  0  0
 11 25  1  0  0  0  0
 11 26  1  0  0  0  0
 12 27  1  0  0  0  0
M  END
> <FRED Chemgauss4 score>
-7.563675

$$$$
C86553403	P135506298
  -OEChem-05122015313D

 28 28  0     1  0  0  0  0  0999 V2000
  125.9469  106.6980  108.5091 C   0  0  0  0  0  0  0  0  0  0  0  0
  124.8113  106.7492  107.6785 C   0  0  0  0  0  0  0  0  0  0  0  0
  124.4362  105.4364  107.5285 C   0  0  0  0  0  0  0  0  0  0  0  0
  123.3257  104.8208  106.7775 C   0  0  0  0  0  0  0  0  0  0  0  0
  125.3631  103.2713  108.4050 C   0  0  0  0  0  0  0  0  0  0  0  0
  123.9153  109.1853  109.3577 C   0  0  0  0  0  0  0  0  0  0  0  0
  124.1563  107.9769  107.0874 C   0  0  1  0  0  0  0  0  0  0  0  0
  124.3910  109.2669  107.9024 C   0  0  2  0  0  0  0  0  0  0  0  0
  126.2717  105.4515  108.8621 N   0  0  0  0  0  0  0  0  0  0  0  0
  125.3346  104.7072  108.2505 N   0  0  0  0  0  0  0  0  0  0  0  0
  125.8003  109.6099  107.8754 N   0  0  0  0  0  0  0  0  0  0  0  0
  123.7324  110.4775  109.9221 O   0  0  0  0  0  0  0  0  0  0  0  0
  124.6921  108.1453  105.7708 O   0  0  0  0  0  0  0  0  0  0  0  0
  126.5527  107.5154  108.8733 H   0  0  0  0  0  0  0  0  0  0  0  0
  123.6296  104.5769  105.7461 H   0  0  0  0  0  0  0  0  0  0  0  0
  122.9713  103.8889  107.2510 H   0  0  0  0  0  0  0  0  0  0  0  0
  122.4463  105.4854  106.7188 H   0  0  0  0  0  0  0  0  0  0  0  0
  125.9801  102.8579  107.6027 H   0  0  0  0  0  0  0  0  0  0  0  0
  125.7858  103.0183  109.3813 H   0  0  0  0  0  0  0  0  0  0  0  0
  124.3433  102.8810  108.3442 H   0  0  0  0  0  0  0  0  0  0  0  0
  124.6482  108.6572  109.9755 H   0  0  0  0  0  0  0  0  0  0  0  0
  122.9679  108.6403  109.4357 H   0  0  0  0  0  0  0  0  0  0  0  0
  123.0805  107.8018  106.9611 H   0  0  0  0  0  0  0  0  0  0  0  0
  123.8902  110.1144  107.4188 H   0  0  0  0  0  0  0  0  0  0  0  0
  126.1618  110.2060  108.5944 H   0  0  0  0  0  0  0  0  0  0  0  0
  126.3240  109.4169  107.0437 H   0  0  0  0  0  0  0  0  0  0  0  0
  123.4336  110.3436  110.8360 H   0  0  0  0  0  0  0  0  0  0  0  0
  125.6473  108.2578  105.8804 H   0  0  0  0  0  0  0  0  0  0  0  0
  1  2  1  0  0  0  0
  1  9  2  0  0  0  0
  2  3  2  0  0  0  0
  2  7  1  0  0  0  0
  3  4  1  0  0  0  0
  3 10  1  0  0  0  0
  5 10  1  0  0  0  0
  6  8  1  0  0  0  0
  6 12  1  0  0  0  0
  7  8  1  0  0  0  0
  7 13  1  0  0  0  0
  8 11  1  0  0  0  0
  9 10  1  0  0  0  0
  1 14  1  0  0  0  0
  4 15  1  0  0  0  0
  4 16  1  0  0  0  0
  4 17  1  0  0  0  0
  5 18  1  0  0  0  0
  5 19  1  0  0  0  0
  5 20  1  0  0  0  0
  6 21  1  0  0  0  0
  6 22  1  0  0  0  0
  7 23  1  0  0  0  0
  8 24  1  0  0  0  0
 11 25  1  0  0  0  0
 11 26  1  0  0  0  0
 12 27  1  0  0  0  0
 13 28  1  0  0  0  0
M  END
> <FRED Chemgauss4 score>
-7.559235

$$$$
C63932433	P98159463
  -OEChem-05122015313D

 16 16  0     1  0  0  0  0  0999 V2000
  124.7074  106.5548  107.1682 C   0  0  0  0  0  0  0  0  0  0  0  0
  123.1420  105.2612  108.6512 C   0  0  0  0  0  0  0  0  0  0  0  0
  123.6239  107.6188  108.9521 C   0  0  0  0  0  0  0  0  0  0  0  0
  124.2922  105.1778  107.7320 C   0  0  2  0  0  0  0  0  0  0  0  0
  124.4049  107.6393  107.8250 N   0  0  0  0  0  0  0  0  0  0  0  0
  122.9054  106.4154  109.2501 N   0  3  0  0  0  0  0  0  0  0  0  0
  122.4416  104.1542  108.8585 N   0  0  0  0  0  0  0  0  0  0  0  0
  125.4880  104.6204  108.3825 N   0  0  0  0  0  0  0  0  0  0  0  0
  125.3507  106.5378  106.0945 O   0  5  0  0  0  0  0  0  0  0  0  0
  123.3987  108.9646  109.9387 S   0  0  0  0  0  0  0  0  0  0  0  0
  124.0204  104.5258  106.8892 H   0  0  0  0  0  0  0  0  0  0  0  0
  122.1796  106.4237  109.9614 H   0  0  0  0  0  0  0  0  0  0  0  0
  122.6984  103.2878  108.3953 H   0  0  0  0  0  0  0  0  0  0  0  0
  121.6407  104.1604  109.4828 H   0  0  0  0  0  0  0  0  0  0  0  0
  126.3704  104.8425  107.9874 H   0  0  0  0  0  0  0  0  0  0  0  0
  125.3527  103.8966  109.0473 H   0  0  0  0  0  0  0  0  0  0  0  0
  1  4  1  0  0  0  0
  1  5  2  0  0  0  0
  1  9  1  0  0  0  0
  2  4  1  0  0  0  0
  2  6  2  0  0  0  0
  2  7  1  0  0  0  0
  3  5  1  0  0  0  0
  3  6  1  0  0  0  0
  3 10  2  0  0  0  0
  4  8  1  0  0  0  0
  4 11  1  0  0  0  0
  6 12  1  0  0  0  0
  7 13  1  0  0  0  0
  7 14  1  0  0  0  0
  8 15  1  0  0  0  0
  8 16  1  0  0  0  0
M  CHG  2   6   1   9  -1
M  END
> <FRED Chemgauss4 score>
-7.559218

$$$$
C95922800	P151023651
  -OEChem-05122015313D

 15 15  0     0  0  0  0  0  0999 V2000
  125.0049  105.0929  108.2555 C   0  0  0  0  0  0  0  0  0  0  0  0
  123.8198  105.1772  107.3905 C   0  0  0  0  0  0  0  0  0  0  0  0
  125.8470  106.1402  108.2312 C   0  0  0  0  0  0  0  0  0  0  0  0
  124.3799  107.2516  106.5813 C   0  0  0  0  0  0  0  0  0  0  0  0
  123.5228  106.1660  106.6160 N   0  0  0  0  0  0  0  0  0  0  0  0
  125.5236  107.2029  107.3959 N   0  0  0  0  0  0  0  0  0  0  0  0
  126.9768  106.1328  109.0132 N   0  0  0  0  0  0  0  0  0  0  0  0
  126.3920  108.2955  107.3633 N   0  0  0  0  0  0  0  0  0  0  0  0
  124.1377  108.2202  105.8581 O   0  0  0  0  0  0  0  0  0  0  0  0
  125.1511  104.2105  108.8650 H   0  0  0  0  0  0  0  0  0  0  0  0
  123.1464  104.3060  107.4285 H   0  0  0  0  0  0  0  0  0  0  0  0
  127.1439  105.3399  109.5856 H   0  0  0  0  0  0  0  0  0  0  0  0
  127.5785  106.9206  108.9731 H   0  0  0  0  0  0  0  0  0  0  0  0
  126.8335  108.4312  108.2810 H   0  0  0  0  0  0  0  0  0  0  0  0
  125.8687  109.1625  107.1911 H   0  0  0  0  0  0  0  0  0  0  0  0
  1  2  1  0  0  0  0
  1  3  2  0  0  0  0
  2  5  2  0  0  0  0
  3  6  1  0  0  0  0
  3  7  1  0  0  0  0
  4  5  1  0  0  0  0
  4  6  1  0  0  0  0
  4  9  2  0  0  0  0
  6  8  1  0  0  0  0
  1 10  1  0  0  0  0
  2 11  1  0  0  0  0
  7 12  1  0  0  0  0
  7 13  1  0  0  0  0
  8 14  1  0  0  0  0
  8 15  1  0  0  0  0
M  END
> <FRED Chemgauss4 score>
-7.558792

$$$$
C82915708	P129631184
  -OEChem-05122015313D

 27 27  0     1  0  0  0  0  0999 V2000
  123.4056  109.0949  109.6269 C   0  0  0  0  0  0  0  0  0  0  0  0
  123.5215  107.7276  109.5400 C   0  0  0  0  0  0  0  0  0  0  0  0
  125.2321  108.7435  108.5921 C   0  0  0  0  0  0  0  0  0  0  0  0
  126.5132  108.8956  107.8727 C   0  0  0  0  0  0  0  0  0  0  0  0
  125.1555  104.1765  106.9915 C   0  0  0  0  0  0  0  0  0  0  0  0
  125.2810  106.1679  108.5236 C   0  0  0  0  0  0  0  0  0  0  0  0
  123.7612  106.2186  106.4169 C   0  0  0  0  0  0  0  0  0  0  0  0
  125.0689  105.7099  107.0582 C   0  0  2  0  0  0  0  0  0  0  0  0
  124.4734  109.7215  109.0347 N   0  0  0  0  0  0  0  0  0  0  0  0
  124.6962  107.5177  108.8742 N   0  0  0  0  0  0  0  0  0  0  0  0
  123.8224  107.6026  105.9639 N   0  0  0  0  0  0  0  0  0  0  0  0
  126.1394  106.2159  106.2483 O   0  0  0  0  0  0  0  0  0  0  0  0
  122.6074  109.6600  110.0857 H   0  0  0  0  0  0  0  0  0  0  0  0
  122.8928  106.9172  109.8817 H   0  0  0  0  0  0  0  0  0  0  0  0
  127.3615  108.9225  108.5756 H   0  0  0  0  0  0  0  0  0  0  0  0
  126.6897  108.0686  107.1646 H   0  0  0  0  0  0  0  0  0  0  0  0
  126.5431  109.8218  107.2743 H   0  0  0  0  0  0  0  0  0  0  0  0
  125.0089  103.8230  105.9644 H   0  0  0  0  0  0  0  0  0  0  0  0
  126.1160  103.7999  107.3562 H   0  0  0  0  0  0  0  0  0  0  0  0
  124.3613  103.7154  107.5905 H   0  0  0  0  0  0  0  0  0  0  0  0
  126.3528  106.1711  108.7624 H   0  0  0  0  0  0  0  0  0  0  0  0
  124.8313  105.4327  109.2057 H   0  0  0  0  0  0  0  0  0  0  0  0
  122.9295  106.1084  107.1229 H   0  0  0  0  0  0  0  0  0  0  0  0
  123.4975  105.5763  105.5667 H   0  0  0  0  0  0  0  0  0  0  0  0
  124.2977  108.2665  106.5383 H   0  0  0  0  0  0  0  0  0  0  0  0
  123.2248  107.8805  105.2141 H   0  0  0  0  0  0  0  0  0  0  0  0
  126.9550  105.8745  106.6403 H   0  0  0  0  0  0  0  0  0  0  0  0
  1  2  2  0  0  0  0
  1  9  1  0  0  0  0
  2 10  1  0  0  0  0
  3  4  1  0  0  0  0
  3  9  2  0  0  0  0
  3 10  1  0  0  0  0
  5  8  1  0  0  0  0
  6  8  1  0  0  0  0
  6 10  1  0  0  0  0
  7  8  1  0  0  0  0
  7 11  1  0  0  0  0
  8 12  1  0  0  0  0
  1 13  1  0  0  0  0
  2 14  1  0  0  0  0
  4 15  1  0  0  0  0
  4 16  1  0  0  0  0
  4 17  1  0  0  0  0
  5 18  1  0  0  0  0
  5 19  1  0  0  0  0
  5 20  1  0  0  0  0
  6 21  1  0  0  0  0
  6 22  1  0  0  0  0
  7 23  1  0  0  0  0
  7 24  1  0  0  0  0
 11 25  1  0  0  0  0
 11 26  1  0  0  0  0
 12 27  1  0  0  0  0
M  END
> <FRED Chemgauss4 score>
-7.556259

$$$$
C83747622	P131020498
  -OEChem-05122015313D

 25 25  0     0  0  0  0  0  0999 V2000
  126.1106  106.9930  107.0165 C   0  0  0  0  0  0  0  0  0  0  0  0
  123.4654  105.1846  106.3997 C   0  0  0  0  0  0  0  0  0  0  0  0
  126.5203  108.3709  107.4892 C   0  0  0  0  0  0  0  0  0  0  0  0
  123.6211  108.2050  108.4755 C   0  0  0  0  0  0  0  0  0  0  0  0
  124.4696  109.4530  108.2245 C   0  0  0  0  0  0  0  0  0  0  0  0
  124.4383  106.9851  108.8907 C   0  0  0  0  0  0  0  0  0  0  0  0
  124.6311  105.0435  107.3513 C   0  0  0  0  0  0  0  0  0  0  0  0
  125.4601  109.3170  107.1549 N   0  0  0  0  0  0  0  0  0  0  0  0
  125.1052  106.3629  107.7467 N   0  0  0  0  0  0  0  0  0  0  0  0
  122.5896  104.1236  106.4833 N   0  0  0  0  0  0  0  0  0  0  0  0
  126.6688  106.4957  106.0351 O   0  0  0  0  0  0  0  0  0  0  0  0
  123.2919  106.1553  105.6677 O   0  0  0  0  0  0  0  0  0  0  0  0
  126.8031  108.3750  108.5466 H   0  0  0  0  0  0  0  0  0  0  0  0
  127.4223  108.6474  106.9295 H   0  0  0  0  0  0  0  0  0  0  0  0
  122.9142  108.4396  109.2808 H   0  0  0  0  0  0  0  0  0  0  0  0
  123.0226  107.9754  107.5850 H   0  0  0  0  0  0  0  0  0  0  0  0
  123.7909  110.2683  107.9469 H   0  0  0  0  0  0  0  0  0  0  0  0
  124.9599  109.7686  109.1541 H   0  0  0  0  0  0  0  0  0  0  0  0
  125.1915  107.2501  109.6405 H   0  0  0  0  0  0  0  0  0  0  0  0
  123.7746  106.2437  109.3507 H   0  0  0  0  0  0  0  0  0  0  0  0
  125.4611  104.5137  106.8761 H   0  0  0  0  0  0  0  0  0  0  0  0
  124.3088  104.5056  108.2470 H   0  0  0  0  0  0  0  0  0  0  0  0
  125.8835  110.2338  107.0066 H   0  0  0  0  0  0  0  0  0  0  0  0
  122.7565  103.3595  107.1295 H   0  0  0  0  0  0  0  0  0  0  0  0
  121.7528  104.0629  105.9120 H   0  0  0  0  0  0  0  0  0  0  0  0
  1  3  1  0  0  0  0
  1  9  1  0  0  0  0
  1 11  2  0  0  0  0
  2  7  1  0  0  0  0
  2 10  1  0  0  0  0
  2 12  2  0  0  0  0
  3  8  1  0  0  0  0
  4  5  1  0  0  0  0
  4  6  1  0  0  0  0
  5  8  1  0  0  0  0
  6  9  1  0  0  0  0
  7  9  1  0  0  0  0
  3 13  1  0  0  0  0
  3 14  1  0  0  0  0
  4 15  1  0  0  0  0
  4 16  1  0  0  0  0
  5 17  1  0  0  0  0
  5 18  1  0  0  0  0
  6 19  1  0  0  0  0
  6 20  1  0  0  0  0
  7 21  1  0  0  0  0
  7 22  1  0  0  0  0
  8 23  1  0  0  0  0
 10 24  1  0  0  0  0
 10 25  1  0  0  0  0
M  END
> <FRED Chemgauss4 score>
-7.549211

$$$$
C97665270	P154881341
  -OEChem-05122015313D

 45 46  0     1  0  0  0  0  0999 V2000
  115.6664  109.0046  108.0839 C   0  0  0  0  0  0  0  0  0  0  0  0
  116.9952  109.3445  108.1793 C   0  0  0  0  0  0  0  0  0  0  0  0
  116.6438  107.9197  106.5352 C   0  0  0  0  0  0  0  0  0  0  0  0
  117.3915  104.5254  103.4414 C   0  0  0  0  0  0  0  0  0  0  0  0
  118.4986  103.7798  104.1823 C   0  0  0  0  0  0  0  0  0  0  0  0
  116.2030  104.8171  104.3530 C   0  0  0  0  0  0  0  0  0  0  0  0
  117.7345  104.8071  106.3608 C   0  0  0  0  0  0  0  0  0  0  0  0
  118.9388  104.5192  105.4527 C   0  0  1  0  0  0  0  0  0  0  0  0
  116.5988  105.5538  105.6408 C   0  0  1  0  0  0  0  0  0  0  0  0
  119.9964  103.7113  106.2043 C   0  0  0  0  0  0  0  0  0  0  0  0
  119.8719  108.2571  108.0664 C   0  0  0  0  0  0  0  0  0  0  0  0
  114.2630  105.7844  105.7591 C   0  0  0  0  0  0  0  0  0  0  0  0
  119.0203  108.6690  106.8778 C   0  0  0  0  0  0  0  0  0  0  0  0
  116.9611  107.0173  105.3650 C   0  0  1  0  0  0  0  0  0  0  0  0
  115.4543  108.1171  107.0587 N   0  0  0  0  0  0  0  0  0  0  0  0
  117.6088  108.6414  107.1811 N   0  0  0  0  0  0  0  0  0  0  0  0
  117.0589  108.5563  103.6077 N   0  0  0  0  0  0  0  0  0  0  0  0
  116.3121  107.4645  104.1561 N   0  0  0  0  0  0  0  0  0  0  0  0
  115.4510  105.5565  106.4975 O   0  0  0  0  0  0  0  0  0  0  0  0
  114.8516  109.3537  108.7013 H   0  0  0  0  0  0  0  0  0  0  0  0
  117.5359  110.0011  108.8465 H   0  0  0  0  0  0  0  0  0  0  0  0
  117.7882  105.4609  103.0304 H   0  0  0  0  0  0  0  0  0  0  0  0
  117.0568  103.9259  102.5869 H   0  0  0  0  0  0  0  0  0  0  0  0
  118.1415  102.7746  104.4420 H   0  0  0  0  0  0  0  0  0  0  0  0
  119.3553  103.6467  103.5109 H   0  0  0  0  0  0  0  0  0  0  0  0
  115.4450  105.3913  103.8054 H   0  0  0  0  0  0  0  0  0  0  0  0
  115.7123  103.8697  104.6152 H   0  0  0  0  0  0  0  0  0  0  0  0
  117.3405  103.8619  106.7606 H   0  0  0  0  0  0  0  0  0  0  0  0
  118.0557  105.3781  107.2419 H   0  0  0  0  0  0  0  0  0  0  0  0
  119.3985  105.4712  105.1594 H   0  0  0  0  0  0  0  0  0  0  0  0
  119.5781  102.7554  106.5138 H   0  0  0  0  0  0  0  0  0  0  0  0
  120.3220  104.2611  107.0853 H   0  0  0  0  0  0  0  0  0  0  0  0
  120.8529  103.5339  105.5565 H   0  0  0  0  0  0  0  0  0  0  0  0
  119.7033  108.9191  108.9224 H   0  0  0  0  0  0  0  0  0  0  0  0
  120.9338  108.3003  107.8054 H   0  0  0  0  0  0  0  0  0  0  0  0
  119.6396  107.2352  108.3841 H   0  0  0  0  0  0  0  0  0  0  0  0
  113.4057  105.7812  106.4366 H   0  0  0  0  0  0  0  0  0  0  0  0
  114.1469  105.0032  105.0037 H   0  0  0  0  0  0  0  0  0  0  0  0
  114.3317  106.7573  105.2667 H   0  0  0  0  0  0  0  0  0  0  0  0
  119.1958  108.0011  106.0269 H   0  0  0  0  0  0  0  0  0  0  0  0
  119.2758  109.6839  106.5528 H   0  0  0  0  0  0  0  0  0  0  0  0
  118.0357  107.0570  105.1566 H   0  0  0  0  0  0  0  0  0  0  0  0
  117.8836  108.7232  104.1837 H   0  0  0  0  0  0  0  0  0  0  0  0
  117.4104  108.2952  102.6874 H   0  0  0  0  0  0  0  0  0  0  0  0
  115.3635  107.7893  104.3629 H   0  0  0  0  0  0  0  0  0  0  0  0
  1  2  2  0  0  0  0
  1 15  1  0  0  0  0
  2 16  1  0  0  0  0
  3 14  1  0  0  0  0
  3 15  2  0  0  0  0
  3 16  1  0  0  0  0
  4  5  1  0  0  0  0
  4  6  1  0  0  0  0
  5  8  1  0  0  0  0
  6  9  1  0  0  0  0
  7  8  1  0  0  0  0
  7  9  1  0  0  0  0
  8 10  1  0  0  0  0
  9 14  1  0  0  0  0
  9 19  1  0  0  0  0
 11 13  1  0  0  0  0
 12 19  1  0  0  0  0
 13 16  1  0  0  0  0
 14 18  1  0  0  0  0
 17 18  1  0  0  0  0
  1 20  1  0  0  0  0
  2 21  1  0  0  0  0
  4 22  1  0  0  0  0
  4 23  1  0  0  0  0
  5 24  1  0  0  0  0
  5 25  1  0  0  0  0
  6 26  1  0  0  0  0
  6 27  1  0  0  0  0
  7 28  1  0  0  0  0
  7 29  1  0  0  0  0
  8 30  1  0  0  0  0
 10 31  1  0  0  0  0
 10 32  1  0  0  0  0
 10 33  1  0  0  0  0
 11 34  1  0  0  0  0
 11 35  1  0  0  0  0
 11 36  1  0  0  0  0
 12 37  1  0  0  0  0
 12 38  1  0  0  0  0
 12 39  1  0  0  0  0
 13 40  1  0  0  0  0
 13 41  1  0  0  0  0
 14 42  1  0  0  0  0
 17 43  1  0  0  0  0
 17 44  1  0  0  0  0
 18 45  1  0  0  0  0
M  END
> <FRED Chemgauss4 score>
-7.547601

$$$$
C83574386	P130729171
  -OEChem-05122015313D

 24 24  0     1  0  0  0  0  0999 V2000
  124.2946  107.7044  109.9009 C   0  0  0  0  0  0  0  0  0  0  0  0
  124.1698  109.0830  109.9622 C   0  0  0  0  0  0  0  0  0  0  0  0
  124.8291  109.3296  107.7753 C   0  0  0  0  0  0  0  0  0  0  0  0
  124.7105  107.1414  108.6995 C   0  0  0  0  0  0  0  0  0  0  0  0
  124.9850  107.9626  107.6115 C   0  0  0  0  0  0  0  0  0  0  0  0
  124.8538  105.6588  108.6007 C   0  0  0  0  0  0  0  0  0  0  0  0
  124.4186  106.4463  105.6398 C   0  0  0  0  0  0  0  0  0  0  0  0
  125.4411  107.4009  106.2761 C   0  0  2  0  0  0  0  0  0  0  0  0
  124.4273  109.9130  108.9267 N   0  0  0  0  0  0  0  0  0  0  0  0
  123.1674  107.1012  105.3600 N   0  0  0  0  0  0  0  0  0  0  0  0
  126.7388  106.7282  106.4103 N   0  0  0  0  0  0  0  0  0  0  0  0
  124.0732  107.0913  110.7678 H   0  0  0  0  0  0  0  0  0  0  0  0
  123.8486  109.5714  110.8763 H   0  0  0  0  0  0  0  0  0  0  0  0
  125.0278  110.0214  106.9626 H   0  0  0  0  0  0  0  0  0  0  0  0
  123.9109  105.2065  108.2713 H   0  0  0  0  0  0  0  0  0  0  0  0
  125.6411  105.3825  107.8882 H   0  0  0  0  0  0  0  0  0  0  0  0
  125.1316  105.2215  109.5681 H   0  0  0  0  0  0  0  0  0  0  0  0
  124.7903  106.0675  104.6809 H   0  0  0  0  0  0  0  0  0  0  0  0
  124.2002  105.5815  106.2754 H   0  0  0  0  0  0  0  0  0  0  0  0
  125.5907  108.2391  105.5831 H   0  0  0  0  0  0  0  0  0  0  0  0
  122.3283  106.5482  105.2983 H   0  0  0  0  0  0  0  0  0  0  0  0
  123.1757  108.0532  105.0323 H   0  0  0  0  0  0  0  0  0  0  0  0
  127.3889  107.1049  107.0602 H   0  0  0  0  0  0  0  0  0  0  0  0
  126.9884  106.0640  105.7148 H   0  0  0  0  0  0  0  0  0  0  0  0
  1  2  2  0  0  0  0
  1  4  1  0  0  0  0
  2  9  1  0  0  0  0
  3  5  1  0  0  0  0
  3  9  2  0  0  0  0
  4  5  2  0  0  0  0
  4  6  1  0  0  0  0
  5  8  1  0  0  0  0
  7  8  1  0  0  0  0
  7 10  1  0  0  0  0
  8 11  1  0  0  0  0
  1 12  1  0  0  0  0
  2 13  1  0  0  0  0
  3 14  1  0  0  0  0
  6 15  1  0  0  0  0
  6 16  1  0  0  0  0
  6 17  1  0  0  0  0
  7 18  1  0  0  0  0
  7 19  1  0  0  0  0
  8 20  1  0  0  0  0
 10 21  1  0  0  0  0
 10 22  1  0  0  0  0
 11 23  1  0  0  0  0
 11 24  1  0  0  0  0
M  END
> <FRED Chemgauss4 score>
-7.546844

$$$$
C04544532	P06219521
  -OEChem-05122015313D

 23 23  0     1  0  0  0  0  0999 V2000
  126.7155  107.6846  107.1473 C   0  0  1  0  0  0  0  0  0  0  0  0
  126.6409  106.3661  107.9260 C   0  0  2  0  0  0  0  0  0  0  0  0
  125.3254  108.2698  106.8905 C   0  0  1  0  0  0  0  0  0  0  0  0
  125.6569  105.4097  107.2351 C   0  0  1  0  0  0  0  0  0  0  0  0
  124.4349  107.2059  106.2445 C   0  0  1  0  0  0  0  0  0  0  0  0
  125.4307  104.1204  108.0155 C   0  0  0  0  0  0  0  0  0  0  0  0
  124.3770  106.0379  107.0678 O   0  0  0  0  0  0  0  0  0  0  0  0
  127.5392  108.6141  107.8403 O   0  0  0  0  0  0  0  0  0  0  0  0
  126.2201  106.6315  109.2640 O   0  0  0  0  0  0  0  0  0  0  0  0
  124.7447  108.6888  108.1269 O   0  0  0  0  0  0  0  0  0  0  0  0
  123.1336  107.7541  106.0572 O   0  0  0  0  0  0  0  0  0  0  0  0
  124.9164  103.1966  107.1683 F   0  0  0  0  0  0  0  0  0  0  0  0
  127.1959  107.4854  106.1808 H   0  0  0  0  0  0  0  0  0  0  0  0
  127.6409  105.9216  107.9902 H   0  0  0  0  0  0  0  0  0  0  0  0
  125.3917  109.1649  106.2621 H   0  0  0  0  0  0  0  0  0  0  0  0
  126.0415  105.1445  106.2417 H   0  0  0  0  0  0  0  0  0  0  0  0
  124.8271  106.9326  105.2569 H   0  0  0  0  0  0  0  0  0  0  0  0
  124.7234  104.2827  108.8267 H   0  0  0  0  0  0  0  0  0  0  0  0
  126.3713  103.7441  108.4136 H   0  0  0  0  0  0  0  0  0  0  0  0
  128.4186  108.2095  107.9107 H   0  0  0  0  0  0  0  0  0  0  0  0
  126.1874  105.7748  109.7158 H   0  0  0  0  0  0  0  0  0  0  0  0
  125.3399  109.3591  108.4942 H   0  0  0  0  0  0  0  0  0  0  0  0
  122.5961  107.0581  105.6479 H   0  0  0  0  0  0  0  0  0  0  0  0
  1  2  1  0  0  0  0
  1  3  1  0  0  0  0
  1  8  1  0  0  0  0
  2  4  1  0  0  0  0
  2  9  1  0  0  0  0
  3  5  1  0  0  0  0
  3 10  1  0  0  0  0
  4  6  1  0  0  0  0
  4  7  1  0  0  0  0
  5  7  1  0  0  0  0
  5 11  1  0  0  0  0
  6 12  1  0  0  0  0
  1 13  1  0  0  0  0
  2 14  1  0  0  0  0
  3 15  1  0  0  0  0
  4 16  1  0  0  0  0
  5 17  1  0  0  0  0
  6 18  1  0  0  0  0
  6 19  1  0  0  0  0
  8 20  1  0  0  0  0
  9 21  1  0  0  0  0
 10 22  1  0  0  0  0
 11 23  1  0  0  0  0
M  END
> <FRED Chemgauss4 score>
-7.546826

$$$$
C95636648	P150389150
  -OEChem-05122015313D

 20 21  0     1  0  0  0  0  0999 V2000
  124.5640  108.6083  109.1191 C   0  0  0  0  0  0  0  0  0  0  0  0
  124.3550  107.2628  109.4330 C   0  0  0  0  0  0  0  0  0  0  0  0
  124.8937  108.9955  107.8094 C   0  0  0  0  0  0  0  0  0  0  0  0
  124.4911  106.3266  108.4232 C   0  0  0  0  0  0  0  0  0  0  0  0
  124.8248  106.7172  107.1340 C   0  0  0  0  0  0  0  0  0  0  0  0
  125.0229  108.0423  106.7979 C   0  0  0  0  0  0  0  0  0  0  0  0
  124.9222  104.4995  107.1090 C   0  0  0  0  0  0  0  0  0  0  0  0
  124.2808  104.8598  108.4555 C   0  0  2  0  0  0  0  0  0  0  0  0
  122.8837  104.5175  108.4994 N   0  0  0  0  0  0  0  0  0  0  0  0
  124.9107  105.6696  106.2525 O   0  0  0  0  0  0  0  0  0  0  0  0
  125.3381  108.4138  105.5322 O   0  0  0  0  0  0  0  0  0  0  0  0
  124.4640  109.3645  109.8931 H   0  0  0  0  0  0  0  0  0  0  0  0
  124.0864  106.9673  110.4414 H   0  0  0  0  0  0  0  0  0  0  0  0
  125.0459  110.0491  107.5892 H   0  0  0  0  0  0  0  0  0  0  0  0
  125.9711  104.2036  107.2456 H   0  0  0  0  0  0  0  0  0  0  0  0
  124.4160  103.6745  106.5951 H   0  0  0  0  0  0  0  0  0  0  0  0
  124.8241  104.3794  109.2809 H   0  0  0  0  0  0  0  0  0  0  0  0
  122.2879  105.0432  109.1037 H   0  0  0  0  0  0  0  0  0  0  0  0
  122.5968  103.6528  108.0912 H   0  0  0  0  0  0  0  0  0  0  0  0
  125.4451  109.3786  105.4765 H   0  0  0  0  0  0  0  0  0  0  0  0
  1  2  1  0  0  0  0
  1  3  2  0  0  0  0
  2  4  2  0  0  0  0
  3  6  1  0  0  0  0
  4  5  1  0  0  0  0
  4  8  1  0  0  0  0
  5  6  2  0  0  0  0
  5 10  1  0  0  0  0
  6 11  1  0  0  0  0
  7  8  1  0  0  0  0
  7 10  1  0  0  0  0
  8  9  1  0  0  0  0
  1 12  1  0  0  0  0
  2 13  1  0  0  0  0
  3 14  1  0  0  0  0
  7 15  1  0  0  0  0
  7 16  1  0  0  0  0
  8 17  1  0  0  0  0
  9 18  1  0  0  0  0
  9 19  1  0  0  0  0
 11 20  1  0  0  0  0
M  END
> <FRED Chemgauss4 score>
-7.545087

$$$$
C37169667	P55272176
  -OEChem-05122015313D

 29 29  0     1  0  0  0  0  0999 V2000
  124.1490  108.2365  109.7171 C   0  0  0  0  0  0  0  0  0  0  0  0
  124.4227  109.1582  108.5318 C   0  0  0  0  0  0  0  0  0  0  0  0
  123.5841  106.8933  109.2548 C   0  0  0  0  0  0  0  0  0  0  0  0
  124.7044  107.0835  107.1076 C   0  0  0  0  0  0  0  0  0  0  0  0
  125.2765  108.4557  107.4784 C   0  0  2  0  0  0  0  0  0  0  0  0
  122.8485  105.1368  106.8718 C   0  0  0  0  0  0  0  0  0  0  0  0
  123.9644  104.9328  107.9080 C   0  0  1  0  0  0  0  0  0  0  0  0
  125.1210  104.0836  107.3960 C   0  0  0  0  0  0  0  0  0  0  0  0
  124.4869  106.2427  108.2964 N   0  0  2  0  0  0  0  0  0  0  0  0
  121.9854  103.9659  106.7506 N   0  0  0  0  0  0  0  0  0  0  0  0
  126.6077  108.2827  107.9612 O   0  0  0  0  0  0  0  0  0  0  0  0
  124.7212  102.8345  107.0727 F   0  0  0  0  0  0  0  0  0  0  0  0
  126.0945  103.9762  108.3295 F   0  0  0  0  0  0  0  0  0  0  0  0
  125.6870  104.6303  106.2974 F   0  0  0  0  0  0  0  0  0  0  0  0
  125.0749  108.0757  110.2799 H   0  0  0  0  0  0  0  0  0  0  0  0
  123.4391  108.7205  110.3991 H   0  0  0  0  0  0  0  0  0  0  0  0
  123.4781  109.4998  108.0870 H   0  0  0  0  0  0  0  0  0  0  0  0
  124.9326  110.0691  108.8774 H   0  0  0  0  0  0  0  0  0  0  0  0
  123.4086  106.2490  110.1258 H   0  0  0  0  0  0  0  0  0  0  0  0
  122.6113  107.0764  108.7830 H   0  0  0  0  0  0  0  0  0  0  0  0
  123.7527  107.2374  106.5781 H   0  0  0  0  0  0  0  0  0  0  0  0
  125.3699  106.5855  106.3850 H   0  0  0  0  0  0  0  0  0  0  0  0
  125.3344  109.0843  106.5733 H   0  0  0  0  0  0  0  0  0  0  0  0
  122.2360  106.0084  107.1327 H   0  0  0  0  0  0  0  0  0  0  0  0
  123.2873  105.3335  105.8862 H   0  0  0  0  0  0  0  0  0  0  0  0
  123.5459  104.4550  108.8022 H   0  0  0  0  0  0  0  0  0  0  0  0
  121.5105  103.8199  105.8860 H   0  0  0  0  0  0  0  0  0  0  0  0
  121.7414  103.4742  107.5833 H   0  0  0  0  0  0  0  0  0  0  0  0
  126.9543  109.1702  108.1444 H   0  0  0  0  0  0  0  0  0  0  0  0
  1  2  1  0  0  0  0
  1  3  1  0  0  0  0
  2  5  1  0  0  0  0
  3  9  1  0  0  0  0
  4  5  1  0  0  0  0
  4  9  1  0  0  0  0
  5 11  1  0  0  0  0
  6  7  1  0  0  0  0
  6 10  1  0  0  0  0
  7  8  1  0  0  0  0
  7  9  1  0  0  0  0
  8 12  1  0  0  0  0
  8 13  1  0  0  0  0
  8 14  1  0  0  0  0
  1 15  1  0  0  0  0
  1 16  1  0  0  0  0
  2 17  1  0  0  0  0
  2 18  1  0  0  0  0
  3 19  1  0  0  0  0
  3 20  1  0  0  0  0
  4 21  1  0  0  0  0
  4 22  1  0  0  0  0
  5 23  1  0  0  0  0
  6 24  1  0  0  0  0
  6 25  1  0  0  0  0
  7 26  1  0  0  0  0
 10 27  1  0  0  0  0
 10 28  1  0  0  0  0
 11 29  1  0  0  0  0
M  END
> <FRED Chemgauss4 score>
-7.538304

$$$$
C72187999	P112132748
  -OEChem-05122015313D

 23 23  0     1  0  0  0  0  0999 V2000
  126.2089  107.7658  107.5333 C   0  0  0  0  0  0  0  0  0  0  0  0
  124.4987  107.6737  109.2218 C   0  0  0  0  0  0  0  0  0  0  0  0
  126.0591  109.1432  107.5332 C   0  0  0  0  0  0  0  0  0  0  0  0
  124.4256  109.0553  109.1463 C   0  0  0  0  0  0  0  0  0  0  0  0
  125.4101  107.0243  108.3966 C   0  0  0  0  0  0  0  0  0  0  0  0
  125.5313  105.5186  108.4374 C   0  0  0  0  0  0  0  0  0  0  0  0
  124.9915  103.3932  107.1259 C   0  0  0  0  0  0  0  0  0  0  0  0
  124.5846  104.8354  107.4408 C   0  0  1  0  0  0  0  0  0  0  0  0
  125.1849  109.8095  108.3202 N   0  0  0  0  0  0  0  0  0  0  0  0
  124.0772  102.7824  106.1883 N   0  0  0  0  0  0  0  0  0  0  0  0
  123.2601  104.8415  107.9737 O   0  0  0  0  0  0  0  0  0  0  0  0
  126.9287  107.2892  106.8763 H   0  0  0  0  0  0  0  0  0  0  0  0
  123.8622  107.1231  109.9059 H   0  0  0  0  0  0  0  0  0  0  0  0
  126.6577  109.7669  106.8772 H   0  0  0  0  0  0  0  0  0  0  0  0
  123.7309  109.6091  109.7691 H   0  0  0  0  0  0  0  0  0  0  0  0
  126.5737  105.2445  108.2304 H   0  0  0  0  0  0  0  0  0  0  0  0
  125.3157  105.1822  109.4595 H   0  0  0  0  0  0  0  0  0  0  0  0
  124.9899  102.7957  108.0437 H   0  0  0  0  0  0  0  0  0  0  0  0
  126.0042  103.3669  106.7103 H   0  0  0  0  0  0  0  0  0  0  0  0
  124.5578  105.3998  106.5006 H   0  0  0  0  0  0  0  0  0  0  0  0
  123.0979  102.9928  106.2597 H   0  0  0  0  0  0  0  0  0  0  0  0
  124.4008  102.0158  105.6259 H   0  0  0  0  0  0  0  0  0  0  0  0
  123.0207  105.7718  108.1014 H   0  0  0  0  0  0  0  0  0  0  0  0
  1  3  1  0  0  0  0
  1  5  2  0  0  0  0
  2  4  2  0  0  0  0
  2  5  1  0  0  0  0
  3  9  2  0  0  0  0
  4  9  1  0  0  0  0
  5  6  1  0  0  0  0
  6  8  1  0  0  0  0
  7  8  1  0  0  0  0
  7 10  1  0  0  0  0
  8 11  1  0  0  0  0
  1 12  1  0  0  0  0
  2 13  1  0  0  0  0
  3 14  1  0  0  0  0
  4 15  1  0  0  0  0
  6 16  1  0  0  0  0
  6 17  1  0  0  0  0
  7 18  1  0  0  0  0
  7 19  1  0  0  0  0
  8 20  1  0  0  0  0
 10 21  1  0  0  0  0
 10 22  1  0  0  0  0
 11 23  1  0  0  0  0
M  END
> <FRED Chemgauss4 score>
-7.536751

$$$$
C22062005	P32835722
  -OEChem-05122015313D

 24 24  0     1  0  0  0  0  0999 V2000
  125.4291  107.3647  106.2953 C   0  0  1  0  0  0  0  0  0  0  0  0
  126.6304  107.6102  107.2364 C   0  0  2  0  0  0  0  0  0  0  0  0
  126.8031  106.2973  108.0352 C   0  0  2  0  0  0  0  0  0  0  0  0
  125.7151  105.3557  107.4974 C   0  0  2  0  0  0  0  0  0  0  0  0
  124.5941  106.2744  106.9909 C   0  0  1  0  0  0  0  0  0  0  0  0
  122.3561  105.5022  108.3852 C   0  0  0  0  0  0  0  0  0  0  0  0
  124.7022  108.5615  105.9034 N   0  0  0  0  0  0  0  0  0  0  0  0
  126.3914  108.7152  108.0980 O   0  0  0  0  0  0  0  0  0  0  0  0
  126.6410  106.5021  109.4320 O   0  0  0  0  0  0  0  0  0  0  0  0
  125.3025  104.3824  108.4341 O   0  0  0  0  0  0  0  0  0  0  0  0
  123.5047  106.8948  108.3273 S   0  0  0  0  0  0  0  0  0  0  0  0
  125.8248  106.9171  105.3757 H   0  0  0  0  0  0  0  0  0  0  0  0
  127.5611  107.8568  106.6603 H   0  0  0  0  0  0  0  0  0  0  0  0
  127.7884  105.8776  107.8590 H   0  0  0  0  0  0  0  0  0  0  0  0
  126.1482  104.7577  106.6171 H   0  0  0  0  0  0  0  0  0  0  0  0
  123.9989  105.7918  106.2854 H   0  0  0  0  0  0  0  0  0  0  0  0
  121.5953  105.6793  109.1494 H   0  0  0  0  0  0  0  0  0  0  0  0
  122.8976  104.5844  108.6274 H   0  0  0  0  0  0  0  0  0  0  0  0
  121.8674  105.3835  107.4151 H   0  0  0  0  0  0  0  0  0  0  0  0
  123.7577  108.4620  105.5924 H   0  0  0  0  0  0  0  0  0  0  0  0
  125.2191  109.4051  105.7621 H   0  0  0  0  0  0  0  0  0  0  0  0
  127.1805  108.8089  108.6546 H   0  0  0  0  0  0  0  0  0  0  0  0
  125.7423  106.8495  109.5706 H   0  0  0  0  0  0  0  0  0  0  0  0
  124.6217  103.8478  107.9963 H   0  0  0  0  0  0  0  0  0  0  0  0
  1  2  1  0  0  0  0
  1  5  1  0  0  0  0
  1  7  1  0  0  0  0
  2  3  1  0  0  0  0
  2  8  1  0  0  0  0
  3  4  1  0  0  0  0
  3  9  1  0  0  0  0
  4  5  1  0  0  0  0
  4 10  1  0  0  0  0
  5 11  1  0  0  0  0
  6 11  1  0  0  0  0
  1 12  1  0  0  0  0
  2 13  1  0  0  0  0
  3 14  1  0  0  0  0
  4 15  1  0  0  0  0
  5 16  1  0  0  0  0
  6 17  1  0  0  0  0
  6 18  1  0  0  0  0
  6 19  1  0  0  0  0
  7 20  1  0  0  0  0
  7 21  1  0  0  0  0
  8 22  1  0  0  0  0
  9 23  1  0  0  0  0
 10 24  1  0  0  0  0
M  END
> <FRED Chemgauss4 score>
-7.532946

$$$$
C85281249	P133458567
  -OEChem-05122015313D

 30 31  0     1  0  0  0  0  0999 V2000
  121.8750  105.0780  106.0876 C   0  0  0  0  0  0  0  0  0  0  0  0
  126.0649  105.5060  108.8449 C   0  0  0  0  0  0  0  0  0  0  0  0
  125.1675  106.7776  108.7503 C   0  0  0  0  0  0  0  0  0  0  0  0
  125.2095  104.4688  108.1348 C   0  0  2  0  0  0  0  0  0  0  0  0
  125.1506  103.3203  107.0887 C   0  0  1  0  0  0  0  0  0  0  0  0
  124.2264  104.2756  106.2383 C   0  0  2  0  0  0  0  0  0  0  0  0
  124.9589  105.4266  106.9217 C   0  0  1  0  0  0  0  0  0  0  0  0
  118.2174  105.3496  106.5180 C   0  0  0  0  0  0  0  0  0  0  0  0
  120.4839  104.7307  106.5732 C   0  0  0  0  0  0  0  0  0  0  0  0
  126.4549  103.1248  106.4568 N   0  0  0  0  0  0  0  0  0  0  0  0
  122.8034  104.1759  106.5571 N   0  0  0  0  0  0  0  0  0  0  0  0
  122.1048  106.0467  105.3686 O   0  0  0  0  0  0  0  0  0  0  0  0
  124.4404  106.6287  107.5026 O   0  0  0  0  0  0  0  0  0  0  0  0
  119.5375  105.6527  106.0760 O   0  0  0  0  0  0  0  0  0  0  0  0
  127.0229  105.6655  108.3348 H   0  0  0  0  0  0  0  0  0  0  0  0
  126.2756  105.2462  109.8864 H   0  0  0  0  0  0  0  0  0  0  0  0
  124.4352  106.8105  109.5626 H   0  0  0  0  0  0  0  0  0  0  0  0
  125.7574  107.6977  108.7352 H   0  0  0  0  0  0  0  0  0  0  0  0
  124.3367  104.3303  108.8002 H   0  0  0  0  0  0  0  0  0  0  0  0
  124.6832  102.3924  107.4306 H   0  0  0  0  0  0  0  0  0  0  0  0
  124.3740  104.2170  105.1546 H   0  0  0  0  0  0  0  0  0  0  0  0
  125.8467  105.7029  106.3304 H   0  0  0  0  0  0  0  0  0  0  0  0
  117.5185  106.0849  106.1119 H   0  0  0  0  0  0  0  0  0  0  0  0
  118.1854  105.3650  107.6103 H   0  0  0  0  0  0  0  0  0  0  0  0
  117.9431  104.3539  106.1614 H   0  0  0  0  0  0  0  0  0  0  0  0
  120.2159  103.7316  106.2161 H   0  0  0  0  0  0  0  0  0  0  0  0
  120.4549  104.7391  107.6672 H   0  0  0  0  0  0  0  0  0  0  0  0
  126.4740  102.8713  105.4939 H   0  0  0  0  0  0  0  0  0  0  0  0
  127.2535  103.0510  107.0475 H   0  0  0  0  0  0  0  0  0  0  0  0
  122.4897  103.4179  107.1432 H   0  0  0  0  0  0  0  0  0  0  0  0
  1  9  1  0  0  0  0
  1 11  1  0  0  0  0
  1 12  2  0  0  0  0
  2  3  1  0  0  0  0
  2  4  1  0  0  0  0
  3 13  1  0  0  0  0
  4  5  1  0  0  0  0
  4  7  1  0  0  0  0
  5  6  1  0  0  0  0
  5 10  1  0  0  0  0
  6  7  1  0  0  0  0
  6 11  1  0  0  0  0
  7 13  1  0  0  0  0
  8 14  1  0  0  0  0
  9 14  1  0  0  0  0
  2 15  1  0  0  0  0
  2 16  1  0  0  0  0
  3 17  1  0  0  0  0
  3 18  1  0  0  0  0
  4 19  1  0  0  0  0
  5 20  1  0  0  0  0
  6 21  1  0  0  0  0
  7 22  1  0  0  0  0
  8 23  1  0  0  0  0
  8 24  1  0  0  0  0
  8 25  1  0  0  0  0
  9 26  1  0  0  0  0
  9 27  1  0  0  0  0
 10 28  1  0  0  0  0
 10 29  1  0  0  0  0
 11 30  1  0  0  0  0
M  END
> <FRED Chemgauss4 score>
-7.523799

$$$$
C83676414	P130905360
  -OEChem-05122015313D

 37 37  0     1  0  0  0  0  0999 V2000
  121.5701  105.7248  107.9962 C   0  0  0  0  0  0  0  0  0  0  0  0
  122.5899  105.3686  105.8400 C   0  0  0  0  0  0  0  0  0  0  0  0
  122.5129  106.9069  108.2465 C   0  0  0  0  0  0  0  0  0  0  0  0
  123.5316  106.5515  106.0903 C   0  0  0  0  0  0  0  0  0  0  0  0
  126.5793  106.2865  108.2638 C   0  0  0  0  0  0  0  0  0  0  0  0
  118.9547  104.7954  106.4716 C   0  0  0  0  0  0  0  0  0  0  0  0
  120.4270  104.4175  106.3229 C   0  0  0  0  0  0  0  0  0  0  0  0
  124.6769  107.8555  107.7646 C   0  0  0  0  0  0  0  0  0  0  0  0
  117.9917  103.6420  106.1986 C   0  0  0  0  0  0  0  0  0  0  0  0
  126.1100  107.4612  107.4161 C   0  0  1  0  0  0  0  0  0  0  0  0
  121.3231  105.5476  106.5600 N   0  0  0  0  0  0  0  0  0  0  0  0
  123.7795  106.7268  107.5265 N   0  0  0  0  0  0  0  0  0  0  0  0
  118.1051  103.1337  104.8589 N   0  0  0  0  0  0  0  0  0  0  0  0
  126.9634  108.5758  107.6688 O   0  0  0  0  0  0  0  0  0  0  0  0
  121.9969  104.8130  108.4358 H   0  0  0  0  0  0  0  0  0  0  0  0
  120.6234  105.9235  108.5132 H   0  0  0  0  0  0  0  0  0  0  0  0
  122.3974  105.3035  104.7622 H   0  0  0  0  0  0  0  0  0  0  0  0
  123.0829  104.4341  106.1407 H   0  0  0  0  0  0  0  0  0  0  0  0
  122.0206  107.8418  107.9459 H   0  0  0  0  0  0  0  0  0  0  0  0
  122.7053  106.9718  109.3244 H   0  0  0  0  0  0  0  0  0  0  0  0
  124.4780  106.3538  105.5725 H   0  0  0  0  0  0  0  0  0  0  0  0
  123.1037  107.4634  105.6520 H   0  0  0  0  0  0  0  0  0  0  0  0
  126.5084  106.5132  109.3320 H   0  0  0  0  0  0  0  0  0  0  0  0
  125.9859  105.3896  108.0538 H   0  0  0  0  0  0  0  0  0  0  0  0
  127.6199  106.0367  108.0302 H   0  0  0  0  0  0  0  0  0  0  0  0
  118.7347  105.6216  105.7845 H   0  0  0  0  0  0  0  0  0  0  0  0
  118.7767  105.1661  107.4885 H   0  0  0  0  0  0  0  0  0  0  0  0
  120.7075  103.6173  107.0145 H   0  0  0  0  0  0  0  0  0  0  0  0
  120.6206  104.0671  105.3041 H   0  0  0  0  0  0  0  0  0  0  0  0
  124.5988  108.1476  108.8173 H   0  0  0  0  0  0  0  0  0  0  0  0
  124.3471  108.6987  107.1489 H   0  0  0  0  0  0  0  0  0  0  0  0
  116.9587  103.9820  106.3227 H   0  0  0  0  0  0  0  0  0  0  0  0
  118.1584  102.8085  106.8878 H   0  0  0  0  0  0  0  0  0  0  0  0
  126.1913  107.2076  106.3528 H   0  0  0  0  0  0  0  0  0  0  0  0
  118.2728  103.7769  104.1012 H   0  0  0  0  0  0  0  0  0  0  0  0
  117.8173  102.1871  104.6659 H   0  0  0  0  0  0  0  0  0  0  0  0
  127.8588  108.2982  107.4216 H   0  0  0  0  0  0  0  0  0  0  0  0
  1  3  1  0  0  0  0
  1 11  1  0  0  0  0
  2  4  1  0  0  0  0
  2 11  1  0  0  0  0
  3 12  1  0  0  0  0
  4 12  1  0  0  0  0
  5 10  1  0  0  0  0
  6  7  1  0  0  0  0
  6  9  1  0  0  0  0
  7 11  1  0  0  0  0
  8 10  1  0  0  0  0
  8 12  1  0  0  0  0
  9 13  1  0  0  0  0
 10 14  1  0  0  0  0
  1 15  1  0  0  0  0
  1 16  1  0  0  0  0
  2 17  1  0  0  0  0
  2 18  1  0  0  0  0
  3 19  1  0  0  0  0
  3 20  1  0  0  0  0
  4 21  1  0  0  0  0
  4 22  1  0  0  0  0
  5 23  1  0  0  0  0
  5 24  1  0  0  0  0
  5 25  1  0  0  0  0
  6 26  1  0  0  0  0
  6 27  1  0  0  0  0
  7 28  1  0  0  0  0
  7 29  1  0  0  0  0
  8 30  1  0  0  0  0
  8 31  1  0  0  0  0
  9 32  1  0  0  0  0
  9 33  1  0  0  0  0
 10 34  1  0  0  0  0
 13 35  1  0  0  0  0
 13 36  1  0  0  0  0
 14 37  1  0  0  0  0
M  END
> <FRED Chemgauss4 score>
-7.521238

$$$$
C95922135	P151021417
  -OEChem-05122015313D

 16 16  0     1  0  0  0  0  0999 V2000
  123.6646  104.9311  107.0380 C   0  0  0  0  0  0  0  0  0  0  0  0
  124.3635  107.2353  106.4538 C   0  0  0  0  0  0  0  0  0  0  0  0
  124.9873  104.7304  107.7281 C   0  0  2  0  0  0  0  0  0  0  0  0
  125.4489  106.0432  108.3344 C   0  0  2  0  0  0  0  0  0  0  0  0
  122.7684  104.0060  106.9602 N   0  0  0  0  0  0  0  0  0  0  0  0
  123.4723  106.1575  106.4321 N   0  0  0  0  0  0  0  0  0  0  0  0
  125.4204  107.0967  107.3423 N   0  0  0  0  0  0  0  0  0  0  0  0
  124.2280  108.2213  105.7282 O   0  0  0  0  0  0  0  0  0  0  0  0
  126.7660  105.9272  108.8460 O   0  0  0  0  0  0  0  0  0  0  0  0
  125.9179  104.3154  106.8209 F   0  0  0  0  0  0  0  0  0  0  0  0
  124.8640  103.9668  108.4727 H   0  0  0  0  0  0  0  0  0  0  0  0
  124.7880  106.3370  109.1650 H   0  0  0  0  0  0  0  0  0  0  0  0
  123.1119  103.1625  107.4301 H   0  0  0  0  0  0  0  0  0  0  0  0
  122.6020  106.2887  105.9229 H   0  0  0  0  0  0  0  0  0  0  0  0
  126.1908  107.7487  107.2955 H   0  0  0  0  0  0  0  0  0  0  0  0
  126.9983  106.7937  109.2160 H   0  0  0  0  0  0  0  0  0  0  0  0
  1  3  1  0  0  0  0
  1  5  2  0  0  0  0
  1  6  1  0  0  0  0
  2  6  1  0  0  0  0
  2  7  1  0  0  0  0
  2  8  2  0  0  0  0
  3  4  1  0  0  0  0
  3 10  1  0  0  0  0
  4  7  1  0  0  0  0
  4  9  1  0  0  0  0
  3 11  1  0  0  0  0
  4 12  1  0  0  0  0
  5 13  1  0  0  0  0
  6 14  1  0  0  0  0
  7 15  1  0  0  0  0
  9 16  1  0  0  0  0
M  END
> <FRED Chemgauss4 score>
-7.518790

$$$$
C95922135	P151020631
  -OEChem-05122015313D

 16 16  0     1  0  0  0  0  0999 V2000
  123.6646  104.9311  107.0380 C   0  0  0  0  0  0  0  0  0  0  0  0
  124.3635  107.2353  106.4538 C   0  0  0  0  0  0  0  0  0  0  0  0
  124.9873  104.7304  107.7281 C   0  0  2  0  0  0  0  0  0  0  0  0
  125.4489  106.0432  108.3344 C   0  0  2  0  0  0  0  0  0  0  0  0
  122.7684  104.0060  106.9602 N   0  0  0  0  0  0  0  0  0  0  0  0
  123.4723  106.1575  106.4321 N   0  0  0  0  0  0  0  0  0  0  0  0
  125.4204  107.0967  107.3423 N   0  0  0  0  0  0  0  0  0  0  0  0
  124.2280  108.2213  105.7282 O   0  0  0  0  0  0  0  0  0  0  0  0
  126.7660  105.9272  108.8460 O   0  0  0  0  0  0  0  0  0  0  0  0
  125.9179  104.3154  106.8209 F   0  0  0  0  0  0  0  0  0  0  0  0
  124.8640  103.9668  108.4727 H   0  0  0  0  0  0  0  0  0  0  0  0
  124.7880  106.3370  109.1650 H   0  0  0  0  0  0  0  0  0  0  0  0
  121.9555  104.3651  106.4496 H   0  0  0  0  0  0  0  0  0  0  0  0
  122.6020  106.2887  105.9229 H   0  0  0  0  0  0  0  0  0  0  0  0
  126.1908  107.7487  107.2955 H   0  0  0  0  0  0  0  0  0  0  0  0
  126.9983  106.7937  109.2160 H   0  0  0  0  0  0  0  0  0  0  0  0
  1  3  1  0  0  0  0
  1  5  2  0  0  0  0
  1  6  1  0  0  0  0
  2  6  1  0  0  0  0
  2  7  1  0  0  0  0
  2  8  2  0  0  0  0
  3  4  1  0  0  0  0
  3 10  1  0  0  0  0
  4  7  1  0  0  0  0
  4  9  1  0  0  0  0
  3 11  1  0  0  0  0
  4 12  1  0  0  0  0
  5 13  1  0  0  0  0
  6 14  1  0  0  0  0
  7 15  1  0  0  0  0
  9 16  1  0  0  0  0
M  END
> <FRED Chemgauss4 score>
-7.518790

$$$$
C86576571	P135535140
  -OEChem-05122015313D

 27 27  0     1  0  0  0  0  0999 V2000
  124.2113  107.9750  109.2169 C   0  0  0  0  0  0  0  0  0  0  0  0
  124.3976  109.2031  108.5544 C   0  0  0  0  0  0  0  0  0  0  0  0
  125.1262  107.1301  108.6375 C   0  0  0  0  0  0  0  0  0  0  0  0
  123.7157  104.7886  107.1932 C   0  0  0  0  0  0  0  0  0  0  0  0
  126.8379  107.4310  106.8224 C   0  0  0  0  0  0  0  0  0  0  0  0
  125.8370  102.7320  106.7350 C   0  0  0  0  0  0  0  0  0  0  0  0
  125.4381  105.6629  108.8984 C   0  0  1  0  0  0  0  0  0  0  0  0
  125.1754  104.7962  107.6427 C   0  0  1  0  0  0  0  0  0  0  0  0
  125.3556  109.1477  107.6253 N   0  0  0  0  0  0  0  0  0  0  0  0
  125.7796  107.8746  107.7000 N   0  0  0  0  0  0  0  0  0  0  0  0
  126.8150  105.5135  109.3824 N   0  0  0  0  0  0  0  0  0  0  0  0
  125.5380  103.4403  107.9257 O   0  0  0  0  0  0  0  0  0  0  0  0
  123.5106  107.7385  110.0043 H   0  0  0  0  0  0  0  0  0  0  0  0
  123.8750  110.1360  108.7100 H   0  0  0  0  0  0  0  0  0  0  0  0
  123.0432  104.4696  107.9943 H   0  0  0  0  0  0  0  0  0  0  0  0
  123.5748  104.1281  106.3305 H   0  0  0  0  0  0  0  0  0  0  0  0
  123.4113  105.7915  106.8730 H   0  0  0  0  0  0  0  0  0  0  0  0
  126.3790  107.0508  105.9060 H   0  0  0  0  0  0  0  0  0  0  0  0
  127.5009  108.2711  106.5980 H   0  0  0  0  0  0  0  0  0  0  0  0
  127.4126  106.6439  107.3185 H   0  0  0  0  0  0  0  0  0  0  0  0
  126.1097  101.7028  106.9811 H   0  0  0  0  0  0  0  0  0  0  0  0
  126.6623  103.2243  106.2145 H   0  0  0  0  0  0  0  0  0  0  0  0
  124.9536  102.7286  106.0921 H   0  0  0  0  0  0  0  0  0  0  0  0
  124.7711  105.3114  109.6970 H   0  0  0  0  0  0  0  0  0  0  0  0
  125.7967  105.1227  106.8009 H   0  0  0  0  0  0  0  0  0  0  0  0
  127.2425  104.6210  109.2922 H   0  0  0  0  0  0  0  0  0  0  0  0
  127.1846  106.2368  109.9552 H   0  0  0  0  0  0  0  0  0  0  0  0
  1  2  1  0  0  0  0
  1  3  2  0  0  0  0
  2  9  2  0  0  0  0
  3  7  1  0  0  0  0
  3 10  1  0  0  0  0
  4  8  1  0  0  0  0
  5 10  1  0  0  0  0
  6 12  1  0  0  0  0
  7  8  1  0  0  0  0
  7 11  1  0  0  0  0
  8 12  1  0  0  0  0
  9 10  1  0  0  0  0
  1 13  1  0  0  0  0
  2 14  1  0  0  0  0
  4 15  1  0  0  0  0
  4 16  1  0  0  0  0
  4 17  1  0  0  0  0
  5 18  1  0  0  0  0
  5 19  1  0  0  0  0
  5 20  1  0  0  0  0
  6 21  1  0  0  0  0
  6 22  1  0  0  0  0
  6 23  1  0  0  0  0
  7 24  1  0  0  0  0
  8 25  1  0  0  0  0
 11 26  1  0  0  0  0
 11 27  1  0  0  0  0
M  END
> <FRED Chemgauss4 score>
-7.518780

$$$$
C85085297	P133149947
  -OEChem-05122015313D

 22 22  0     0  0  0  0  0  0999 V2000
  126.4513  107.8942  106.9640 C   0  0  0  0  0  0  0  0  0  0  0  0
  125.0401  108.9240  108.7147 C   0  0  0  0  0  0  0  0  0  0  0  0
  126.0274  106.5368  107.4716 C   0  0  0  0  0  0  0  0  0  0  0  0
  124.6577  107.5366  109.1716 C   0  0  0  0  0  0  0  0  0  0  0  0
  124.2023  105.3025  108.4228 C   0  0  0  0  0  0  0  0  0  0  0  0
  122.6941  105.2623  108.6031 C   0  0  0  0  0  0  0  0  0  0  0  0
  125.9225  108.9784  107.6471 N   0  0  0  0  0  0  0  0  0  0  0  0
  124.6756  106.6287  108.0242 N   0  0  0  0  0  0  0  0  0  0  0  0
  122.2352  103.9632  109.0144 N   0  0  0  0  0  0  0  0  0  0  0  0
  127.2587  108.0120  106.0426 O   0  0  0  0  0  0  0  0  0  0  0  0
  124.6331  109.9278  109.2992 O   0  0  0  0  0  0  0  0  0  0  0  0
  126.0979  105.8136  106.6502 H   0  0  0  0  0  0  0  0  0  0  0  0
  126.7358  106.2469  108.2566 H   0  0  0  0  0  0  0  0  0  0  0  0
  125.4020  107.2212  109.9124 H   0  0  0  0  0  0  0  0  0  0  0  0
  123.6752  107.5830  109.6563 H   0  0  0  0  0  0  0  0  0  0  0  0
  124.5320  104.5937  107.6566 H   0  0  0  0  0  0  0  0  0  0  0  0
  124.7003  105.0537  109.3651 H   0  0  0  0  0  0  0  0  0  0  0  0
  122.3861  105.9718  109.3773 H   0  0  0  0  0  0  0  0  0  0  0  0
  122.1744  105.5158  107.6734 H   0  0  0  0  0  0  0  0  0  0  0  0
  126.2095  109.9019  107.3351 H   0  0  0  0  0  0  0  0  0  0  0  0
  121.2844  103.6930  108.8185 H   0  0  0  0  0  0  0  0  0  0  0  0
  122.7919  103.4276  109.6616 H   0  0  0  0  0  0  0  0  0  0  0  0
  1  3  1  0  0  0  0
  1  7  1  0  0  0  0
  1 10  2  0  0  0  0
  2  4  1  0  0  0  0
  2  7  1  0  0  0  0
  2 11  2  0  0  0  0
  3  8  1  0  0  0  0
  4  8  1  0  0  0  0
  5  6  1  0  0  0  0
  5  8  1  0  0  0  0
  6  9  1  0  0  0  0
  3 12  1  0  0  0  0
  3 13  1  0  0  0  0
  4 14  1  0  0  0  0
  4 15  1  0  0  0  0
  5 16  1  0  0  0  0
  5 17  1  0  0  0  0
  6 18  1  0  0  0  0
  6 19  1  0  0  0  0
  7 20  1  0  0  0  0
  9 21  1  0  0  0  0
  9 22  1  0  0  0  0
M  END
> <FRED Chemgauss4 score>
-7.516559

$$$$
C54497495	P82014190
  -OEChem-05122015313D

 23 23  0     1  0  0  0  0  0999 V2000
  122.8834  104.5975  106.4438 C   0  0  0  0  0  0  0  0  0  0  0  0
  124.2763  106.2613  106.4159 C   0  0  0  0  0  0  0  0  0  0  0  0
  124.4732  108.7540  108.2323 C   0  0  0  0  0  0  0  0  0  0  0  0
  125.1501  104.1102  107.3904 C   0  0  0  0  0  0  0  0  0  0  0  0
  125.5540  107.0652  106.6140 C   0  0  2  0  0  0  0  0  0  0  0  0
  125.5890  107.7353  108.0093 C   0  0  1  0  0  0  0  0  0  0  0  0
  122.2625  105.6231  105.9061 N   0  0  0  0  0  0  0  0  0  0  0  0
  123.1487  106.6816  105.8883 N   0  0  0  0  0  0  0  0  0  0  0  0
  124.1540  104.9546  106.7796 N   0  0  0  0  0  0  0  0  0  0  0  0
  125.7108  108.0444  105.5328 N   0  0  0  0  0  0  0  0  0  0  0  0
  126.8321  108.4286  108.1643 O   0  0  0  0  0  0  0  0  0  0  0  0
  122.4752  103.6103  106.6070 H   0  0  0  0  0  0  0  0  0  0  0  0
  124.4698  109.5312  107.4629 H   0  0  0  0  0  0  0  0  0  0  0  0
  124.5680  109.2304  109.2143 H   0  0  0  0  0  0  0  0  0  0  0  0
  123.4965  108.2572  108.2179 H   0  0  0  0  0  0  0  0  0  0  0  0
  125.7140  103.6217  106.5913 H   0  0  0  0  0  0  0  0  0  0  0  0
  125.8143  104.7198  108.0093 H   0  0  0  0  0  0  0  0  0  0  0  0
  124.6557  103.3661  108.0210 H   0  0  0  0  0  0  0  0  0  0  0  0
  126.4036  106.3721  106.5519 H   0  0  0  0  0  0  0  0  0  0  0  0
  125.5407  106.9863  108.8080 H   0  0  0  0  0  0  0  0  0  0  0  0
  125.3867  107.7903  104.6284 H   0  0  0  0  0  0  0  0  0  0  0  0
  126.3070  108.8225  105.6968 H   0  0  0  0  0  0  0  0  0  0  0  0
  126.8343  108.7799  109.0662 H   0  0  0  0  0  0  0  0  0  0  0  0
  1  7  2  0  0  0  0
  1  9  1  0  0  0  0
  2  5  1  0  0  0  0
  2  8  2  0  0  0  0
  2  9  1  0  0  0  0
  3  6  1  0  0  0  0
  4  9  1  0  0  0  0
  5  6  1  0  0  0  0
  5 10  1  0  0  0  0
  6 11  1  0  0  0  0
  7  8  1  0  0  0  0
  1 12  1  0  0  0  0
  3 13  1  0  0  0  0
  3 14  1  0  0  0  0
  3 15  1  0  0  0  0
  4 16  1  0  0  0  0
  4 17  1  0  0  0  0
  4 18  1  0  0  0  0
  5 19  1  0  0  0  0
  6 20  1  0  0  0  0
 10 21  1  0  0  0  0
 10 22  1  0  0  0  0
 11 23  1  0  0  0  0
M  END
> <FRED Chemgauss4 score>
-7.514813

$$$$
C82909345	P129612485
  -OEChem-05122015313D

 30 31  0     0  0  0  0  0  0999 V2000
  124.1903  109.7946  109.8154 C   0  0  0  0  0  0  0  0  0  0  0  0
  124.4383  108.5022  108.0899 C   0  0  0  0  0  0  0  0  0  0  0  0
  122.9053  106.7878  106.9086 C   0  0  0  0  0  0  0  0  0  0  0  0
  125.1072  106.0567  107.8522 C   0  0  0  0  0  0  0  0  0  0  0  0
  122.8164  105.4185  106.2411 C   0  0  0  0  0  0  0  0  0  0  0  0
  124.8869  104.7286  107.1334 C   0  0  0  0  0  0  0  0  0  0  0  0
  124.3648  107.2507  107.1862 C   0  0  0  0  0  0  0  0  0  0  0  0
  123.2683  107.4802  110.0716 C   0  0  0  0  0  0  0  0  0  0  0  0
  125.0432  107.6199  105.8457 C   0  0  0  0  0  0  0  0  0  0  0  0
  124.8121  110.4882  108.8888 N   0  0  0  0  0  0  0  0  0  0  0  0
  124.9699  109.6660  107.7910 N   0  0  0  0  0  0  0  0  0  0  0  0
  123.9355  108.5384  109.3551 N   0  0  0  0  0  0  0  0  0  0  0  0
  126.3933  107.9973  106.0840 N   0  0  0  0  0  0  0  0  0  0  0  0
  123.4992  104.4372  107.0136 O   0  0  0  0  0  0  0  0  0  0  0  0
  123.9103  110.1403  110.8002 H   0  0  0  0  0  0  0  0  0  0  0  0
  122.4208  107.5255  106.2471 H   0  0  0  0  0  0  0  0  0  0  0  0
  122.3218  106.7757  107.8435 H   0  0  0  0  0  0  0  0  0  0  0  0
  124.7977  105.9539  108.9075 H   0  0  0  0  0  0  0  0  0  0  0  0
  126.1913  106.2719  107.8662 H   0  0  0  0  0  0  0  0  0  0  0  0
  121.7775  105.1061  106.0886 H   0  0  0  0  0  0  0  0  0  0  0  0
  123.2934  105.4567  105.2568 H   0  0  0  0  0  0  0  0  0  0  0  0
  125.2994  104.7893  106.1184 H   0  0  0  0  0  0  0  0  0  0  0  0
  125.3974  103.8957  107.6360 H   0  0  0  0  0  0  0  0  0  0  0  0
  122.1976  107.5555  109.8643 H   0  0  0  0  0  0  0  0  0  0  0  0
  123.6554  106.5137  109.7372 H   0  0  0  0  0  0  0  0  0  0  0  0
  123.4603  107.5919  111.1424 H   0  0  0  0  0  0  0  0  0  0  0  0
  124.5061  108.4488  105.4091 H   0  0  0  0  0  0  0  0  0  0  0  0
  125.0167  106.7579  105.1964 H   0  0  0  0  0  0  0  0  0  0  0  0
  126.6368  108.5043  106.9296 H   0  0  0  0  0  0  0  0  0  0  0  0
  127.0745  107.9465  105.3324 H   0  0  0  0  0  0  0  0  0  0  0  0
  1 10  2  0  0  0  0
  1 12  1  0  0  0  0
  2  7  1  0  0  0  0
  2 11  2  0  0  0  0
  2 12  1  0  0  0  0
  3  5  1  0  0  0  0
  3  7  1  0  0  0  0
  4  6  1  0  0  0  0
  4  7  1  0  0  0  0
  5 14  1  0  0  0  0
  6 14  1  0  0  0  0
  7  9  1  0  0  0  0
  8 12  1  0  0  0  0
  9 13  1  0  0  0  0
 10 11  1  0  0  0  0
  1 15  1  0  0  0  0
  3 16  1  0  0  0  0
  3 17  1  0  0  0  0
  4 18  1  0  0  0  0
  4 19  1  0  0  0  0
  5 20  1  0  0  0  0
  5 21  1  0  0  0  0
  6 22  1  0  0  0  0
  6 23  1  0  0  0  0
  8 24  1  0  0  0  0
  8 25  1  0  0  0  0
  8 26  1  0  0  0  0
  9 27  1  0  0  0  0
  9 28  1  0  0  0  0
 13 29  1  0  0  0  0
 13 30  1  0  0  0  0
M  END
> <FRED Chemgauss4 score>
-7.512561

$$$$
C82906217	P129602072
  -OEChem-05122015313D

 32 31  0     1  0  0  0  0  0999 V2000
  127.2039  106.8195  107.8451 C   0  0  0  0  0  0  0  0  0  0  0  0
  124.9738  104.6791  107.4475 C   0  0  0  0  0  0  0  0  0  0  0  0
  119.7735  104.2467  106.5536 C   0  0  0  0  0  0  0  0  0  0  0  0
  123.2162  105.4313  105.9923 C   0  0  0  0  0  0  0  0  0  0  0  0
  125.2178  108.3548  108.2978 C   0  0  0  0  0  0  0  0  0  0  0  0
  125.1992  106.7597  106.2673 C   0  0  0  0  0  0  0  0  0  0  0  0
  121.9842  105.0129  106.7739 C   0  0  0  0  0  0  0  0  0  0  0  0
  126.0518  107.6208  107.2245 C   0  0  2  0  0  0  0  0  0  0  0  0
  124.1497  109.1922  107.7678 N   0  0  0  0  0  0  0  0  0  0  0  0
  124.2684  105.8496  106.9210 N   0  0  2  0  0  0  0  0  0  0  0  0
  126.6477  108.6365  106.3971 O   0  0  0  0  0  0  0  0  0  0  0  0
  120.9535  104.6416  105.8675 O   0  0  0  0  0  0  0  0  0  0  0  0
  127.7823  106.3070  107.0675 H   0  0  0  0  0  0  0  0  0  0  0  0
  126.8574  106.0681  108.5608 H   0  0  0  0  0  0  0  0  0  0  0  0
  127.9054  107.4871  108.3587 H   0  0  0  0  0  0  0  0  0  0  0  0
  125.7586  104.9937  108.1403 H   0  0  0  0  0  0  0  0  0  0  0  0
  125.4312  104.1144  106.6305 H   0  0  0  0  0  0  0  0  0  0  0  0
  124.2770  104.0251  107.9785 H   0  0  0  0  0  0  0  0  0  0  0  0
  119.0050  103.9689  105.8281 H   0  0  0  0  0  0  0  0  0  0  0  0
  119.4200  105.0717  107.1771 H   0  0  0  0  0  0  0  0  0  0  0  0
  120.0017  103.3860  107.1867 H   0  0  0  0  0  0  0  0  0  0  0  0
  123.6017  104.6049  105.3869 H   0  0  0  0  0  0  0  0  0  0  0  0
  122.9831  106.2766  105.3378 H   0  0  0  0  0  0  0  0  0  0  0  0
  124.7915  107.6207  108.9932 H   0  0  0  0  0  0  0  0  0  0  0  0
  125.8797  108.9832  108.9065 H   0  0  0  0  0  0  0  0  0  0  0  0
  124.6367  107.4154  105.5904 H   0  0  0  0  0  0  0  0  0  0  0  0
  125.8651  106.1764  105.6190 H   0  0  0  0  0  0  0  0  0  0  0  0
  121.6193  105.8513  107.3753 H   0  0  0  0  0  0  0  0  0  0  0  0
  122.1949  104.1652  107.4339 H   0  0  0  0  0  0  0  0  0  0  0  0
  123.8466  109.9723  108.3124 H   0  0  0  0  0  0  0  0  0  0  0  0
  123.6230  108.8506  106.9912 H   0  0  0  0  0  0  0  0  0  0  0  0
  127.1917  109.1713  106.9895 H   0  0  0  0  0  0  0  0  0  0  0  0
  1  8  1  0  0  0  0
  2 10  1  0  0  0  0
  3 12  1  0  0  0  0
  4  7  1  0  0  0  0
  4 10  1  0  0  0  0
  5  8  1  0  0  0  0
  5  9  1  0  0  0  0
  6  8  1  0  0  0  0
  6 10  1  0  0  0  0
  7 12  1  0  0  0  0
  8 11  1  0  0  0  0
  1 13  1  0  0  0  0
  1 14  1  0  0  0  0
  1 15  1  0  0  0  0
  2 16  1  0  0  0  0
  2 17  1  0  0  0  0
  2 18  1  0  0  0  0
  3 19  1  0  0  0  0
  3 20  1  0  0  0  0
  3 21  1  0  0  0  0
  4 22  1  0  0  0  0
  4 23  1  0  0  0  0
  5 24  1  0  0  0  0
  5 25  1  0  0  0  0
  6 26  1  0  0  0  0
  6 27  1  0  0  0  0
  7 28  1  0  0  0  0
  7 29  1  0  0  0  0
  9 30  1  0  0  0  0
  9 31  1  0  0  0  0
 11 32  1  0  0  0  0
M  END
> <FRED Chemgauss4 score>
-7.509797

$$$$
C95922221	P151020888
  -OEChem-05122015313D

 19 19  0     1  0  0  0  0  0999 V2000
  126.0911  107.6735  107.2212 C   0  0  0  0  0  0  0  0  0  0  0  0
  124.9102  107.5931  109.2347 C   0  0  0  0  0  0  0  0  0  0  0  0
  125.5140  108.5881  108.2571 C   0  0  2  0  0  0  0  0  0  0  0  0
  125.6847  105.1929  106.7124 C   0  0  0  0  0  0  0  0  0  0  0  0
  124.8251  104.1011  107.3129 C   0  0  0  0  0  0  0  0  0  0  0  0
  125.5080  106.4468  107.4046 N   0  0  0  0  0  0  0  0  0  0  0  0
  124.5049  109.4100  107.6059 N   0  0  0  0  0  0  0  0  0  0  0  0
  126.9026  107.9994  106.3676 O   0  0  0  0  0  0  0  0  0  0  0  0
  124.5773  106.4372  108.4608 O   0  0  0  0  0  0  0  0  0  0  0  0
  125.0222  102.9493  106.6162 F   0  0  0  0  0  0  0  0  0  0  0  0
  125.6150  107.3175  110.0305 H   0  0  0  0  0  0  0  0  0  0  0  0
  123.9875  107.9624  109.7085 H   0  0  0  0  0  0  0  0  0  0  0  0
  126.3072  109.1765  108.6952 H   0  0  0  0  0  0  0  0  0  0  0  0
  125.4183  105.3640  105.6654 H   0  0  0  0  0  0  0  0  0  0  0  0
  126.7441  104.9290  106.7761 H   0  0  0  0  0  0  0  0  0  0  0  0
  123.7597  104.3454  107.2675 H   0  0  0  0  0  0  0  0  0  0  0  0
  125.1054  103.9117  108.3526 H   0  0  0  0  0  0  0  0  0  0  0  0
  124.6711  109.7211  106.6678 H   0  0  0  0  0  0  0  0  0  0  0  0
  123.7769  109.8105  108.1666 H   0  0  0  0  0  0  0  0  0  0  0  0
  1  3  1  0  0  0  0
  1  6  1  0  0  0  0
  1  8  2  0  0  0  0
  2  3  1  0  0  0  0
  2  9  1  0  0  0  0
  3  7  1  0  0  0  0
  4  5  1  0  0  0  0
  4  6  1  0  0  0  0
  5 10  1  0  0  0  0
  6  9  1  0  0  0  0
  2 11  1  0  0  0  0
  2 12  1  0  0  0  0
  3 13  1  0  0  0  0
  4 14  1  0  0  0  0
  4 15  1  0  0  0  0
  5 16  1  0  0  0  0
  5 17  1  0  0  0  0
  7 18  1  0  0  0  0
  7 19  1  0  0  0  0
M  END
> <FRED Chemgauss4 score>
-7.505524

$$$$
C45108172	P67980203
  -OEChem-05122015313D

 19 19  0     1  0  0  0  0  0999 V2000
  124.4096  107.7936  106.8187 C   0  0  1  0  0  0  0  0  0  0  0  0
  125.2081  106.5406  107.0855 C   0  0  1  0  0  0  0  0  0  0  0  0
  125.2526  106.5057  108.6052 C   0  0  1  0  0  0  0  0  0  0  0  0
  124.8965  108.7112  107.9259 C   0  0  1  0  0  0  0  0  0  0  0  0
  126.5576  105.9510  109.1469 C   0  0  0  0  0  0  0  0  0  0  0  0
  125.0699  107.8577  109.0684 O   0  0  0  0  0  0  0  0  0  0  0  0
  124.6454  108.3308  105.5354 O   0  0  0  0  0  0  0  0  0  0  0  0
  126.1205  109.3631  107.6005 O   0  0  0  0  0  0  0  0  0  0  0  0
  127.6238  106.7625  108.6849 O   0  0  0  0  0  0  0  0  0  0  0  0
  124.5457  105.4586  106.6105 F   0  0  0  0  0  0  0  0  0  0  0  0
  123.3047  107.6232  106.9149 H   0  0  0  0  0  0  0  0  0  0  0  0
  126.2170  106.5495  106.6295 H   0  0  0  0  0  0  0  0  0  0  0  0
  124.4108  105.9021  108.9939 H   0  0  0  0  0  0  0  0  0  0  0  0
  124.1460  109.4566  108.1815 H   0  0  0  0  0  0  0  0  0  0  0  0
  126.7076  104.9290  108.7941 H   0  0  0  0  0  0  0  0  0  0  0  0
  126.5473  105.9618  110.2384 H   0  0  0  0  0  0  0  0  0  0  0  0
  124.0932  109.1257  105.4586 H   0  0  0  0  0  0  0  0  0  0  0  0
  126.3549  109.9248  108.3589 H   0  0  0  0  0  0  0  0  0  0  0  0
  128.4442  106.3859  109.0454 H   0  0  0  0  0  0  0  0  0  0  0  0
  1  2  1  0  0  0  0
  1  4  1  0  0  0  0
  1  7  1  0  0  0  0
  2  3  1  0  0  0  0
  2 10  1  0  0  0  0
  3  5  1  0  0  0  0
  3  6  1  0  0  0  0
  4  6  1  0  0  0  0
  4  8  1  0  0  0  0
  5  9  1  0  0  0  0
  1 11  1  0  0  0  0
  2 12  1  0  0  0  0
  3 13  1  0  0  0  0
  4 14  1  0  0  0  0
  5 15  1  0  0  0  0
  5 16  1  0  0  0  0
  7 17  1  0  0  0  0
  8 18  1  0  0  0  0
  9 19  1  0  0  0  0
M  END
> <FRED Chemgauss4 score>
-7.504993

$$$$
C87121096	P136358264
  -OEChem-05122015313D

 33 33  0     1  0  0  0  0  0999 V2000
  119.9459  104.2281  105.5843 C   0  0  0  0  0  0  0  0  0  0  0  0
  118.5943  103.6346  105.9699 C   0  0  0  0  0  0  0  0  0  0  0  0
  119.9505  104.7385  104.1452 C   0  0  0  0  0  0  0  0  0  0  0  0
  117.4468  105.1400  104.2933 C   0  0  0  0  0  0  0  0  0  0  0  0
  117.4514  104.6311  105.7431 C   0  0  1  0  0  0  0  0  0  0  0  0
  118.7995  105.6992  103.8467 C   0  0  1  0  0  0  0  0  0  0  0  0
  118.0128  108.3548  103.6074 C   0  0  0  0  0  0  0  0  0  0  0  0
  114.9573  104.9553  105.8087 C   0  0  0  0  0  0  0  0  0  0  0  0
  116.1065  103.9944  106.0922 C   0  0  1  0  0  0  0  0  0  0  0  0
  113.7889  104.5507  106.5574 N   0  0  0  0  0  0  0  0  0  0  0  0
  120.4626  107.6807  104.2214 O   0  0  0  0  0  0  0  0  0  0  0  0
  118.6306  107.2905  105.9135 O   0  0  0  0  0  0  0  0  0  0  0  0
  115.9391  102.8279  105.2917 O   0  0  0  0  0  0  0  0  0  0  0  0
  119.0991  107.3049  104.5413 S   0  0  0  0  0  0  0  0  0  0  0  0
  120.1978  105.0441  106.2715 H   0  0  0  0  0  0  0  0  0  0  0  0
  120.7259  103.4673  105.7032 H   0  0  0  0  0  0  0  0  0  0  0  0
  118.4195  102.7245  105.3816 H   0  0  0  0  0  0  0  0  0  0  0  0
  118.6209  103.3303  107.0230 H   0  0  0  0  0  0  0  0  0  0  0  0
  120.9148  105.2143  103.9311 H   0  0  0  0  0  0  0  0  0  0  0  0
  119.8697  103.8759  103.4711 H   0  0  0  0  0  0  0  0  0  0  0  0
  117.1798  104.3100  103.6255 H   0  0  0  0  0  0  0  0  0  0  0  0
  116.6655  105.9006  104.1725 H   0  0  0  0  0  0  0  0  0  0  0  0
  117.5967  105.4845  106.4173 H   0  0  0  0  0  0  0  0  0  0  0  0
  118.7641  105.8808  102.7654 H   0  0  0  0  0  0  0  0  0  0  0  0
  118.1283  109.3780  103.9684 H   0  0  0  0  0  0  0  0  0  0  0  0
  118.2899  108.2873  102.5543 H   0  0  0  0  0  0  0  0  0  0  0  0
  116.9885  108.0100  103.7565 H   0  0  0  0  0  0  0  0  0  0  0  0
  115.2222  105.9773  106.1004 H   0  0  0  0  0  0  0  0  0  0  0  0
  114.7051  104.9566  104.7432 H   0  0  0  0  0  0  0  0  0  0  0  0
  116.1080  103.6901  107.1433 H   0  0  0  0  0  0  0  0  0  0  0  0
  112.8819  104.8206  106.2221 H   0  0  0  0  0  0  0  0  0  0  0  0
  113.9104  104.1927  107.4876 H   0  0  0  0  0  0  0  0  0  0  0  0
  115.9622  103.1209  104.3674 H   0  0  0  0  0  0  0  0  0  0  0  0
  1  2  1  0  0  0  0
  1  3  1  0  0  0  0
  2  5  1  0  0  0  0
  3  6  1  0  0  0  0
  4  5  1  0  0  0  0
  4  6  1  0  0  0  0
  5  9  1  0  0  0  0
  6 14  1  0  0  0  0
  7 14  1  0  0  0  0
  8  9  1  0  0  0  0
  8 10  1  0  0  0  0
  9 13  1  0  0  0  0
 11 14  2  0  0  0  0
 12 14  2  0  0  0  0
  1 15  1  0  0  0  0
  1 16  1  0  0  0  0
  2 17  1  0  0  0  0
  2 18  1  0  0  0  0
  3 19  1  0  0  0  0
  3 20  1  0  0  0  0
  4 21  1  0  0  0  0
  4 22  1  0  0  0  0
  5 23  1  0  0  0  0
  6 24  1  0  0  0  0
  7 25  1  0  0  0  0
  7 26  1  0  0  0  0
  7 27  1  0  0  0  0
  8 28  1  0  0  0  0
  8 29  1  0  0  0  0
  9 30  1  0  0  0  0
 10 31  1  0  0  0  0
 10 32  1  0  0  0  0
 13 33  1  0  0  0  0
M  END
> <FRED Chemgauss4 score>
-7.501954

$$$$
C44470815	P150394998
  -OEChem-05122015313D

 25 25  0     1  0  0  0  0  0999 V2000
  124.2695  107.1561  109.0420 C   0  0  0  0  0  0  0  0  0  0  0  0
  123.6299  107.9397  109.9960 C   0  0  0  0  0  0  0  0  0  0  0  0
  125.0645  109.1482  108.0143 C   0  0  0  0  0  0  0  0  0  0  0  0
  125.0025  107.7641  108.0290 C   0  0  0  0  0  0  0  0  0  0  0  0
  123.7534  109.3160  109.8934 C   0  0  0  0  0  0  0  0  0  0  0  0
  123.2907  111.5153  110.6710 C   0  0  0  0  0  0  0  0  0  0  0  0
  125.2249  107.2250  105.5436 C   0  0  0  0  0  0  0  0  0  0  0  0
  125.7129  106.9364  106.9719 C   0  0  1  0  0  0  0  0  0  0  0  0
  124.4567  109.9426  108.9237 N   0  0  0  0  0  0  0  0  0  0  0  0
  123.8133  106.9843  105.3947 N   0  0  0  0  0  0  0  0  0  0  0  0
  127.1658  107.1325  107.0442 N   0  0  0  0  0  0  0  0  0  0  0  0
  123.1322  110.1096  110.8218 O   0  0  0  0  0  0  0  0  0  0  0  0
  124.1916  106.0737  109.0955 H   0  0  0  0  0  0  0  0  0  0  0  0
  123.0544  107.4808  110.7924 H   0  0  0  0  0  0  0  0  0  0  0  0
  125.6216  109.6783  107.2480 H   0  0  0  0  0  0  0  0  0  0  0  0
  122.7507  112.0313  111.4687 H   0  0  0  0  0  0  0  0  0  0  0  0
  122.9045  111.8239  109.6963 H   0  0  0  0  0  0  0  0  0  0  0  0
  124.3531  111.7621  110.7346 H   0  0  0  0  0  0  0  0  0  0  0  0
  125.3877  108.2779  105.2865 H   0  0  0  0  0  0  0  0  0  0  0  0
  125.7413  106.6170  104.7932 H   0  0  0  0  0  0  0  0  0  0  0  0
  125.5258  105.8752  107.1824 H   0  0  0  0  0  0  0  0  0  0  0  0
  123.4457  106.7768  104.4807 H   0  0  0  0  0  0  0  0  0  0  0  0
  123.1933  107.2238  106.1511 H   0  0  0  0  0  0  0  0  0  0  0  0
  127.7018  106.9138  106.2369 H   0  0  0  0  0  0  0  0  0  0  0  0
  127.5681  107.2754  107.9413 H   0  0  0  0  0  0  0  0  0  0  0  0
  1  2  2  0  0  0  0
  1  4  1  0  0  0  0
  2  5  1  0  0  0  0
  3  4  2  0  0  0  0
  3  9  1  0  0  0  0
  4  8  1  0  0  0  0
  5  9  2  0  0  0  0
  5 12  1  0  0  0  0
  6 12  1  0  0  0  0
  7  8  1  0  0  0  0
  7 10  1  0  0  0  0
  8 11  1  0  0  0  0
  1 13  1  0  0  0  0
  2 14  1  0  0  0  0
  3 15  1  0  0  0  0
  6 16  1  0  0  0  0
  6 17  1  0  0  0  0
  6 18  1  0  0  0  0
  7 19  1  0  0  0  0
  7 20  1  0  0  0  0
  8 21  1  0  0  0  0
 10 22  1  0  0  0  0
 10 23  1  0  0  0  0
 11 24  1  0  0  0  0
 11 25  1  0  0  0  0
M  END
> <FRED Chemgauss4 score>
-7.501212

$$$$
C63065286	P128791481
  -OEChem-05122015313D

 26 26  0     1  0  0  0  0  0999 V2000
  120.6211  105.7363  105.8486 C   0  0  0  0  0  0  0  0  0  0  0  0
  121.4750  105.0198  106.6621 C   0  0  0  0  0  0  0  0  0  0  0  0
  121.2124  106.7183  105.0802 C   0  0  0  0  0  0  0  0  0  0  0  0
  123.2609  106.2209  105.9308 C   0  0  0  0  0  0  0  0  0  0  0  0
  119.0389  107.1838  104.2347 C   0  0  0  0  0  0  0  0  0  0  0  0
  125.4960  105.5483  106.9381 C   0  0  0  0  0  0  0  0  0  0  0  0
  125.0411  107.9597  106.3557 C   0  0  0  0  0  0  0  0  0  0  0  0
  124.7588  106.4964  105.9781 C   0  0  2  0  0  0  0  0  0  0  0  0
  122.8050  105.2363  106.7284 N   0  0  0  0  0  0  0  0  0  0  0  0
  122.5341  106.9887  105.0965 N   0  0  0  0  0  0  0  0  0  0  0  0
  126.9481  105.5381  106.6383 N   0  0  0  0  0  0  0  0  0  0  0  0
  124.8988  108.7871  105.2062 O   0  0  0  0  0  0  0  0  0  0  0  0
  120.4318  107.4742  104.2463 O   0  0  0  0  0  0  0  0  0  0  0  0
  119.5579  105.5360  105.8202 H   0  0  0  0  0  0  0  0  0  0  0  0
  121.1019  104.2278  107.3026 H   0  0  0  0  0  0  0  0  0  0  0  0
  118.5325  107.8518  103.5337 H   0  0  0  0  0  0  0  0  0  0  0  0
  118.6300  107.3150  105.2397 H   0  0  0  0  0  0  0  0  0  0  0  0
  118.8943  106.1485  103.9170 H   0  0  0  0  0  0  0  0  0  0  0  0
  125.1185  104.5219  106.8848 H   0  0  0  0  0  0  0  0  0  0  0  0
  125.3789  105.8921  107.9722 H   0  0  0  0  0  0  0  0  0  0  0  0
  124.3649  108.3253  107.1356 H   0  0  0  0  0  0  0  0  0  0  0  0
  126.0702  108.0686  106.7146 H   0  0  0  0  0  0  0  0  0  0  0  0
  125.1613  106.3369  104.9676 H   0  0  0  0  0  0  0  0  0  0  0  0
  127.2077  105.5414  105.6865 H   0  0  0  0  0  0  0  0  0  0  0  0
  127.5567  105.3248  107.3850 H   0  0  0  0  0  0  0  0  0  0  0  0
  125.0855  109.6951  105.4925 H   0  0  0  0  0  0  0  0  0  0  0  0
  1  2  2  0  0  0  0
  1  3  1  0  0  0  0
  2  9  1  0  0  0  0
  3 10  2  0  0  0  0
  3 13  1  0  0  0  0
  4  8  1  0  0  0  0
  4  9  2  0  0  0  0
  4 10  1  0  0  0  0
  5 13  1  0  0  0  0
  6  8  1  0  0  0  0
  6 11  1  0  0  0  0
  7  8  1  0  0  0  0
  7 12  1  0  0  0  0
  1 14  1  0  0  0  0
  2 15  1  0  0  0  0
  5 16  1  0  0  0  0
  5 17  1  0  0  0  0
  5 18  1  0  0  0  0
  6 19  1  0  0  0  0
  6 20  1  0  0  0  0
  7 21  1  0  0  0  0
  7 22  1  0  0  0  0
  8 23  1  0  0  0  0
 11 24  1  0  0  0  0
 11 25  1  0  0  0  0
 12 26  1  0  0  0  0
M  END
> <FRED Chemgauss4 score>
-7.498371

$$$$
C82576096	P129060985
  -OEChem-05122015313D

 23 23  0     1  0  0  0  0  0999 V2000
  125.6910  107.4207  107.8356 C   0  0  0  0  0  0  0  0  0  0  0  0
  125.1581  103.7514  108.1978 C   0  0  0  0  0  0  0  0  0  0  0  0
  124.3721  108.6354  109.6240 C   0  0  0  0  0  0  0  0  0  0  0  0
  123.2651  105.3636  107.6304 C   0  0  0  0  0  0  0  0  0  0  0  0
  124.7742  105.1101  107.6204 C   0  0  1  0  0  0  0  0  0  0  0  0
  126.3709  107.7971  106.7771 N   0  0  0  0  0  0  0  0  0  0  0  0
  126.2705  109.1695  106.7400 N   0  0  0  0  0  0  0  0  0  0  0  0
  125.5438  109.6222  107.7544 N   0  0  0  0  0  0  0  0  0  0  0  0
  125.1828  108.5273  108.4378 N   0  0  0  0  0  0  0  0  0  0  0  0
  122.5494  104.3659  106.8682 N   0  0  0  0  0  0  0  0  0  0  0  0
  125.4545  106.1595  108.3516 N   0  0  0  0  0  0  0  0  0  0  0  0
  124.8418  103.6460  109.2413 H   0  0  0  0  0  0  0  0  0  0  0  0
  124.6792  102.9444  107.6319 H   0  0  0  0  0  0  0  0  0  0  0  0
  126.2414  103.5997  108.1505 H   0  0  0  0  0  0  0  0  0  0  0  0
  125.0416  108.7397  110.4818 H   0  0  0  0  0  0  0  0  0  0  0  0
  123.7191  109.5086  109.5403 H   0  0  0  0  0  0  0  0  0  0  0  0
  123.7572  107.7366  109.7245 H   0  0  0  0  0  0  0  0  0  0  0  0
  123.0470  106.3502  107.2062 H   0  0  0  0  0  0  0  0  0  0  0  0
  122.8908  105.3615  108.6599 H   0  0  0  0  0  0  0  0  0  0  0  0
  125.1191  105.1465  106.5803 H   0  0  0  0  0  0  0  0  0  0  0  0
  122.9549  104.0254  106.0150 H   0  0  0  0  0  0  0  0  0  0  0  0
  121.5868  104.1854  107.0904 H   0  0  0  0  0  0  0  0  0  0  0  0
  125.7702  105.9531  109.2902 H   0  0  0  0  0  0  0  0  0  0  0  0
  1  6  2  0  0  0  0
  1  9  1  0  0  0  0
  1 11  1  0  0  0  0
  2  5  1  0  0  0  0
  3  9  1  0  0  0  0
  4  5  1  0  0  0  0
  4 10  1  0  0  0  0
  5 11  1  0  0  0  0
  6  7  1  0  0  0  0
  7  8  2  0  0  0  0
  8  9  1  0  0  0  0
  2 12  1  0  0  0  0
  2 13  1  0  0  0  0
  2 14  1  0  0  0  0
  3 15  1  0  0  0  0
  3 16  1  0  0  0  0
  3 17  1  0  0  0  0
  4 18  1  0  0  0  0
  4 19  1  0  0  0  0
  5 20  1  0  0  0  0
 10 21  1  0  0  0  0
 10 22  1  0  0  0  0
 11 23  1  0  0  0  0
M  END
> <FRED Chemgauss4 score>
-7.498057

$$$$
C28051436	P41316188
  -OEChem-05122015313D

 20 20  0     0  0  0  0  0  0999 V2000
  125.1331  107.8128  105.6292 C   0  0  0  0  0  0  0  0  0  0  0  0
  126.6055  107.5887  107.0917 C   0  0  0  0  0  0  0  0  0  0  0  0
  122.9755  105.4542  108.0217 C   0  0  0  0  0  0  0  0  0  0  0  0
  124.3211  104.7667  108.1666 C   0  0  0  0  0  0  0  0  0  0  0  0
  125.4552  105.7575  108.4091 C   0  0  0  0  0  0  0  0  0  0  0  0
  126.3493  108.2977  106.0170 N   0  0  0  0  0  0  0  0  0  0  0  0
  124.6207  106.8483  106.3964 N   0  0  0  0  0  0  0  0  0  0  0  0
  125.5818  106.7240  107.3243 N   0  0  0  0  0  0  0  0  0  0  0  0
  120.6680  104.9929  107.6473 N   0  0  0  0  0  0  0  0  0  0  0  0
  121.9611  104.5374  107.8024 N   0  0  0  0  0  0  0  0  0  0  0  0
  122.8331  106.6723  108.0939 O   0  0  0  0  0  0  0  0  0  0  0  0
  124.6042  108.1721  104.7592 H   0  0  0  0  0  0  0  0  0  0  0  0
  127.4860  107.6562  107.7149 H   0  0  0  0  0  0  0  0  0  0  0  0
  124.5123  104.1882  107.2543 H   0  0  0  0  0  0  0  0  0  0  0  0
  124.2560  104.0545  108.9984 H   0  0  0  0  0  0  0  0  0  0  0  0
  126.4168  105.2397  108.5107 H   0  0  0  0  0  0  0  0  0  0  0  0
  125.2985  106.3171  109.3395 H   0  0  0  0  0  0  0  0  0  0  0  0
  120.0546  104.2835  108.0465 H   0  0  0  0  0  0  0  0  0  0  0  0
  120.5710  105.8151  108.2416 H   0  0  0  0  0  0  0  0  0  0  0  0
  122.1283  103.5375  107.7492 H   0  0  0  0  0  0  0  0  0  0  0  0
  1  6  1  0  0  0  0
  1  7  2  0  0  0  0
  2  6  2  0  0  0  0
  2  8  1  0  0  0  0
  3  4  1  0  0  0  0
  3 10  1  0  0  0  0
  3 11  2  0  0  0  0
  4  5  1  0  0  0  0
  5  8  1  0  0  0  0
  7  8  1  0  0  0  0
  9 10  1  0  0  0  0
  1 12  1  0  0  0  0
  2 13  1  0  0  0  0
  4 14  1  0  0  0  0
  4 15  1  0  0  0  0
  5 16  1  0  0  0  0
  5 17  1  0  0  0  0
  9 18  1  0  0  0  0
  9 19  1  0  0  0  0
 10 20  1  0  0  0  0
M  END
> <FRED Chemgauss4 score>
-7.496110

$$$$
cis-3-hydroxyproline	P10000031
  -OEChem-05122015313D

 18 18  0     1  0  0  0  0  0999 V2000
  125.0898  108.8254  108.0765 C   0  0  0  0  0  0  0  0  0  0  0  0
  124.8360  105.6710  107.9999 C   0  0  0  0  0  0  0  0  0  0  0  0
  126.2495  105.6138  108.5379 C   0  0  0  0  0  0  0  0  0  0  0  0
  125.8620  107.7327  107.3593 C   0  0  2  0  0  0  0  0  0  0  0  0
  124.9552  106.6301  106.8282 C   0  0  2  0  0  0  0  0  0  0  0  0
  126.8030  106.9871  108.2775 N   0  3  0  0  0  0  0  0  0  0  0  0
  124.3475  108.4316  109.0184 O   0  5  0  0  0  0  0  0  0  0  0  0
  125.2906  109.9921  107.6363 O   0  0  0  0  0  0  0  0  0  0  0  0
  123.6928  107.1118  106.4114 O   0  0  0  0  0  0  0  0  0  0  0  0
  124.5273  104.6802  107.6515 H   0  0  0  0  0  0  0  0  0  0  0  0
  124.1339  106.0121  108.7642 H   0  0  0  0  0  0  0  0  0  0  0  0
  126.2786  105.4612  109.6208 H   0  0  0  0  0  0  0  0  0  0  0  0
  126.8828  104.8827  108.0296 H   0  0  0  0  0  0  0  0  0  0  0  0
  126.4594  108.1604  106.5818 H   0  0  0  0  0  0  0  0  0  0  0  0
  125.4248  106.1177  105.9446 H   0  0  0  0  0  0  0  0  0  0  0  0
  126.9131  107.4905  109.1701 H   0  0  0  0  0  0  0  0  0  0  0  0
  127.7435  106.9335  107.8592 H   0  0  0  0  0  0  0  0  0  0  0  0
  123.3050  107.5714  107.1730 H   0  0  0  0  0  0  0  0  0  0  0  0
  1  4  1  0  0  0  0
  1  7  1  0  0  0  0
  1  8  2  0  0  0  0
  2  3  1  0  0  0  0
  2  5  1  0  0  0  0
  3  6  1  0  0  0  0
  4  5  1  0  0  0  0
  4  6  1  0  0  0  0
  5  9  1  0  0  0  0
  2 10  1  0  0  0  0
  2 11  1  0  0  0  0
  3 12  1  0  0  0  0
  3 13  1  0  0  0  0
  4 14  1  0  0  0  0
  5 15  1  0  0  0  0
  6 16  1  0  0  0  0
  6 17  1  0  0  0  0
  9 18  1  0  0  0  0
M  CHG  2   6   1   7  -1
M  END
> <FRED Chemgauss4 score>
-7.493859

$$$$
C87195299	P148450313
  -OEChem-05122015313D

 22 23  0     1  0  0  0  0  0999 V2000
  125.0657  108.4141  108.7851 C   0  0  0  0  0  0  0  0  0  0  0  0
  126.5580  107.4964  107.2877 C   0  0  0  0  0  0  0  0  0  0  0  0
  124.2868  108.2665  107.5076 C   0  0  0  0  0  0  0  0  0  0  0  0
  123.7790  104.2312  106.9926 C   0  0  0  0  0  0  0  0  0  0  0  0
  125.7880  104.4008  107.4229 C   0  0  0  0  0  0  0  0  0  0  0  0
  125.2569  107.6039  106.5362 C   0  0  2  0  0  0  0  0  0  0  0  0
  124.6582  105.4283  107.3540 C   0  0  0  0  0  0  0  0  0  0  0  0
  126.3474  107.9840  108.5538 N   0  0  0  0  0  0  0  0  0  0  0  0
  124.8377  106.2589  106.1705 N   0  0  0  0  0  0  0  0  0  0  0  0
  124.6139  108.8576  109.8305 O   0  0  0  0  0  0  0  0  0  0  0  0
  127.5992  107.0360  106.8423 O   0  0  0  0  0  0  0  0  0  0  0  0
  124.9411  103.3757  106.8422 O   0  0  0  0  0  0  0  0  0  0  0  0
  123.3838  107.6755  107.6915 H   0  0  0  0  0  0  0  0  0  0  0  0
  123.9916  109.2586  107.1505 H   0  0  0  0  0  0  0  0  0  0  0  0
  123.1360  103.8704  107.8026 H   0  0  0  0  0  0  0  0  0  0  0  0
  123.1932  104.2913  106.0699 H   0  0  0  0  0  0  0  0  0  0  0  0
  126.6802  104.5864  106.8168 H   0  0  0  0  0  0  0  0  0  0  0  0
  126.0943  104.1205  108.4362 H   0  0  0  0  0  0  0  0  0  0  0  0
  125.3971  108.2197  105.6419 H   0  0  0  0  0  0  0  0  0  0  0  0
  124.4111  105.9566  108.2764 H   0  0  0  0  0  0  0  0  0  0  0  0
  127.0767  108.0227  109.2573 H   0  0  0  0  0  0  0  0  0  0  0  0
  123.9564  106.3083  105.6593 H   0  0  0  0  0  0  0  0  0  0  0  0
  1  3  1  0  0  0  0
  1  8  1  0  0  0  0
  1 10  2  0  0  0  0
  2  6  1  0  0  0  0
  2  8  1  0  0  0  0
  2 11  2  0  0  0  0
  3  6  1  0  0  0  0
  4  7  1  0  0  0  0
  4 12  1  0  0  0  0
  5  7  1  0  0  0  0
  5 12  1  0  0  0  0
  6  9  1  0  0  0  0
  7  9  1  0  0  0  0
  3 13  1  0  0  0  0
  3 14  1  0  0  0  0
  4 15  1  0  0  0  0
  4 16  1  0  0  0  0
  5 17  1  0  0  0  0
  5 18  1  0  0  0  0
  6 19  1  0  0  0  0
  7 20  1  0  0  0  0
  8 21  1  0  0  0  0
  9 22  1  0  0  0  0
M  END
> <FRED Chemgauss4 score>
-7.490725

$$$$
C03830678	P56795441
  -OEChem-05122015313D

 24 24  0     1  0  0  0  0  0999 V2000
  126.0300  106.4211  108.3213 C   0  0  1  0  0  0  0  0  0  0  0  0
  124.7041  106.7679  109.0084 C   0  0  2  0  0  0  0  0  0  0  0  0
  126.2984  107.3280  107.1187 C   0  0  1  0  0  0  0  0  0  0  0  0
  123.5747  106.8090  107.9677 C   0  0  1  0  0  0  0  0  0  0  0  0
  125.0838  107.3146  106.1878 C   0  0  1  0  0  0  0  0  0  0  0  0
  122.2435  107.2687  108.5497 C   0  0  0  0  0  0  0  0  0  0  0  0
  123.9069  107.7079  106.8989 O   0  0  0  0  0  0  0  0  0  0  0  0
  127.0972  106.4892  109.2588 O   0  0  0  0  0  0  0  0  0  0  0  0
  124.8266  108.0323  109.6596 O   0  0  0  0  0  0  0  0  0  0  0  0
  126.5383  108.6630  107.5680 O   0  0  0  0  0  0  0  0  0  0  0  0
  125.3339  108.2002  105.1005 O   0  0  0  0  0  0  0  0  0  0  0  0
  122.2604  108.6810  108.6571 O   0  0  0  0  0  0  0  0  0  0  0  0
  125.9734  105.3824  107.9713 H   0  0  0  0  0  0  0  0  0  0  0  0
  124.4917  106.0283  109.7892 H   0  0  0  0  0  0  0  0  0  0  0  0
  127.2052  107.0130  106.5905 H   0  0  0  0  0  0  0  0  0  0  0  0
  123.4334  105.8070  107.5419 H   0  0  0  0  0  0  0  0  0  0  0  0
  124.9361  106.3098  105.7725 H   0  0  0  0  0  0  0  0  0  0  0  0
  122.0988  106.8349  109.5398 H   0  0  0  0  0  0  0  0  0  0  0  0
  121.4252  106.9680  107.8945 H   0  0  0  0  0  0  0  0  0  0  0  0
  126.8967  105.8458  109.9573 H   0  0  0  0  0  0  0  0  0  0  0  0
  123.9704  108.2093  110.0774 H   0  0  0  0  0  0  0  0  0  0  0  0
  127.3124  108.6201  108.1488 H   0  0  0  0  0  0  0  0  0  0  0  0
  124.5488  108.1689  104.5316 H   0  0  0  0  0  0  0  0  0  0  0  0
  121.4032  108.9488  109.0296 H   0  0  0  0  0  0  0  0  0  0  0  0
  1  2  1  0  0  0  0
  1  3  1  0  0  0  0
  1  8  1  0  0  0  0
  2  4  1  0  0  0  0
  2  9  1  0  0  0  0
  3  5  1  0  0  0  0
  3 10  1  0  0  0  0
  4  6  1  0  0  0  0
  4  7  1  0  0  0  0
  5  7  1  0  0  0  0
  5 11  1  0  0  0  0
  6 12  1  0  0  0  0
  1 13  1  0  0  0  0
  2 14  1  0  0  0  0
  3 15  1  0  0  0  0
  4 16  1  0  0  0  0
  5 17  1  0  0  0  0
  6 18  1  0  0  0  0
  6 19  1  0  0  0  0
  8 20  1  0  0  0  0
  9 21  1  0  0  0  0
 10 22  1  0  0  0  0
 11 23  1  0  0  0  0
 12 24  1  0  0  0  0
M  END
> <FRED Chemgauss4 score>
-7.490094

$$$$
C87121137	P136358272
  -OEChem-05122015313D

 36 36  0     1  0  0  0  0  0999 V2000
  124.4987  104.1294  108.2611 C   0  0  0  0  0  0  0  0  0  0  0  0
  123.0803  104.4241  107.7792 C   0  0  0  0  0  0  0  0  0  0  0  0
  125.3634  105.3862  108.2680 C   0  0  0  0  0  0  0  0  0  0  0  0
  123.9477  106.3683  106.4180 C   0  0  0  0  0  0  0  0  0  0  0  0
  123.0796  105.1027  106.4031 C   0  0  2  0  0  0  0  0  0  0  0  0
  125.3677  106.0704  106.9018 C   0  0  1  0  0  0  0  0  0  0  0  0
  120.8128  104.1532  105.9156 C   0  0  0  0  0  0  0  0  0  0  0  0
  125.4930  108.5300  108.1914 C   0  0  0  0  0  0  0  0  0  0  0  0
  121.6732  106.1622  104.6124 C   0  0  0  0  0  0  0  0  0  0  0  0
  121.6537  105.4316  105.9648 C   0  0  2  0  0  0  0  0  0  0  0  0
  120.3612  106.5277  104.1461 N   0  0  0  0  0  0  0  0  0  0  0  0
  126.1763  108.2381  105.6853 O   0  0  0  0  0  0  0  0  0  0  0  0
  127.6416  107.2256  107.4740 O   0  0  0  0  0  0  0  0  0  0  0  0
  121.0757  106.2916  106.9514 O   0  0  0  0  0  0  0  0  0  0  0  0
  126.3273  107.5601  106.9589 S   0  0  0  0  0  0  0  0  0  0  0  0
  124.4634  103.7012  109.2692 H   0  0  0  0  0  0  0  0  0  0  0  0
  124.9562  103.3749  107.6095 H   0  0  0  0  0  0  0  0  0  0  0  0
  122.5122  103.4872  107.7344 H   0  0  0  0  0  0  0  0  0  0  0  0
  122.5763  105.0664  108.5127 H   0  0  0  0  0  0  0  0  0  0  0  0
  124.9902  106.0795  109.0330 H   0  0  0  0  0  0  0  0  0  0  0  0
  126.3872  105.1244  108.5608 H   0  0  0  0  0  0  0  0  0  0  0  0
  123.9850  106.8044  105.4117 H   0  0  0  0  0  0  0  0  0  0  0  0
  123.4877  107.1272  107.0651 H   0  0  0  0  0  0  0  0  0  0  0  0
  123.5036  104.4018  105.6716 H   0  0  0  0  0  0  0  0  0  0  0  0
  125.8729  105.4254  106.1726 H   0  0  0  0  0  0  0  0  0  0  0  0
  119.7834  104.3612  105.6034 H   0  0  0  0  0  0  0  0  0  0  0  0
  120.7406  103.6996  106.9111 H   0  0  0  0  0  0  0  0  0  0  0  0
  121.2434  103.4154  105.2308 H   0  0  0  0  0  0  0  0  0  0  0  0
  126.0200  109.4796  108.2972 H   0  0  0  0  0  0  0  0  0  0  0  0
  124.4665  108.6970  107.8614 H   0  0  0  0  0  0  0  0  0  0  0  0
  125.5075  107.9776  109.1321 H   0  0  0  0  0  0  0  0  0  0  0  0
  122.2397  107.0970  104.6850 H   0  0  0  0  0  0  0  0  0  0  0  0
  122.1308  105.5389  103.8367 H   0  0  0  0  0  0  0  0  0  0  0  0
  120.2097  106.6534  103.1587 H   0  0  0  0  0  0  0  0  0  0  0  0
  119.6767  106.8481  104.8115 H   0  0  0  0  0  0  0  0  0  0  0  0
  121.0899  105.7968  107.7835 H   0  0  0  0  0  0  0  0  0  0  0  0
  1  2  1  0  0  0  0
  1  3  1  0  0  0  0
  2  5  1  0  0  0  0
  3  6  1  0  0  0  0
  4  5  1  0  0  0  0
  4  6  1  0  0  0  0
  5 10  1  0  0  0  0
  6 15  1  0  0  0  0
  7 10  1  0  0  0  0
  8 15  1  0  0  0  0
  9 10  1  0  0  0  0
  9 11  1  0  0  0  0
 10 14  1  0  0  0  0
 12 15  2  0  0  0  0
 13 15  2  0  0  0  0
  1 16  1  0  0  0  0
  1 17  1  0  0  0  0
  2 18  1  0  0  0  0
  2 19  1  0  0  0  0
  3 20  1  0  0  0  0
  3 21  1  0  0  0  0
  4 22  1  0  0  0  0
  4 23  1  0  0  0  0
  5 24  1  0  0  0  0
  6 25  1  0  0  0  0
  7 26  1  0  0  0  0
  7 27  1  0  0  0  0
  7 28  1  0  0  0  0
  8 29  1  0  0  0  0
  8 30  1  0  0  0  0
  8 31  1  0  0  0  0
  9 32  1  0  0  0  0
  9 33  1  0  0  0  0
 11 34  1  0  0  0  0
 11 35  1  0  0  0  0
 14 36  1  0  0  0  0
M  END
> <FRED Chemgauss4 score>
-7.488491

$$$$
C85248143	P133396850
  -OEChem-05122015313D

 29 29  0     1  0  0  0  0  0999 V2000
  126.5689  105.9098  106.9840 C   0  0  0  0  0  0  0  0  0  0  0  0
  124.7854  106.2539  106.0020 C   0  0  0  0  0  0  0  0  0  0  0  0
  125.1447  105.3674  107.2095 C   0  0  0  0  0  0  0  0  0  0  0  0
  124.9865  103.8726  106.9730 C   0  0  0  0  0  0  0  0  0  0  0  0
  124.5108  105.8203  108.5200 C   0  0  0  0  0  0  0  0  0  0  0  0
  123.9081  107.8111  109.7175 C   0  0  0  0  0  0  0  0  0  0  0  0
  123.1051  110.0957  110.5192 C   0  0  0  0  0  0  0  0  0  0  0  0
  124.2640  109.2785  109.9564 C   0  0  2  0  0  0  0  0  0  0  0  0
  124.8395  107.1838  108.7716 N   0  0  0  0  0  0  0  0  0  0  0  0
  126.0870  106.8884  106.0311 O   0  0  0  0  0  0  0  0  0  0  0  0
  122.0309  110.0755  109.5840 O   0  0  0  0  0  0  0  0  0  0  0  0
  124.6874  109.8757  108.7302 O   0  0  0  0  0  0  0  0  0  0  0  0
  127.0456  106.3875  107.8453 H   0  0  0  0  0  0  0  0  0  0  0  0
  127.2806  105.2241  106.5127 H   0  0  0  0  0  0  0  0  0  0  0  0
  124.6247  105.7368  105.0503 H   0  0  0  0  0  0  0  0  0  0  0  0
  123.9808  106.9787  106.1582 H   0  0  0  0  0  0  0  0  0  0  0  0
  123.9537  103.5719  107.1534 H   0  0  0  0  0  0  0  0  0  0  0  0
  125.6383  103.3155  107.6472 H   0  0  0  0  0  0  0  0  0  0  0  0
  125.2506  103.6260  105.9439 H   0  0  0  0  0  0  0  0  0  0  0  0
  124.8948  105.2059  109.3248 H   0  0  0  0  0  0  0  0  0  0  0  0
  123.4355  105.7202  108.4465 H   0  0  0  0  0  0  0  0  0  0  0  0
  123.9538  107.2568  110.6609 H   0  0  0  0  0  0  0  0  0  0  0  0
  122.8884  107.7267  109.3275 H   0  0  0  0  0  0  0  0  0  0  0  0
  123.3986  111.1382  110.6760 H   0  0  0  0  0  0  0  0  0  0  0  0
  122.7336  109.6724  111.4579 H   0  0  0  0  0  0  0  0  0  0  0  0
  125.1163  109.3372  110.6436 H   0  0  0  0  0  0  0  0  0  0  0  0
  125.7886  107.2662  109.1646 H   0  0  0  0  0  0  0  0  0  0  0  0
  121.3152  110.6022  109.9728 H   0  0  0  0  0  0  0  0  0  0  0  0
  125.4631  109.3752  108.4360 H   0  0  0  0  0  0  0  0  0  0  0  0
  1  3  1  0  0  0  0
  1 10  1  0  0  0  0
  2  3  1  0  0  0  0
  2 10  1  0  0  0  0
  3  4  1  0  0  0  0
  3  5  1  0  0  0  0
  5  9  1  0  0  0  0
  6  8  1  0  0  0  0
  6  9  1  0  0  0  0
  7  8  1  0  0  0  0
  7 11  1  0  0  0  0
  8 12  1  0  0  0  0
  1 13  1  0  0  0  0
  1 14  1  0  0  0  0
  2 15  1  0  0  0  0
  2 16  1  0  0  0  0
  4 17  1  0  0  0  0
  4 18  1  0  0  0  0
  4 19  1  0  0  0  0
  5 20  1  0  0  0  0
  5 21  1  0  0  0  0
  6 22  1  0  0  0  0
  6 23  1  0  0  0  0
  7 24  1  0  0  0  0
  7 25  1  0  0  0  0
  8 26  1  0  0  0  0
  9 27  1  0  0  0  0
 11 28  1  0  0  0  0
 12 29  1  0  0  0  0
M  END
> <FRED Chemgauss4 score>
-7.486281

$$$$
C06317442	P09891162
  -OEChem-05122015313D

 17 16  0     0  0  0  0  0  0999 V2000
  119.8700  107.4597  104.5787 C   0  0  0  0  0  0  0  0  0  0  0  0
  120.6496  106.3760  104.5879 C   0  0  0  0  0  0  0  0  0  0  0  0
  121.7635  106.3002  105.5530 C   0  0  0  0  0  0  0  0  0  0  0  0
  125.6578  107.4645  107.7085 C   0  0  0  0  0  0  0  0  0  0  0  0
  124.7166  107.8168  106.5990 C   0  0  0  0  0  0  0  0  0  0  0  0
  122.7184  107.1716  105.5570 N   0  0  0  0  0  0  0  0  0  0  0  0
  126.6987  108.3460  107.8376 N   0  0  0  0  0  0  0  0  0  0  0  0
  123.6552  106.9506  106.5066 N   0  0  0  0  0  0  0  0  0  0  0  0
  125.4206  106.4782  108.3864 O   0  0  0  0  0  0  0  0  0  0  0  0
  124.9647  108.8058  105.9278 O   0  0  0  0  0  0  0  0  0  0  0  0
  119.0466  107.5313  103.8761 H   0  0  0  0  0  0  0  0  0  0  0  0
  120.0252  108.2916  105.2573 H   0  0  0  0  0  0  0  0  0  0  0  0
  120.4876  105.5497  103.9068 H   0  0  0  0  0  0  0  0  0  0  0  0
  121.7312  105.4569  106.2677 H   0  0  0  0  0  0  0  0  0  0  0  0
  126.7628  109.1391  107.2073 H   0  0  0  0  0  0  0  0  0  0  0  0
  127.4066  108.2185  108.5533 H   0  0  0  0  0  0  0  0  0  0  0  0
  123.5441  106.1496  107.1209 H   0  0  0  0  0  0  0  0  0  0  0  0
  1  2  2  0  0  0  0
  2  3  1  0  0  0  0
  3  6  2  0  0  0  0
  4  5  1  0  0  0  0
  4  7  1  0  0  0  0
  4  9  2  0  0  0  0
  5  8  1  0  0  0  0
  5 10  2  0  0  0  0
  6  8  1  0  0  0  0
  1 11  1  0  0  0  0
  1 12  1  0  0  0  0
  2 13  1  0  0  0  0
  3 14  1  0  0  0  0
  7 15  1  0  0  0  0
  7 16  1  0  0  0  0
  8 17  1  0  0  0  0
M  END
> <FRED Chemgauss4 score>
-7.484088

$$$$
C87343894	P136653808
  -OEChem-05122015313D

 23 23  0     1  0  0  0  0  0999 V2000
  125.8126  104.2091  108.4560 C   0  0  0  0  0  0  0  0  0  0  0  0
  124.7160  103.9953  107.6547 C   0  0  0  0  0  0  0  0  0  0  0  0
  125.3439  106.1073  107.6149 C   0  0  0  0  0  0  0  0  0  0  0  0
  125.4077  107.5016  107.3162 C   0  0  0  0  0  0  0  0  0  0  0  0
  120.8613  105.2504  105.8163 C   0  0  0  0  0  0  0  0  0  0  0  0
  123.3329  105.5131  106.1976 C   0  0  0  0  0  0  0  0  0  0  0  0
  122.1057  104.6282  106.4343 C   0  0  1  0  0  0  0  0  0  0  0  0
  126.1984  105.5259  108.4271 N   0  0  0  0  0  0  0  0  0  0  0  0
  124.4270  105.2204  107.1229 N   0  0  0  0  0  0  0  0  0  0  0  0
  125.2843  108.4047  108.3644 N   0  0  0  0  0  0  0  0  0  0  0  0
  121.8648  104.4947  107.8333 O   0  0  0  0  0  0  0  0  0  0  0  0
  125.6526  108.0789  105.7475 S   0  0  0  0  0  0  0  0  0  0  0  0
  126.3443  103.4815  109.0518 H   0  0  0  0  0  0  0  0  0  0  0  0
  124.1390  103.1099  107.4257 H   0  0  0  0  0  0  0  0  0  0  0  0
  120.6833  106.2567  106.2073 H   0  0  0  0  0  0  0  0  0  0  0  0
  120.9659  105.3132  104.7276 H   0  0  0  0  0  0  0  0  0  0  0  0
  119.9760  104.6351  106.0118 H   0  0  0  0  0  0  0  0  0  0  0  0
  123.7337  105.3717  105.1865 H   0  0  0  0  0  0  0  0  0  0  0  0
  123.0817  106.5746  106.3109 H   0  0  0  0  0  0  0  0  0  0  0  0
  122.2492  103.6245  106.0184 H   0  0  0  0  0  0  0  0  0  0  0  0
  125.1466  108.0943  109.3209 H   0  0  0  0  0  0  0  0  0  0  0  0
  125.3161  109.4078  108.2150 H   0  0  0  0  0  0  0  0  0  0  0  0
  121.0894  103.9200  107.9257 H   0  0  0  0  0  0  0  0  0  0  0  0
  1  2  2  0  0  0  0
  1  8  1  0  0  0  0
  2  9  1  0  0  0  0
  3  4  1  0  0  0  0
  3  8  2  0  0  0  0
  3  9  1  0  0  0  0
  4 10  1  0  0  0  0
  4 12  2  0  0  0  0
  5  7  1  0  0  0  0
  6  7  1  0  0  0  0
  6  9  1  0  0  0  0
  7 11  1  0  0  0  0
  1 13  1  0  0  0  0
  2 14  1  0  0  0  0
  5 15  1  0  0  0  0
  5 16  1  0  0  0  0
  5 17  1  0  0  0  0
  6 18  1  0  0  0  0
  6 19  1  0  0  0  0
  7 20  1  0  0  0  0
 10 21  1  0  0  0  0
 10 22  1  0  0  0  0
 11 23  1  0  0  0  0
M  END
> <FRED Chemgauss4 score>
-7.473691

$$$$
C70199674	P108209758
  -OEChem-05122015313D

 18 17  0     0  0  0  0  0  0999 V2000
  124.0400  109.6901  109.1693 C   0  0  0  0  0  0  0  0  0  0  0  0
  124.1296  108.4960  109.2562 C   0  0  0  0  0  0  0  0  0  0  0  0
  126.3301  108.0103  107.4141 C   0  0  0  0  0  0  0  0  0  0  0  0
  124.2370  107.0392  109.3673 C   0  0  0  0  0  0  0  0  0  0  0  0
  126.0749  106.5923  107.8899 C   0  0  0  0  0  0  0  0  0  0  0  0
  125.7396  108.3689  106.3121 N   0  0  0  0  0  0  0  0  0  0  0  0
  127.1530  108.7764  108.2075 N   0  0  0  0  0  0  0  0  0  0  0  0
  124.6402  106.4547  108.0952 N   0  0  0  0  0  0  0  0  0  0  0  0
  124.9766  107.3109  105.8091 O   0  0  0  0  0  0  0  0  0  0  0  0
  123.9602  110.7492  109.0918 H   0  0  0  0  0  0  0  0  0  0  0  0
  123.2774  106.6091  109.6705 H   0  0  0  0  0  0  0  0  0  0  0  0
  124.9722  106.7742  110.1339 H   0  0  0  0  0  0  0  0  0  0  0  0
  126.6185  106.4009  108.8203 H   0  0  0  0  0  0  0  0  0  0  0  0
  126.4168  105.8804  107.1321 H   0  0  0  0  0  0  0  0  0  0  0  0
  127.5625  108.4147  109.0623 H   0  0  0  0  0  0  0  0  0  0  0  0
  127.3705  109.7357  107.9598 H   0  0  0  0  0  0  0  0  0  0  0  0
  124.3928  105.4653  108.0877 H   0  0  0  0  0  0  0  0  0  0  0  0
  124.6000  107.7069  105.0052 H   0  0  0  0  0  0  0  0  0  0  0  0
  1  2  3  0  0  0  0
  2  4  1  0  0  0  0
  3  5  1  0  0  0  0
  3  6  2  0  0  0  0
  3  7  1  0  0  0  0
  4  8  1  0  0  0  0
  5  8  1  0  0  0  0
  6  9  1  0  0  0  0
  1 10  1  0  0  0  0
  4 11  1  0  0  0  0
  4 12  1  0  0  0  0
  5 13  1  0  0  0  0
  5 14  1  0  0  0  0
  7 15  1  0  0  0  0
  7 16  1  0  0  0  0
  8 17  1  0  0  0  0
  9 18  1  0  0  0  0
M  END
> <FRED Chemgauss4 score>
-7.470873

$$$$
C82410507	P128782165
  -OEChem-05122015313D

 19 19  0     1  0  0  0  0  0999 V2000
  123.4312  108.4394  111.4531 C   0  0  0  0  0  0  0  0  0  0  0  0
  123.8341  109.6381  110.9069 C   0  0  0  0  0  0  0  0  0  0  0  0
  124.1149  107.3484  109.5632 C   0  0  0  0  0  0  0  0  0  0  0  0
  124.5172  108.5471  109.0166 C   0  0  0  0  0  0  0  0  0  0  0  0
  124.1914  108.0463  106.5563 C   0  0  0  0  0  0  0  0  0  0  0  0
  125.1312  108.5933  107.6340 C   0  0  2  0  0  0  0  0  0  0  0  0
  123.5645  107.2730  110.7910 N   0  0  0  0  0  0  0  0  0  0  0  0
  124.3843  109.7135  109.6788 N   0  0  0  0  0  0  0  0  0  0  0  0
  126.3927  107.8844  107.6042 N   0  0  0  0  0  0  0  0  0  0  0  0
  124.6282  108.4994  105.2790 O   0  0  0  0  0  0  0  0  0  0  0  0
  122.9890  108.3797  112.4399 H   0  0  0  0  0  0  0  0  0  0  0  0
  123.7269  110.5749  111.4395 H   0  0  0  0  0  0  0  0  0  0  0  0
  124.2190  106.4068  109.0369 H   0  0  0  0  0  0  0  0  0  0  0  0
  124.2075  106.9509  106.5424 H   0  0  0  0  0  0  0  0  0  0  0  0
  123.1588  108.3804  106.7050 H   0  0  0  0  0  0  0  0  0  0  0  0
  125.3828  109.6310  107.3808 H   0  0  0  0  0  0  0  0  0  0  0  0
  126.9810  107.9130  108.4162 H   0  0  0  0  0  0  0  0  0  0  0  0
  126.7413  107.5578  106.7221 H   0  0  0  0  0  0  0  0  0  0  0  0
  124.0095  108.1327  104.6280 H   0  0  0  0  0  0  0  0  0  0  0  0
  1  2  1  0  0  0  0
  1  7  2  0  0  0  0
  2  8  2  0  0  0  0
  3  4  2  0  0  0  0
  3  7  1  0  0  0  0
  4  6  1  0  0  0  0
  4  8  1  0  0  0  0
  5  6  1  0  0  0  0
  5 10  1  0  0  0  0
  6  9  1  0  0  0  0
  1 11  1  0  0  0  0
  2 12  1  0  0  0  0
  3 13  1  0  0  0  0
  5 14  1  0  0  0  0
  5 15  1  0  0  0  0
  6 16  1  0  0  0  0
  9 17  1  0  0  0  0
  9 18  1  0  0  0  0
 10 19  1  0  0  0  0
M  END
> <FRED Chemgauss4 score>
-7.468289

$$$$
C43423581	P65690109
  -OEChem-05122015313D

 43 45  0     1  0  0  0  0  0999 V2000
  117.9351  108.2477  106.4472 C   0  0  0  0  0  0  0  0  0  0  0  0
  118.7984  107.5154  107.3125 C   0  0  0  0  0  0  0  0  0  0  0  0
  118.2438  108.0496  105.1194 C   0  0  0  0  0  0  0  0  0  0  0  0
  119.7341  106.7853  106.6129 C   0  0  0  0  0  0  0  0  0  0  0  0
  124.9234  104.2504  108.1216 C   0  0  0  0  0  0  0  0  0  0  0  0
  123.4860  104.3690  107.5896 C   0  0  0  0  0  0  0  0  0  0  0  0
  125.5292  105.6588  108.0439 C   0  0  0  0  0  0  0  0  0  0  0  0
  122.1535  107.8849  106.9386 C   0  0  0  0  0  0  0  0  0  0  0  0
  123.5421  108.4638  106.6294 C   0  0  0  0  0  0  0  0  0  0  0  0
  123.2002  105.8661  107.6534 C   0  0  1  0  0  0  0  0  0  0  0  0
  124.5380  106.4402  107.1964 C   0  0  1  0  0  0  0  0  0  0  0  0
  117.5879  108.6264  103.9258 C   0  0  0  0  0  0  0  0  0  0  0  0
  121.1410  104.1792  105.2486 C   0  0  0  0  0  0  0  0  0  0  0  0
  120.8284  105.8772  107.1578 C   0  0  1  0  0  0  0  0  0  0  0  0
  120.6594  104.4082  106.6823 C   0  0  1  0  0  0  0  0  0  0  0  0
  122.1410  106.4131  106.8042 N   0  0  1  0  0  0  0  0  0  0  0  0
  119.2696  104.0033  106.7707 N   0  0  0  0  0  0  0  0  0  0  0  0
  124.5626  107.8401  107.4222 O   0  0  0  0  0  0  0  0  0  0  0  0
  119.5697  106.9844  104.9201 S   0  0  0  0  0  0  0  0  0  0  0  0
  117.1285  108.8855  106.7860 H   0  0  0  0  0  0  0  0  0  0  0  0
  118.7319  107.5254  108.3930 H   0  0  0  0  0  0  0  0  0  0  0  0
  124.9305  103.8939  109.1574 H   0  0  0  0  0  0  0  0  0  0  0  0
  125.4962  103.5352  107.5217 H   0  0  0  0  0  0  0  0  0  0  0  0
  123.4441  104.0040  106.5558 H   0  0  0  0  0  0  0  0  0  0  0  0
  122.7814  103.7786  108.1833 H   0  0  0  0  0  0  0  0  0  0  0  0
  125.6225  106.0976  109.0446 H   0  0  0  0  0  0  0  0  0  0  0  0
  126.5305  105.6540  107.6018 H   0  0  0  0  0  0  0  0  0  0  0  0
  121.8720  108.1695  107.9613 H   0  0  0  0  0  0  0  0  0  0  0  0
  121.4238  108.3323  106.2540 H   0  0  0  0  0  0  0  0  0  0  0  0
  123.7910  108.3464  105.5675 H   0  0  0  0  0  0  0  0  0  0  0  0
  123.5563  109.5350  106.8547 H   0  0  0  0  0  0  0  0  0  0  0  0
  123.0106  106.1505  108.7005 H   0  0  0  0  0  0  0  0  0  0  0  0
  124.7340  106.2354  106.1334 H   0  0  0  0  0  0  0  0  0  0  0  0
  118.0594  109.5793  103.6387 H   0  0  0  0  0  0  0  0  0  0  0  0
  117.6426  107.9479  103.0588 H   0  0  0  0  0  0  0  0  0  0  0  0
  116.5162  108.8184  104.0985 H   0  0  0  0  0  0  0  0  0  0  0  0
  120.6178  104.8372  104.5458 H   0  0  0  0  0  0  0  0  0  0  0  0
  120.9899  103.1431  104.9311 H   0  0  0  0  0  0  0  0  0  0  0  0
  122.2124  104.3935  105.1614 H   0  0  0  0  0  0  0  0  0  0  0  0
  120.7663  105.8839  108.2546 H   0  0  0  0  0  0  0  0  0  0  0  0
  121.2122  103.7279  107.3414 H   0  0  0  0  0  0  0  0  0  0  0  0
  118.7183  104.3462  107.5336 H   0  0  0  0  0  0  0  0  0  0  0  0
  118.9544  103.2442  106.1981 H   0  0  0  0  0  0  0  0  0  0  0  0
  1  2  1  0  0  0  0
  1  3  2  0  0  0  0
  2  4  2  0  0  0  0
  3 12  1  0  0  0  0
  3 19  1  0  0  0  0
  4 14  1  0  0  0  0
  4 19  1  0  0  0  0
  5  6  1  0  0  0  0
  5  7  1  0  0  0  0
  6 10  1  0  0  0  0
  7 11  1  0  0  0  0
  8  9  1  0  0  0  0
  8 16  1  0  0  0  0
  9 18  1  0  0  0  0
 10 11  1  0  0  0  0
 10 16  1  0  0  0  0
 11 18  1  0  0  0  0
 13 15  1  0  0  0  0
 14 15  1  0  0  0  0
 14 16  1  0  0  0  0
 15 17  1  0  0  0  0
  1 20  1  0  0  0  0
  2 21  1  0  0  0  0
  5 22  1  0  0  0  0
  5 23  1  0  0  0  0
  6 24  1  0  0  0  0
  6 25  1  0  0  0  0
  7 26  1  0  0  0  0
  7 27  1  0  0  0  0
  8 28  1  0  0  0  0
  8 29  1  0  0  0  0
  9 30  1  0  0  0  0
  9 31  1  0  0  0  0
 10 32  1  0  0  0  0
 11 33  1  0  0  0  0
 12 34  1  0  0  0  0
 12 35  1  0  0  0  0
 12 36  1  0  0  0  0
 13 37  1  0  0  0  0
 13 38  1  0  0  0  0
 13 39  1  0  0  0  0
 14 40  1  0  0  0  0
 15 41  1  0  0  0  0
 17 42  1  0  0  0  0
 17 43  1  0  0  0  0
M  END
> <FRED Chemgauss4 score>
-7.461342

$$$$
C87448493	P136805577
  -OEChem-05122015313D

 19 19  0     0  0  0  0  0  0999 V2000
  126.2451  107.4825  107.2162 C   0  0  0  0  0  0  0  0  0  0  0  0
  124.3425  108.9197  111.0395 C   0  0  0  0  0  0  0  0  0  0  0  0
  124.1735  110.5588  112.3209 C   0  0  0  0  0  0  0  0  0  0  0  0
  124.3633  108.1142  109.7914 C   0  0  0  0  0  0  0  0  0  0  0  0
  123.9989  111.8746  112.9563 C   0  0  0  0  0  0  0  0  0  0  0  0
  125.7412  106.6675  108.3201 C   0  0  0  0  0  0  0  0  0  0  0  0
  126.6455  108.1264  106.3379 N   0  0  0  0  0  0  0  0  0  0  0  0
  124.0968  110.2629  111.0442 N   0  0  0  0  0  0  0  0  0  0  0  0
  124.5663  108.3658  112.2330 N   0  0  0  0  0  0  0  0  0  0  0  0
  124.4525  109.4354  113.0351 N   0  0  0  0  0  0  0  0  0  0  0  0
  125.5565  107.4684  109.5090 N   0  0  0  0  0  0  0  0  0  0  0  0
  123.3602  108.0784  109.0836 O   0  0  0  0  0  0  0  0  0  0  0  0
  122.9447  112.0506  113.2327 H   0  0  0  0  0  0  0  0  0  0  0  0
  124.6041  111.9791  113.8750 H   0  0  0  0  0  0  0  0  0  0  0  0
  124.3109  112.7031  112.2948 H   0  0  0  0  0  0  0  0  0  0  0  0
  124.7755  106.2189  108.0702 H   0  0  0  0  0  0  0  0  0  0  0  0
  126.4408  105.8642  108.5681 H   0  0  0  0  0  0  0  0  0  0  0  0
  124.5752  109.3206  114.0342 H   0  0  0  0  0  0  0  0  0  0  0  0
  126.3642  107.5956  110.1099 H   0  0  0  0  0  0  0  0  0  0  0  0
  1  6  1  0  0  0  0
  1  7  3  0  0  0  0
  2  4  1  0  0  0  0
  2  8  1  0  0  0  0
  2  9  2  0  0  0  0
  3  5  1  0  0  0  0
  3  8  2  0  0  0  0
  3 10  1  0  0  0  0
  4 11  1  0  0  0  0
  4 12  2  0  0  0  0
  6 11  1  0  0  0  0
  9 10  1  0  0  0  0
  5 13  1  0  0  0  0
  5 14  1  0  0  0  0
  5 15  1  0  0  0  0
  6 16  1  0  0  0  0
  6 17  1  0  0  0  0
 10 18  1  0  0  0  0
 11 19  1  0  0  0  0
M  END
> <FRED Chemgauss4 score>
-7.456530

$$$$
C50973521	P76326569
  -OEChem-05122015313D

 29 30  0     1  0  0  0  0  0999 V2000
  121.9288  105.4101  105.3489 C   0  0  0  0  0  0  0  0  0  0  0  0
  123.7388  106.1925  105.9746 C   0  0  0  0  0  0  0  0  0  0  0  0
  118.3757  103.9151  105.0959 C   0  0  0  0  0  0  0  0  0  0  0  0
  117.7063  105.2236  104.6912 C   0  0  0  0  0  0  0  0  0  0  0  0
  119.7581  104.1801  105.6850 C   0  0  0  0  0  0  0  0  0  0  0  0
  118.6313  106.0527  103.8106 C   0  0  0  0  0  0  0  0  0  0  0  0
  120.5836  105.0690  104.7462 C   0  0  1  0  0  0  0  0  0  0  0  0
  125.5873  107.0164  107.4899 C   0  0  0  0  0  0  0  0  0  0  0  0
  124.8692  107.1155  106.1247 C   0  0  2  0  0  0  0  0  0  0  0  0
  122.6633  106.4814  105.1859 N   0  0  0  0  0  0  0  0  0  0  0  0
  123.6987  105.0136  106.6026 N   0  0  0  0  0  0  0  0  0  0  0  0
  124.5015  108.5113  105.8898 N   0  0  0  0  0  0  0  0  0  0  0  0
  122.4734  104.4831  106.1798 O   0  0  0  0  0  0  0  0  0  0  0  0
  119.8794  106.2852  104.4631 O   0  0  0  0  0  0  0  0  0  0  0  0
  117.7526  103.3823  105.8224 H   0  0  0  0  0  0  0  0  0  0  0  0
  118.4725  103.2669  104.2166 H   0  0  0  0  0  0  0  0  0  0  0  0
  116.7633  105.0239  104.1717 H   0  0  0  0  0  0  0  0  0  0  0  0
  117.4711  105.7916  105.5998 H   0  0  0  0  0  0  0  0  0  0  0  0
  119.6293  104.6805  106.6543 H   0  0  0  0  0  0  0  0  0  0  0  0
  120.2753  103.2328  105.8778 H   0  0  0  0  0  0  0  0  0  0  0  0
  118.8108  105.5616  102.8468 H   0  0  0  0  0  0  0  0  0  0  0  0
  118.1760  107.0266  103.6052 H   0  0  0  0  0  0  0  0  0  0  0  0
  120.7697  104.5350  103.7884 H   0  0  0  0  0  0  0  0  0  0  0  0
  124.8771  107.1941  108.3048 H   0  0  0  0  0  0  0  0  0  0  0  0
  126.0429  106.0320  107.6454 H   0  0  0  0  0  0  0  0  0  0  0  0
  126.3891  107.7587  107.5726 H   0  0  0  0  0  0  0  0  0  0  0  0
  125.6540  106.9241  105.3590 H   0  0  0  0  0  0  0  0  0  0  0  0
  123.8380  108.7051  105.1728 H   0  0  0  0  0  0  0  0  0  0  0  0
  125.0670  109.2191  106.3038 H   0  0  0  0  0  0  0  0  0  0  0  0
  1  7  1  0  0  0  0
  1 10  2  0  0  0  0
  1 13  1  0  0  0  0
  2  9  1  0  0  0  0
  2 10  1  0  0  0  0
  2 11  2  0  0  0  0
  3  4  1  0  0  0  0
  3  5  1  0  0  0  0
  4  6  1  0  0  0  0
  5  7  1  0  0  0  0
  6 14  1  0  0  0  0
  7 14  1  0  0  0  0
  8  9  1  0  0  0  0
  9 12  1  0  0  0  0
 11 13  1  0  0  0  0
  3 15  1  0  0  0  0
  3 16  1  0  0  0  0
  4 17  1  0  0  0  0
  4 18  1  0  0  0  0
  5 19  1  0  0  0  0
  5 20  1  0  0  0  0
  6 21  1  0  0  0  0
  6 22  1  0  0  0  0
  7 23  1  0  0  0  0
  8 24  1  0  0  0  0
  8 25  1  0  0  0  0
  8 26  1  0  0  0  0
  9 27  1  0  0  0  0
 12 28  1  0  0  0  0
 12 29  1  0  0  0  0
M  END
> <FRED Chemgauss4 score>
-7.454753

$$$$
C82887367	P129564044
  -OEChem-05122015313D

 28 27  0     1  0  0  0  0  0999 V2000
  126.2791  108.2259  106.6953 C   0  0  0  0  0  0  0  0  0  0  0  0
  124.8384  107.8422  106.6978 C   0  0  0  0  0  0  0  0  0  0  0  0
  124.5325  108.7077  108.9181 C   0  0  0  0  0  0  0  0  0  0  0  0
  125.0994  106.3950  108.5978 C   0  0  0  0  0  0  0  0  0  0  0  0
  123.7492  109.8668  111.0516 C   0  0  0  0  0  0  0  0  0  0  0  0
  123.6129  108.6422  110.1439 C   0  0  1  0  0  0  0  0  0  0  0  0
  124.5187  105.0902  108.1141 C   0  0  0  0  0  0  0  0  0  0  0  0
  122.2366  108.5114  109.7108 N   0  0  0  0  0  0  0  0  0  0  0  0
  124.3737  107.5439  108.0535 N   0  0  2  0  0  0  0  0  0  0  0  0
  123.4072  111.0376  110.3166 O   0  0  0  0  0  0  0  0  0  0  0  0
  125.2072  104.0470  108.6281 F   0  0  0  0  0  0  0  0  0  0  0  0
  123.2293  104.9545  108.4906 F   0  0  0  0  0  0  0  0  0  0  0  0
  124.5751  104.9941  106.7687 F   0  0  0  0  0  0  0  0  0  0  0  0
  126.4465  109.1196  107.3062 H   0  0  0  0  0  0  0  0  0  0  0  0
  126.9015  107.4079  107.0740 H   0  0  0  0  0  0  0  0  0  0  0  0
  126.6016  108.4511  105.6717 H   0  0  0  0  0  0  0  0  0  0  0  0
  124.6784  106.9493  106.0861 H   0  0  0  0  0  0  0  0  0  0  0  0
  124.2199  108.6543  106.3046 H   0  0  0  0  0  0  0  0  0  0  0  0
  125.5787  108.7669  109.2416 H   0  0  0  0  0  0  0  0  0  0  0  0
  124.3278  109.6159  108.3390 H   0  0  0  0  0  0  0  0  0  0  0  0
  126.1457  106.4890  108.2924 H   0  0  0  0  0  0  0  0  0  0  0  0
  125.0500  106.4588  109.6887 H   0  0  0  0  0  0  0  0  0  0  0  0
  123.0831  109.7958  111.9183 H   0  0  0  0  0  0  0  0  0  0  0  0
  124.7774  109.9899  111.4049 H   0  0  0  0  0  0  0  0  0  0  0  0
  123.8242  107.7331  110.7205 H   0  0  0  0  0  0  0  0  0  0  0  0
  121.5062  108.7773  110.3438 H   0  0  0  0  0  0  0  0  0  0  0  0
  122.0413  107.9768  108.8855 H   0  0  0  0  0  0  0  0  0  0  0  0
  123.5065  111.7862  110.9255 H   0  0  0  0  0  0  0  0  0  0  0  0
  1  2  1  0  0  0  0
  2  9  1  0  0  0  0
  3  6  1  0  0  0  0
  3  9  1  0  0  0  0
  4  7  1  0  0  0  0
  4  9  1  0  0  0  0
  5  6  1  0  0  0  0
  5 10  1  0  0  0  0
  6  8  1  0  0  0  0
  7 11  1  0  0  0  0
  7 12  1  0  0  0  0
  7 13  1  0  0  0  0
  1 14  1  0  0  0  0
  1 15  1  0  0  0  0
  1 16  1  0  0  0  0
  2 17  1  0  0  0  0
  2 18  1  0  0  0  0
  3 19  1  0  0  0  0
  3 20  1  0  0  0  0
  4 21  1  0  0  0  0
  4 22  1  0  0  0  0
  5 23  1  0  0  0  0
  5 24  1  0  0  0  0
  6 25  1  0  0  0  0
  8 26  1  0  0  0  0
  8 27  1  0  0  0  0
 10 28  1  0  0  0  0
M  END
> <FRED Chemgauss4 score>
-7.453568

$$$$
C83947682	P131340967
  -OEChem-05122015313D

 21 21  0     1  0  0  0  0  0999 V2000
  125.7757  108.9253  107.9146 C   0  0  0  0  0  0  0  0  0  0  0  0
  124.4838  107.7332  109.2355 C   0  0  0  0  0  0  0  0  0  0  0  0
  125.5219  107.6091  108.3449 C   0  0  0  0  0  0  0  0  0  0  0  0
  125.0580  104.1142  107.7995 C   0  0  0  0  0  0  0  0  0  0  0  0
  125.2844  105.3363  107.3025 C   0  0  0  0  0  0  0  0  0  0  0  0
  123.1637  109.6869  110.0838 C   0  0  0  0  0  0  0  0  0  0  0  0
  126.2334  106.3348  107.9189 C   0  0  1  0  0  0  0  0  0  0  0  0
  124.9640  109.8197  108.4848 N   0  0  0  0  0  0  0  0  0  0  0  0
  124.1900  109.0643  109.2825 N   0  0  0  0  0  0  0  0  0  0  0  0
  127.3614  106.6059  107.0174 N   0  0  0  0  0  0  0  0  0  0  0  0
  126.5170  109.2723  107.2087 H   0  0  0  0  0  0  0  0  0  0  0  0
  123.9416  107.0057  109.8243 H   0  0  0  0  0  0  0  0  0  0  0  0
  124.3641  103.4414  107.3076 H   0  0  0  0  0  0  0  0  0  0  0  0
  125.5542  103.7658  108.6983 H   0  0  0  0  0  0  0  0  0  0  0  0
  124.7557  105.6264  106.3967 H   0  0  0  0  0  0  0  0  0  0  0  0
  123.6046  109.9552  111.0475 H   0  0  0  0  0  0  0  0  0  0  0  0
  122.7928  110.5789  109.5714 H   0  0  0  0  0  0  0  0  0  0  0  0
  122.3375  108.9840  110.2226 H   0  0  0  0  0  0  0  0  0  0  0  0
  126.6773  105.8768  108.8128 H   0  0  0  0  0  0  0  0  0  0  0  0
  127.6837  105.8603  106.4465 H   0  0  0  0  0  0  0  0  0  0  0  0
  127.8754  107.4429  107.1623 H   0  0  0  0  0  0  0  0  0  0  0  0
  1  3  1  0  0  0  0
  1  8  2  0  0  0  0
  2  3  2  0  0  0  0
  2  9  1  0  0  0  0
  3  7  1  0  0  0  0
  4  5  2  0  0  0  0
  5  7  1  0  0  0  0
  6  9  1  0  0  0  0
  7 10  1  0  0  0  0
  8  9  1  0  0  0  0
  1 11  1  0  0  0  0
  2 12  1  0  0  0  0
  4 13  1  0  0  0  0
  4 14  1  0  0  0  0
  5 15  1  0  0  0  0
  6 16  1  0  0  0  0
  6 17  1  0  0  0  0
  6 18  1  0  0  0  0
  7 19  1  0  0  0  0
 10 20  1  0  0  0  0
 10 21  1  0  0  0  0
M  END
> <FRED Chemgauss4 score>
-7.451483

$$$$
C43376366	P65601864
  -OEChem-05122015313D

 32 32  0     1  0  0  0  0  0999 V2000
  125.4974  107.6591  106.0535 C   0  0  0  0  0  0  0  0  0  0  0  0
  123.6622  108.7301  107.3771 C   0  0  0  0  0  0  0  0  0  0  0  0
  124.5482  106.5015  105.7462 C   0  0  0  0  0  0  0  0  0  0  0  0
  122.7694  107.5395  107.0296 C   0  0  0  0  0  0  0  0  0  0  0  0
  125.1370  108.3376  107.3712 C   0  0  0  0  0  0  0  0  0  0  0  0
  120.1271  105.3511  104.0423 C   0  0  0  0  0  0  0  0  0  0  0  0
  122.2565  105.8466  105.3939 C   0  0  2  0  0  0  0  0  0  0  0  0
  120.8921  106.3784  104.8837 C   0  0  1  0  0  0  0  0  0  0  0  0
  122.1314  104.9583  106.6307 C   0  0  0  0  0  0  0  0  0  0  0  0
  123.1494  106.9535  105.7362 N   0  0  0  0  0  0  0  0  0  0  0  0
  121.0753  107.5733  104.0528 N   0  0  0  0  0  0  0  0  0  0  0  0
  125.9486  109.4938  107.5338 O   0  0  0  0  0  0  0  0  0  0  0  0
  123.3471  104.5403  107.0537 F   0  0  0  0  0  0  0  0  0  0  0  0
  121.5406  105.6091  107.6565 F   0  0  0  0  0  0  0  0  0  0  0  0
  121.4040  103.8485  106.3750 F   0  0  0  0  0  0  0  0  0  0  0  0
  126.5323  107.2979  106.0936 H   0  0  0  0  0  0  0  0  0  0  0  0
  125.4715  108.3939  105.2375 H   0  0  0  0  0  0  0  0  0  0  0  0
  123.4927  109.5489  106.6650 H   0  0  0  0  0  0  0  0  0  0  0  0
  123.3887  109.1308  108.3605 H   0  0  0  0  0  0  0  0  0  0  0  0
  124.8139  106.0935  104.7635 H   0  0  0  0  0  0  0  0  0  0  0  0
  124.6944  105.6998  106.4820 H   0  0  0  0  0  0  0  0  0  0  0  0
  122.8268  106.7899  107.8301 H   0  0  0  0  0  0  0  0  0  0  0  0
  121.7317  107.8921  106.9866 H   0  0  0  0  0  0  0  0  0  0  0  0
  125.3477  107.6570  108.2045 H   0  0  0  0  0  0  0  0  0  0  0  0
  120.7134  105.0411  103.1692 H   0  0  0  0  0  0  0  0  0  0  0  0
  119.9157  104.4431  104.6158 H   0  0  0  0  0  0  0  0  0  0  0  0
  119.1753  105.7575  103.6819 H   0  0  0  0  0  0  0  0  0  0  0  0
  122.7368  105.2599  104.6005 H   0  0  0  0  0  0  0  0  0  0  0  0
  120.2651  106.6547  105.7411 H   0  0  0  0  0  0  0  0  0  0  0  0
  121.7911  108.2120  104.3126 H   0  0  0  0  0  0  0  0  0  0  0  0
  120.3599  107.7967  103.3999 H   0  0  0  0  0  0  0  0  0  0  0  0
  125.6931  109.8981  108.3785 H   0  0  0  0  0  0  0  0  0  0  0  0
  1  3  1  0  0  0  0
  1  5  1  0  0  0  0
  2  4  1  0  0  0  0
  2  5  1  0  0  0  0
  3 10  1  0  0  0  0
  4 10  1  0  0  0  0
  5 12  1  0  0  0  0
  6  8  1  0  0  0  0
  7  8  1  0  0  0  0
  7  9  1  0  0  0  0
  7 10  1  0  0  0  0
  8 11  1  0  0  0  0
  9 13  1  0  0  0  0
  9 14  1  0  0  0  0
  9 15  1  0  0  0  0
  1 16  1  0  0  0  0
  1 17  1  0  0  0  0
  2 18  1  0  0  0  0
  2 19  1  0  0  0  0
  3 20  1  0  0  0  0
  3 21  1  0  0  0  0
  4 22  1  0  0  0  0
  4 23  1  0  0  0  0
  5 24  1  0  0  0  0
  6 25  1  0  0  0  0
  6 26  1  0  0  0  0
  6 27  1  0  0  0  0
  7 28  1  0  0  0  0
  8 29  1  0  0  0  0
 11 30  1  0  0  0  0
 11 31  1  0  0  0  0
 12 32  1  0  0  0  0
M  END
> <FRED Chemgauss4 score>
-7.448455

$$$$
C56958872	P85524473
  -OEChem-05122015313D

 19 19  0     1  0  0  0  0  0999 V2000
  126.1282  108.2046  107.3839 C   0  0  0  0  0  0  0  0  0  0  0  0
  124.3660  103.9404  107.0675 C   0  0  0  0  0  0  0  0  0  0  0  0
  125.5873  104.8382  107.0872 C   0  0  0  0  0  0  0  0  0  0  0  0
  124.0226  105.7207  108.5336 C   0  0  0  0  0  0  0  0  0  0  0  0
  123.6383  104.3272  108.2776 N   0  0  0  0  0  0  0  0  0  0  0  0
  124.9972  106.1070  107.5101 N   0  0  1  0  0  0  0  0  0  0  0  0
  127.1162  108.9526  107.9996 N   0  0  0  0  0  0  0  0  0  0  0  0
  125.9476  106.9771  108.0021 N   0  0  0  0  0  0  0  0  0  0  0  0
  125.5017  108.6083  106.4049 O   0  0  0  0  0  0  0  0  0  0  0  0
  123.7581  104.0846  106.1689 H   0  0  0  0  0  0  0  0  0  0  0  0
  124.6468  102.8819  107.1283 H   0  0  0  0  0  0  0  0  0  0  0  0
  126.3427  104.4842  107.7956 H   0  0  0  0  0  0  0  0  0  0  0  0
  126.0358  104.9016  106.0863 H   0  0  0  0  0  0  0  0  0  0  0  0
  123.1195  106.3447  108.5084 H   0  0  0  0  0  0  0  0  0  0  0  0
  124.4676  105.8117  109.5299 H   0  0  0  0  0  0  0  0  0  0  0  0
  122.6380  104.3018  108.0770 H   0  0  0  0  0  0  0  0  0  0  0  0
  127.6015  108.5703  108.8042 H   0  0  0  0  0  0  0  0  0  0  0  0
  127.3641  109.8762  107.6611 H   0  0  0  0  0  0  0  0  0  0  0  0
  126.4946  106.6950  108.8087 H   0  0  0  0  0  0  0  0  0  0  0  0
  1  7  1  0  0  0  0
  1  8  1  0  0  0  0
  1  9  2  0  0  0  0
  2  3  1  0  0  0  0
  2  5  1  0  0  0  0
  3  6  1  0  0  0  0
  4  5  1  0  0  0  0
  4  6  1  0  0  0  0
  6  8  1  0  0  0  0
  2 10  1  0  0  0  0
  2 11  1  0  0  0  0
  3 12  1  0  0  0  0
  3 13  1  0  0  0  0
  4 14  1  0  0  0  0
  4 15  1  0  0  0  0
  5 16  1  0  0  0  0
  7 17  1  0  0  0  0
  7 18  1  0  0  0  0
  8 19  1  0  0  0  0
M  END
> <FRED Chemgauss4 score>
-7.447227

$$$$
C39118751	P59262022
  -OEChem-05122015313D

 17 17  0     0  0  0  0  0  0999 V2000
  124.0282  108.1994  106.8355 C   0  0  0  0  0  0  0  0  0  0  0  0
  123.7940  106.8979  106.6050 C   0  0  0  0  0  0  0  0  0  0  0  0
  125.0488  108.6165  107.8212 C   0  0  0  0  0  0  0  0  0  0  0  0
  125.4910  106.2094  108.2407 C   0  0  0  0  0  0  0  0  0  0  0  0
  122.7552  106.4778  105.6004 C   0  0  0  0  0  0  0  0  0  0  0  0
  125.7057  107.5748  108.4522 N   0  0  0  0  0  0  0  0  0  0  0  0
  124.5063  105.9234  107.2893 N   0  0  0  0  0  0  0  0  0  0  0  0
  124.2251  104.5858  107.0134 N   0  0  0  0  0  0  0  0  0  0  0  0
  125.2671  109.8053  108.0351 O   0  0  0  0  0  0  0  0  0  0  0  0
  126.1329  105.3560  108.8578 O   0  0  0  0  0  0  0  0  0  0  0  0
  123.4882  108.9841  106.3171 H   0  0  0  0  0  0  0  0  0  0  0  0
  123.2204  106.3804  104.6240 H   0  0  0  0  0  0  0  0  0  0  0  0
  121.9702  107.2278  105.5615 H   0  0  0  0  0  0  0  0  0  0  0  0
  122.3293  105.5253  105.9027 H   0  0  0  0  0  0  0  0  0  0  0  0
  126.4134  107.8268  109.1364 H   0  0  0  0  0  0  0  0  0  0  0  0
  123.2330  104.4679  106.7713 H   0  0  0  0  0  0  0  0  0  0  0  0
  124.3610  104.0100  107.8538 H   0  0  0  0  0  0  0  0  0  0  0  0
  1  2  2  0  0  0  0
  1  3  1  0  0  0  0
  2  5  1  0  0  0  0
  2  7  1  0  0  0  0
  3  6  1  0  0  0  0
  3  9  2  0  0  0  0
  4  6  1  0  0  0  0
  4  7  1  0  0  0  0
  4 10  2  0  0  0  0
  7  8  1  0  0  0  0
  1 11  1  0  0  0  0
  5 12  1  0  0  0  0
  5 13  1  0  0  0  0
  5 14  1  0  0  0  0
  6 15  1  0  0  0  0
  8 16  1  0  0  0  0
  8 17  1  0  0  0  0
M  END
> <FRED Chemgauss4 score>
-7.446033

$$$$
C13887744	P21381985
  -OEChem-05122015313D

 22 23  0     1  0  0  0  0  0999 V2000
  123.9747  105.4057  107.3607 C   0  0  0  0  0  0  0  0  0  0  0  0
  124.7766  108.6377  108.6152 C   0  0  0  0  0  0  0  0  0  0  0  0
  125.1734  104.5020  107.5652 C   0  0  0  0  0  0  0  0  0  0  0  0
  126.2269  105.4671  108.1270 C   0  0  0  0  0  0  0  0  0  0  0  0
  123.5845  107.8094  108.1317 C   0  0  2  0  0  0  0  0  0  0  0  0
  125.3872  106.4197  108.9488 C   0  0  1  0  0  0  0  0  0  0  0  0
  122.3803  107.9607  109.0384 C   0  0  0  0  0  0  0  0  0  0  0  0
  125.7995  107.7777  109.0226 N   0  0  0  0  0  0  0  0  0  0  0  0
  124.1666  106.4855  108.2086 N   0  0  0  0  0  0  0  0  0  0  0  0
  123.0556  105.2021  106.5843 O   0  0  0  0  0  0  0  0  0  0  0  0
  124.8000  109.8604  108.6588 O   0  0  0  0  0  0  0  0  0  0  0  0
  121.3146  107.1767  108.5245 O   0  0  0  0  0  0  0  0  0  0  0  0
  124.9137  103.7201  108.2855 H   0  0  0  0  0  0  0  0  0  0  0  0
  125.4966  104.0574  106.6211 H   0  0  0  0  0  0  0  0  0  0  0  0
  126.9950  104.9594  108.7170 H   0  0  0  0  0  0  0  0  0  0  0  0
  126.7273  105.9913  107.3026 H   0  0  0  0  0  0  0  0  0  0  0  0
  123.3485  108.0459  107.0899 H   0  0  0  0  0  0  0  0  0  0  0  0
  125.1768  106.0431  109.9557 H   0  0  0  0  0  0  0  0  0  0  0  0
  122.0616  109.0061  109.0800 H   0  0  0  0  0  0  0  0  0  0  0  0
  122.6165  107.6165  110.0493 H   0  0  0  0  0  0  0  0  0  0  0  0
  126.7171  108.0828  109.3310 H   0  0  0  0  0  0  0  0  0  0  0  0
  120.5613  107.2955  109.1263 H   0  0  0  0  0  0  0  0  0  0  0  0
  1  3  1  0  0  0  0
  1  9  1  0  0  0  0
  1 10  2  0  0  0  0
  2  5  1  0  0  0  0
  2  8  1  0  0  0  0
  2 11  2  0  0  0  0
  3  4  1  0  0  0  0
  4  6  1  0  0  0  0
  5  7  1  0  0  0  0
  5  9  1  0  0  0  0
  6  8  1  0  0  0  0
  6  9  1  0  0  0  0
  7 12  1  0  0  0  0
  3 13  1  0  0  0  0
  3 14  1  0  0  0  0
  4 15  1  0  0  0  0
  4 16  1  0  0  0  0
  5 17  1  0  0  0  0
  6 18  1  0  0  0  0
  7 19  1  0  0  0  0
  7 20  1  0  0  0  0
  8 21  1  0  0  0  0
 12 22  1  0  0  0  0
M  END
> <FRED Chemgauss4 score>
-7.445364

$$$$
C39059111	P59177949
  -OEChem-05122015313D

 22 22  0     1  0  0  0  0  0999 V2000
  123.9547  108.1562  107.4633 C   0  0  0  0  0  0  0  0  0  0  0  0
  125.2959  108.7513  107.8933 C   0  0  1  0  0  0  0  0  0  0  0  0
  126.4511  107.9805  107.2472 C   0  0  1  0  0  0  0  0  0  0  0  0
  126.2770  106.4615  107.4401 C   0  0  1  0  0  0  0  0  0  0  0  0
  126.6118  106.0006  108.8618 C   0  0  0  0  0  0  0  0  0  0  0  0
  123.9174  106.7294  107.7897 N   0  0  0  0  0  0  0  0  0  0  0  0
  124.9250  106.0412  107.0173 N   0  0  0  0  0  0  0  0  0  0  0  0
  125.3684  110.1235  107.5251 O   0  0  0  0  0  0  0  0  0  0  0  0
  126.4731  108.2661  105.8443 O   0  0  0  0  0  0  0  0  0  0  0  0
  127.9630  106.3227  109.1279 O   0  0  0  0  0  0  0  0  0  0  0  0
  123.1429  108.6684  107.9935 H   0  0  0  0  0  0  0  0  0  0  0  0
  123.7600  108.3305  106.3969 H   0  0  0  0  0  0  0  0  0  0  0  0
  125.3861  108.7019  108.9858 H   0  0  0  0  0  0  0  0  0  0  0  0
  127.4080  108.3289  107.6525 H   0  0  0  0  0  0  0  0  0  0  0  0
  126.9717  105.9469  106.7728 H   0  0  0  0  0  0  0  0  0  0  0  0
  126.4721  104.9242  108.9408 H   0  0  0  0  0  0  0  0  0  0  0  0
  125.9685  106.5126  109.5747 H   0  0  0  0  0  0  0  0  0  0  0  0
  124.0666  106.5833  108.7861 H   0  0  0  0  0  0  0  0  0  0  0  0
  124.7943  106.2536  106.0282 H   0  0  0  0  0  0  0  0  0  0  0  0
  124.6373  110.5729  107.9783 H   0  0  0  0  0  0  0  0  0  0  0  0
  127.2136  107.7617  105.4780 H   0  0  0  0  0  0  0  0  0  0  0  0
  128.1567  106.0230  110.0331 H   0  0  0  0  0  0  0  0  0  0  0  0
  1  2  1  0  0  0  0
  1  6  1  0  0  0  0
  2  3  1  0  0  0  0
  2  8  1  0  0  0  0
  3  4  1  0  0  0  0
  3  9  1  0  0  0  0
  4  5  1  0  0  0  0
  4  7  1  0  0  0  0
  5 10  1  0  0  0  0
  6  7  1  0  0  0  0
  1 11  1  0  0  0  0
  1 12  1  0  0  0  0
  2 13  1  0  0  0  0
  3 14  1  0  0  0  0
  4 15  1  0  0  0  0
  5 16  1  0  0  0  0
  5 17  1  0  0  0  0
  6 18  1  0  0  0  0
  7 19  1  0  0  0  0
  8 20  1  0  0  0  0
  9 21  1  0  0  0  0
 10 22  1  0  0  0  0
M  END
> <FRED Chemgauss4 score>
-7.444033

$$$$
C21969276	P32695386
  -OEChem-05122015313D

 20 20  0     0  0  0  0  0  0999 V2000
  123.6387  107.7485  108.8364 C   0  0  0  0  0  0  0  0  0  0  0  0
  124.9513  107.4175  108.4500 C   0  0  0  0  0  0  0  0  0  0  0  0
  125.3951  108.5203  107.7621 C   0  0  0  0  0  0  0  0  0  0  0  0
  125.6886  106.2151  108.6977 C   0  0  0  0  0  0  0  0  0  0  0  0
  124.3327  110.7265  107.1812 C   0  0  0  0  0  0  0  0  0  0  0  0
  123.2725  108.9663  108.4280 N   0  0  0  0  0  0  0  0  0  0  0  0
  125.1824  105.0793  108.2222 N   0  0  0  0  0  0  0  0  0  0  0  0
  124.3618  109.4103  107.7779 N   0  0  0  0  0  0  0  0  0  0  0  0
  126.5648  108.8046  107.1511 N   0  0  0  0  0  0  0  0  0  0  0  0
  126.9046  106.1837  109.4118 N   0  0  0  0  0  0  0  0  0  0  0  0
  125.9757  103.9657  108.5167 O   0  0  0  0  0  0  0  0  0  0  0  0
  122.9314  107.1557  109.3987 H   0  0  0  0  0  0  0  0  0  0  0  0
  123.9604  110.6250  106.1584 H   0  0  0  0  0  0  0  0  0  0  0  0
  123.6747  111.3765  107.7648 H   0  0  0  0  0  0  0  0  0  0  0  0
  125.3427  111.1460  107.1818 H   0  0  0  0  0  0  0  0  0  0  0  0
  127.3669  108.1575  107.1740 H   0  0  0  0  0  0  0  0  0  0  0  0
  126.7460  109.7199  106.7130 H   0  0  0  0  0  0  0  0  0  0  0  0
  127.3252  107.0337  109.7696 H   0  0  0  0  0  0  0  0  0  0  0  0
  127.4222  105.3236  109.5583 H   0  0  0  0  0  0  0  0  0  0  0  0
  125.4654  103.2486  108.1041 H   0  0  0  0  0  0  0  0  0  0  0  0
  1  2  1  0  0  0  0
  1  6  2  0  0  0  0
  2  3  2  0  0  0  0
  2  4  1  0  0  0  0
  3  8  1  0  0  0  0
  3  9  1  0  0  0  0
  4  7  2  0  0  0  0
  4 10  1  0  0  0  0
  5  8  1  0  0  0  0
  6  8  1  0  0  0  0
  7 11  1  0  0  0  0
  1 12  1  0  0  0  0
  5 13  1  0  0  0  0
  5 14  1  0  0  0  0
  5 15  1  0  0  0  0
  9 16  1  0  0  0  0
  9 17  1  0  0  0  0
 10 18  1  0  0  0  0
 10 19  1  0  0  0  0
 11 20  1  0  0  0  0
M  END
> <FRED Chemgauss4 score>
-7.440389

$$$$
C81922581	P127811112
  -OEChem-05122015313D

 29 29  0     1  0  0  0  0  0999 V2000
  120.2932  108.6811  108.6516 C   0  0  0  0  0  0  0  0  0  0  0  0
  121.3986  108.9725  109.4508 C   0  0  0  0  0  0  0  0  0  0  0  0
  121.7635  107.8773  106.9111 C   0  0  0  0  0  0  0  0  0  0  0  0
  122.8689  108.1687  107.7104 C   0  0  0  0  0  0  0  0  0  0  0  0
  120.4757  108.1335  107.3817 C   0  0  0  0  0  0  0  0  0  0  0  0
  122.6864  108.7163  108.9803 C   0  0  0  0  0  0  0  0  0  0  0  0
  125.0088  103.8710  108.1557 C   0  0  0  0  0  0  0  0  0  0  0  0
  126.5596  106.4132  108.0563 C   0  0  0  0  0  0  0  0  0  0  0  0
  124.3565  105.1368  107.5977 C   0  0  2  0  0  0  0  0  0  0  0  0
  125.0338  106.4493  108.0437 C   0  0  2  0  0  0  0  0  0  0  0  0
  122.9454  105.1424  107.9957 N   0  0  0  0  0  0  0  0  0  0  0  0
  124.3003  107.3671  105.6997 O   0  0  0  0  0  0  0  0  0  0  0  0
  125.3371  108.9476  107.3649 O   0  0  0  0  0  0  0  0  0  0  0  0
  124.4741  107.8240  107.0629 S   0  0  0  0  0  0  0  0  0  0  0  0
  119.1113  107.7736  106.3964 Cl  0  0  0  0  0  0  0  0  0  0  0  0
  124.0204  109.0957  110.0093 Cl  0  0  0  0  0  0  0  0  0  0  0  0
  119.2954  108.8847  109.0320 H   0  0  0  0  0  0  0  0  0  0  0  0
  121.2383  109.3987  110.4380 H   0  0  0  0  0  0  0  0  0  0  0  0
  121.9063  107.4501  105.9212 H   0  0  0  0  0  0  0  0  0  0  0  0
  125.0103  103.8568  109.2508 H   0  0  0  0  0  0  0  0  0  0  0  0
  126.0430  103.7714  107.8131 H   0  0  0  0  0  0  0  0  0  0  0  0
  124.4705  102.9778  107.8175 H   0  0  0  0  0  0  0  0  0  0  0  0
  126.9674  106.1733  107.0690 H   0  0  0  0  0  0  0  0  0  0  0  0
  126.9382  105.6806  108.7755 H   0  0  0  0  0  0  0  0  0  0  0  0
  126.9622  107.3926  108.3382 H   0  0  0  0  0  0  0  0  0  0  0  0
  124.3924  105.0788  106.5026 H   0  0  0  0  0  0  0  0  0  0  0  0
  124.6896  106.6938  109.0576 H   0  0  0  0  0  0  0  0  0  0  0  0
  122.4814  104.2662  108.0693 H   0  0  0  0  0  0  0  0  0  0  0  0
  122.4621  106.0111  107.9762 H   0  0  0  0  0  0  0  0  0  0  0  0
  1  2  2  0  0  0  0
  1  5  1  0  0  0  0
  2  6  1  0  0  0  0
  3  4  1  0  0  0  0
  3  5  2  0  0  0  0
  4  6  2  0  0  0  0
  4 14  1  0  0  0  0
  5 15  1  0  0  0  0
  6 16  1  0  0  0  0
  7  9  1  0  0  0  0
  8 10  1  0  0  0  0
  9 10  1  0  0  0  0
  9 11  1  0  0  0  0
 10 14  1  0  0  0  0
 12 14  2  0  0  0  0
 13 14  2  0  0  0  0
  1 17  1  0  0  0  0
  2 18  1  0  0  0  0
  3 19  1  0  0  0  0
  7 20  1  0  0  0  0
  7 21  1  0  0  0  0
  7 22  1  0  0  0  0
  8 23  1  0  0  0  0
  8 24  1  0  0  0  0
  8 25  1  0  0  0  0
  9 26  1  0  0  0  0
 10 27  1  0  0  0  0
 11 28  1  0  0  0  0
 11 29  1  0  0  0  0
M  END
> <FRED Chemgauss4 score>
-7.438376

$$$$
C36264756	P53889251
  -OEChem-05122015313D

 19 19  0     1  0  0  0  0  0999 V2000
  124.0534  109.1078  109.2692 C   0  0  0  0  0  0  0  0  0  0  0  0
  124.1582  108.1192  110.3995 C   0  0  2  0  0  0  0  0  0  0  0  0
  124.5719  107.7217  109.0064 C   0  0  2  0  0  0  0  0  0  0  0  0
  125.4197  105.3463  107.1774 C   0  0  0  0  0  0  0  0  0  0  0  0
  122.9443  107.5509  110.9915 N   0  0  0  0  0  0  0  0  0  0  0  0
  125.9836  107.4828  108.6650 N   0  0  0  0  0  0  0  0  0  0  0  0
  125.4923  107.7276  106.1287 O   0  0  0  0  0  0  0  0  0  0  0  0
  127.6568  106.6516  106.8724 O   0  0  0  0  0  0  0  0  0  0  0  0
  124.0773  105.5044  107.0591 F   0  0  0  0  0  0  0  0  0  0  0  0
  125.6419  104.7634  108.3815 F   0  0  0  0  0  0  0  0  0  0  0  0
  126.2429  106.9096  107.0611 S   0  0  0  0  0  0  0  0  0  0  0  0
  123.0709  109.3580  108.8872 H   0  0  0  0  0  0  0  0  0  0  0  0
  124.7579  109.9309  109.2550 H   0  0  0  0  0  0  0  0  0  0  0  0
  124.9528  108.2926  111.1186 H   0  0  0  0  0  0  0  0  0  0  0  0
  123.9216  107.0511  108.4553 H   0  0  0  0  0  0  0  0  0  0  0  0
  125.7712  104.6852  106.3813 H   0  0  0  0  0  0  0  0  0  0  0  0
  122.2981  108.1767  111.4159 H   0  0  0  0  0  0  0  0  0  0  0  0
  122.9113  106.5660  111.1268 H   0  0  0  0  0  0  0  0  0  0  0  0
  126.5896  108.2719  108.9446 H   0  0  0  0  0  0  0  0  0  0  0  0
  1  2  1  0  0  0  0
  1  3  1  0  0  0  0
  2  3  1  0  0  0  0
  2  5  1  0  0  0  0
  3  6  1  0  0  0  0
  4  9  1  0  0  0  0
  4 10  1  0  0  0  0
  4 11  1  0  0  0  0
  6 11  1  0  0  0  0
  7 11  2  0  0  0  0
  8 11  2  0  0  0  0
  1 12  1  0  0  0  0
  1 13  1  0  0  0  0
  2 14  1  0  0  0  0
  3 15  1  0  0  0  0
  4 16  1  0  0  0  0
  5 17  1  0  0  0  0
  5 18  1  0  0  0  0
  6 19  1  0  0  0  0
M  END
> <FRED Chemgauss4 score>
-7.436708

$$$$
C39053465	P59168638
  -OEChem-05122015313D

 14 14  0     0  0  0  0  0  0999 V2000
  126.0326  106.4631  108.3890 C   0  0  0  0  0  0  0  0  0  0  0  0
  126.1497  107.6675  107.8096 C   0  0  0  0  0  0  0  0  0  0  0  0
  124.9873  105.4950  108.0041 C   0  0  0  0  0  0  0  0  0  0  0  0
  124.2274  107.1837  106.3632 C   0  0  0  0  0  0  0  0  0  0  0  0
  125.2520  108.0026  106.8157 N   0  0  0  0  0  0  0  0  0  0  0  0
  124.1476  105.9439  106.9974 N   0  0  0  0  0  0  0  0  0  0  0  0
  127.1248  108.5532  108.1794 N   0  0  0  0  0  0  0  0  0  0  0  0
  124.8995  104.3997  108.5492 O   0  0  0  0  0  0  0  0  0  0  0  0
  123.4486  107.5230  105.4712 O   0  0  0  0  0  0  0  0  0  0  0  0
  126.8669  106.0546  109.3660 F   0  0  0  0  0  0  0  0  0  0  0  0
  125.3487  108.9168  106.3835 H   0  0  0  0  0  0  0  0  0  0  0  0
  123.4090  105.3157  106.6937 H   0  0  0  0  0  0  0  0  0  0  0  0
  127.7585  108.2863  108.8983 H   0  0  0  0  0  0  0  0  0  0  0  0
  127.1658  109.4327  107.7163 H   0  0  0  0  0  0  0  0  0  0  0  0
  1  2  2  0  0  0  0
  1  3  1  0  0  0  0
  1 10  1  0  0  0  0
  2  5  1  0  0  0  0
  2  7  1  0  0  0  0
  3  6  1  0  0  0  0
  3  8  2  0  0  0  0
  4  5  1  0  0  0  0
  4  6  1  0  0  0  0
  4  9  2  0  0  0  0
  5 11  1  0  0  0  0
  6 12  1  0  0  0  0
  7 13  1  0  0  0  0
  7 14  1  0  0  0  0
M  END
> <FRED Chemgauss4 score>
-7.436197

$$$$
C21519997	P59373064
  -OEChem-05122015313D

 28 28  0     1  0  0  0  0  0999 V2000
  123.7965  109.3156  109.0193 C   0  0  0  0  0  0  0  0  0  0  0  0
  124.3080  108.3762  107.2486 C   0  0  0  0  0  0  0  0  0  0  0  0
  121.6829  109.3387  110.3926 C   0  0  0  0  0  0  0  0  0  0  0  0
  123.5557  110.9367  110.9345 C   0  0  0  0  0  0  0  0  0  0  0  0
  125.5732  105.6308  107.5270 C   0  0  0  0  0  0  0  0  0  0  0  0
  123.2188  109.5419  110.3488 C   0  0  0  0  0  0  0  0  0  0  0  0
  124.5429  107.4715  106.0468 C   0  0  2  0  0  0  0  0  0  0  0  0
  124.5419  105.9781  106.4553 C   0  0  2  0  0  0  0  0  0  0  0  0
  123.6528  108.1322  108.3553 N   0  0  0  0  0  0  0  0  0  0  0  0
  124.4970  110.2582  108.3817 N   0  0  0  0  0  0  0  0  0  0  0  0
  125.7832  107.8501  105.3607 N   0  0  0  0  0  0  0  0  0  0  0  0
  124.8441  109.6231  107.1826 O   0  0  0  0  0  0  0  0  0  0  0  0
  123.2542  105.6389  106.9815 O   0  0  0  0  0  0  0  0  0  0  0  0
  121.1736  110.0113  109.6939 H   0  0  0  0  0  0  0  0  0  0  0  0
  121.2683  109.5199  111.3902 H   0  0  0  0  0  0  0  0  0  0  0  0
  121.4336  108.3104  110.1077 H   0  0  0  0  0  0  0  0  0  0  0  0
  123.1893  111.7222  110.2642 H   0  0  0  0  0  0  0  0  0  0  0  0
  124.6335  111.0831  111.0646 H   0  0  0  0  0  0  0  0  0  0  0  0
  123.0807  111.0824  111.9109 H   0  0  0  0  0  0  0  0  0  0  0  0
  125.4546  106.2465  108.4229 H   0  0  0  0  0  0  0  0  0  0  0  0
  126.5924  105.7563  107.1453 H   0  0  0  0  0  0  0  0  0  0  0  0
  125.4761  104.5797  107.8216 H   0  0  0  0  0  0  0  0  0  0  0  0
  123.6252  108.8146  111.0900 H   0  0  0  0  0  0  0  0  0  0  0  0
  123.7180  107.6274  105.3387 H   0  0  0  0  0  0  0  0  0  0  0  0
  124.7114  105.3311  105.5870 H   0  0  0  0  0  0  0  0  0  0  0  0
  126.0287  108.8130  105.3474 H   0  0  0  0  0  0  0  0  0  0  0  0
  126.2116  107.1727  104.7730 H   0  0  0  0  0  0  0  0  0  0  0  0
  123.2806  104.6895  107.1677 H   0  0  0  0  0  0  0  0  0  0  0  0
  1  6  1  0  0  0  0
  1  9  1  0  0  0  0
  1 10  2  0  0  0  0
  2  7  1  0  0  0  0
  2  9  2  0  0  0  0
  2 12  1  0  0  0  0
  3  6  1  0  0  0  0
  4  6  1  0  0  0  0
  5  8  1  0  0  0  0
  7  8  1  0  0  0  0
  7 11  1  0  0  0  0
  8 13  1  0  0  0  0
 10 12  1  0  0  0  0
  3 14  1  0  0  0  0
  3 15  1  0  0  0  0
  3 16  1  0  0  0  0
  4 17  1  0  0  0  0
  4 18  1  0  0  0  0
  4 19  1  0  0  0  0
  5 20  1  0  0  0  0
  5 21  1  0  0  0  0
  5 22  1  0  0  0  0
  6 23  1  0  0  0  0
  7 24  1  0  0  0  0
  8 25  1  0  0  0  0
 11 26  1  0  0  0  0
 11 27  1  0  0  0  0
 13 28  1  0  0  0  0
M  END
> <FRED Chemgauss4 score>
-7.430424

$$$$
C22059796	P32818392
  -OEChem-05122015313D

 25 25  0     1  0  0  0  0  0999 V2000
  124.1947  107.9619  106.7205 C   0  0  1  0  0  0  0  0  0  0  0  0
  125.2423  106.8944  107.0560 C   0  0  2  0  0  0  0  0  0  0  0  0
  124.1748  109.0898  107.7568 C   0  0  1  0  0  0  0  0  0  0  0  0
  125.0571  106.4248  108.5060 C   0  0  1  0  0  0  0  0  0  0  0  0
  124.0351  108.4870  109.1632 C   0  0  2  0  0  0  0  0  0  0  0  0
  126.1374  105.4504  108.9601 C   0  0  0  0  0  0  0  0  0  0  0  0
  124.0324  109.5358  110.1805 N   0  0  0  0  0  0  0  0  0  0  0  0
  125.0869  107.5437  109.4041 O   0  0  0  0  0  0  0  0  0  0  0  0
  124.4238  108.4743  105.4136 O   0  0  0  0  0  0  0  0  0  0  0  0
  126.5481  107.4411  106.8728 O   0  0  0  0  0  0  0  0  0  0  0  0
  125.3881  109.8367  107.6586 O   0  0  0  0  0  0  0  0  0  0  0  0
  127.2989  106.1877  109.2969 O   0  0  0  0  0  0  0  0  0  0  0  0
  123.2083  107.4806  106.7090 H   0  0  0  0  0  0  0  0  0  0  0  0
  125.1481  106.0558  106.3562 H   0  0  0  0  0  0  0  0  0  0  0  0
  123.3531  109.7809  107.5343 H   0  0  0  0  0  0  0  0  0  0  0  0
  124.0842  105.9271  108.6083 H   0  0  0  0  0  0  0  0  0  0  0  0
  123.0769  107.9583  109.2391 H   0  0  0  0  0  0  0  0  0  0  0  0
  126.3748  104.7541  108.1550 H   0  0  0  0  0  0  0  0  0  0  0  0
  125.7970  104.8963  109.8355 H   0  0  0  0  0  0  0  0  0  0  0  0
  124.2898  109.2867  111.1105 H   0  0  0  0  0  0  0  0  0  0  0  0
  123.5851  110.3991  109.9617 H   0  0  0  0  0  0  0  0  0  0  0  0
  124.3534  107.7232  104.8030 H   0  0  0  0  0  0  0  0  0  0  0  0
  127.1742  106.7355  107.0950 H   0  0  0  0  0  0  0  0  0  0  0  0
  125.3338  110.5355  108.3275 H   0  0  0  0  0  0  0  0  0  0  0  0
  127.9711  105.5458  109.5825 H   0  0  0  0  0  0  0  0  0  0  0  0
  1  2  1  0  0  0  0
  1  3  1  0  0  0  0
  1  9  1  0  0  0  0
  2  4  1  0  0  0  0
  2 10  1  0  0  0  0
  3  5  1  0  0  0  0
  3 11  1  0  0  0  0
  4  6  1  0  0  0  0
  4  8  1  0  0  0  0
  5  7  1  0  0  0  0
  5  8  1  0  0  0  0
  6 12  1  0  0  0  0
  1 13  1  0  0  0  0
  2 14  1  0  0  0  0
  3 15  1  0  0  0  0
  4 16  1  0  0  0  0
  5 17  1  0  0  0  0
  6 18  1  0  0  0  0
  6 19  1  0  0  0  0
  7 20  1  0  0  0  0
  7 21  1  0  0  0  0
  9 22  1  0  0  0  0
 10 23  1  0  0  0  0
 11 24  1  0  0  0  0
 12 25  1  0  0  0  0
M  END
> <FRED Chemgauss4 score>
-7.427735

$$$$
C77264475	P120544761
  -OEChem-05122015313D

 27 27  0     1  0  0  0  0  0999 V2000
  125.1077  107.2780  106.6963 C   0  0  0  0  0  0  0  0  0  0  0  0
  125.1303  107.9541  108.0528 C   0  0  2  0  0  0  0  0  0  0  0  0
  125.2152  106.7788  109.0055 C   0  0  1  0  0  0  0  0  0  0  0  0
  124.5476  105.6282  108.2539 C   0  0  1  0  0  0  0  0  0  0  0  0
  120.2843  104.1882  106.1862 C   0  0  0  0  0  0  0  0  0  0  0  0
  123.1501  105.3082  108.7627 C   0  0  0  0  0  0  0  0  0  0  0  0
  123.9426  108.7413  108.2684 N   0  0  0  0  0  0  0  0  0  0  0  0
  122.4206  104.5937  107.7674 N   0  0  0  0  0  0  0  0  0  0  0  0
  122.2997  105.6669  105.4103 O   0  0  0  0  0  0  0  0  0  0  0  0
  120.7685  106.5361  107.2149 O   0  0  0  0  0  0  0  0  0  0  0  0
  124.4365  106.0256  106.8751 O   0  0  0  0  0  0  0  0  0  0  0  0
  126.5962  106.4729  109.2024 O   0  0  0  0  0  0  0  0  0  0  0  0
  121.4813  105.4410  106.5856 S   0  0  0  0  0  0  0  0  0  0  0  0
  124.6072  107.8556  105.9126 H   0  0  0  0  0  0  0  0  0  0  0  0
  126.1263  107.0609  106.3541 H   0  0  0  0  0  0  0  0  0  0  0  0
  126.0214  108.6201  108.1279 H   0  0  0  0  0  0  0  0  0  0  0  0
  124.7862  106.9718  109.9974 H   0  0  0  0  0  0  0  0  0  0  0  0
  125.1587  104.7156  108.2847 H   0  0  0  0  0  0  0  0  0  0  0  0
  119.6050  104.5888  105.4322 H   0  0  0  0  0  0  0  0  0  0  0  0
  120.8142  103.3166  105.7991 H   0  0  0  0  0  0  0  0  0  0  0  0
  119.7382  103.9315  107.0952 H   0  0  0  0  0  0  0  0  0  0  0  0
  122.6345  106.2355  108.9839 H   0  0  0  0  0  0  0  0  0  0  0  0
  123.2258  104.6972  109.6542 H   0  0  0  0  0  0  0  0  0  0  0  0
  123.5668  109.2422  107.4937 H   0  0  0  0  0  0  0  0  0  0  0  0
  123.6640  108.9188  109.2083 H   0  0  0  0  0  0  0  0  0  0  0  0
  122.8664  103.7171  107.4034 H   0  0  0  0  0  0  0  0  0  0  0  0
  126.6236  105.7213  109.8126 H   0  0  0  0  0  0  0  0  0  0  0  0
  1  2  1  0  0  0  0
  1 11  1  0  0  0  0
  2  3  1  0  0  0  0
  2  7  1  0  0  0  0
  3  4  1  0  0  0  0
  3 12  1  0  0  0  0
  4  6  1  0  0  0  0
  4 11  1  0  0  0  0
  5 13  1  0  0  0  0
  6  8  1  0  0  0  0
  8 13  1  0  0  0  0
  9 13  2  0  0  0  0
 10 13  2  0  0  0  0
  1 14  1  0  0  0  0
  1 15  1  0  0  0  0
  2 16  1  0  0  0  0
  3 17  1  0  0  0  0
  4 18  1  0  0  0  0
  5 19  1  0  0  0  0
  5 20  1  0  0  0  0
  5 21  1  0  0  0  0
  6 22  1  0  0  0  0
  6 23  1  0  0  0  0
  7 24  1  0  0  0  0
  7 25  1  0  0  0  0
  8 26  1  0  0  0  0
 12 27  1  0  0  0  0
M  END
> <FRED Chemgauss4 score>
-7.425623

$$$$
C83945111	P131322502
  -OEChem-05122015313D

 18 18  0     1  0  0  0  0  0999 V2000
  125.3963  103.6851  106.7859 C   0  0  0  0  0  0  0  0  0  0  0  0
  125.5057  104.3701  107.7661 C   0  0  0  0  0  0  0  0  0  0  0  0
  124.3790  107.3077  109.4151 C   0  0  0  0  0  0  0  0  0  0  0  0
  126.1686  107.3535  107.8089 C   0  0  0  0  0  0  0  0  0  0  0  0
  124.1771  108.6522  109.1481 C   0  0  0  0  0  0  0  0  0  0  0  0
  125.8864  108.6960  107.6136 C   0  0  0  0  0  0  0  0  0  0  0  0
  125.3958  106.6533  108.7286 C   0  0  0  0  0  0  0  0  0  0  0  0
  125.6568  105.2067  108.9780 C   0  0  2  0  0  0  0  0  0  0  0  0
  124.9072  109.3657  108.2619 N   0  0  0  0  0  0  0  0  0  0  0  0
  126.9685  104.9817  109.5603 N   0  0  0  0  0  0  0  0  0  0  0  0
  125.2995  103.0776  105.9166 H   0  0  0  0  0  0  0  0  0  0  0  0
  123.7592  106.7901  110.1395 H   0  0  0  0  0  0  0  0  0  0  0  0
  126.9684  106.8710  107.2578 H   0  0  0  0  0  0  0  0  0  0  0  0
  123.3975  109.2087  109.6581 H   0  0  0  0  0  0  0  0  0  0  0  0
  126.4603  109.2865  106.9072 H   0  0  0  0  0  0  0  0  0  0  0  0
  124.9530  104.8159  109.7343 H   0  0  0  0  0  0  0  0  0  0  0  0
  127.3873  104.0788  109.4576 H   0  0  0  0  0  0  0  0  0  0  0  0
  127.3226  105.6540  110.2114 H   0  0  0  0  0  0  0  0  0  0  0  0
  1  2  3  0  0  0  0
  2  8  1  0  0  0  0
  3  5  2  0  0  0  0
  3  7  1  0  0  0  0
  4  6  1  0  0  0  0
  4  7  2  0  0  0  0
  5  9  1  0  0  0  0
  6  9  2  0  0  0  0
  7  8  1  0  0  0  0
  8 10  1  0  0  0  0
  1 11  1  0  0  0  0
  3 12  1  0  0  0  0
  4 13  1  0  0  0  0
  5 14  1  0  0  0  0
  6 15  1  0  0  0  0
  8 16  1  0  0  0  0
 10 17  1  0  0  0  0
 10 18  1  0  0  0  0
M  END
> <FRED Chemgauss4 score>
-7.421742

$$$$
C85798264	P134352627
  -OEChem-05122015313D

 28 28  0     1  0  0  0  0  0999 V2000
  125.5415  109.1931  108.1570 C   0  0  0  0  0  0  0  0  0  0  0  0
  124.1804  107.7184  109.0555 C   0  0  0  0  0  0  0  0  0  0  0  0
  125.3086  107.8100  108.2777 C   0  0  0  0  0  0  0  0  0  0  0  0
  122.6885  109.4168  110.1365 C   0  0  0  0  0  0  0  0  0  0  0  0
  124.5685  104.0321  108.2230 C   0  0  0  0  0  0  0  0  0  0  0  0
  123.1435  104.7665  106.4334 C   0  0  0  0  0  0  0  0  0  0  0  0
  125.3037  105.7729  106.7393 C   0  0  0  0  0  0  0  0  0  0  0  0
  126.1194  106.6728  107.6807 C   0  0  1  0  0  0  0  0  0  0  0  0
  124.6340  109.9274  108.8060 N   0  0  0  0  0  0  0  0  0  0  0  0
  123.8198  109.0022  109.3420 N   0  0  0  0  0  0  0  0  0  0  0  0
  127.2971  107.1871  106.9714 N   0  0  0  0  0  0  0  0  0  0  0  0
  124.1508  105.1750  107.4118 N   0  0  0  0  0  0  0  0  0  0  0  0
  126.3334  109.6990  107.6230 H   0  0  0  0  0  0  0  0  0  0  0  0
  123.6165  106.8701  109.4195 H   0  0  0  0  0  0  0  0  0  0  0  0
  123.0155  109.4890  111.1771 H   0  0  0  0  0  0  0  0  0  0  0  0
  122.3293  110.3864  109.7804 H   0  0  0  0  0  0  0  0  0  0  0  0
  121.8871  108.6794  110.0366 H   0  0  0  0  0  0  0  0  0  0  0  0
  125.3211  104.3438  108.9519 H   0  0  0  0  0  0  0  0  0  0  0  0
  124.9966  103.2530  107.5864 H   0  0  0  0  0  0  0  0  0  0  0  0
  123.7112  103.6153  108.7585 H   0  0  0  0  0  0  0  0  0  0  0  0
  122.8356  105.6248  105.8305 H   0  0  0  0  0  0  0  0  0  0  0  0
  122.2650  104.3607  106.9424 H   0  0  0  0  0  0  0  0  0  0  0  0
  123.5504  103.9984  105.7703 H   0  0  0  0  0  0  0  0  0  0  0  0
  124.9048  106.3544  105.9004 H   0  0  0  0  0  0  0  0  0  0  0  0
  125.8993  104.9543  106.3213 H   0  0  0  0  0  0  0  0  0  0  0  0
  126.4927  106.0478  108.5024 H   0  0  0  0  0  0  0  0  0  0  0  0
  127.7169  106.6008  106.2882 H   0  0  0  0  0  0  0  0  0  0  0  0
  127.7403  107.9966  107.3393 H   0  0  0  0  0  0  0  0  0  0  0  0
  1  3  1  0  0  0  0
  1  9  2  0  0  0  0
  2  3  2  0  0  0  0
  2 10  1  0  0  0  0
  3  8  1  0  0  0  0
  4 10  1  0  0  0  0
  5 12  1  0  0  0  0
  6 12  1  0  0  0  0
  7  8  1  0  0  0  0
  7 12  1  0  0  0  0
  8 11  1  0  0  0  0
  9 10  1  0  0  0  0
  1 13  1  0  0  0  0
  2 14  1  0  0  0  0
  4 15  1  0  0  0  0
  4 16  1  0  0  0  0
  4 17  1  0  0  0  0
  5 18  1  0  0  0  0
  5 19  1  0  0  0  0
  5 20  1  0  0  0  0
  6 21  1  0  0  0  0
  6 22  1  0  0  0  0
  6 23  1  0  0  0  0
  7 24  1  0  0  0  0
  7 25  1  0  0  0  0
  8 26  1  0  0  0  0
 11 27  1  0  0  0  0
 11 28  1  0  0  0  0
M  END
> <FRED Chemgauss4 score>
-7.420644

$$$$
C82476686	P128888928
  -OEChem-05122015313D

 31 31  0     1  0  0  0  0  0999 V2000
  122.2577  106.0366  108.1622 C   0  0  0  0  0  0  0  0  0  0  0  0
  125.4999  108.2964  107.5694 C   0  0  0  0  0  0  0  0  0  0  0  0
  123.9231  104.2139  108.5407 C   0  0  0  0  0  0  0  0  0  0  0  0
  124.6427  104.6985  107.2954 C   0  0  0  0  0  0  0  0  0  0  0  0
  123.1230  106.5901  107.0377 C   0  0  2  0  0  0  0  0  0  0  0  0
  121.0784  106.6638  105.6069 C   0  0  0  0  0  0  0  0  0  0  0  0
  126.5851  106.1925  108.4666 C   0  0  0  0  0  0  0  0  0  0  0  0
  122.4968  106.2132  105.6924 C   0  0  0  0  0  0  0  0  0  0  0  0
  125.2798  106.8961  108.1216 C   0  0  2  0  0  0  0  0  0  0  0  0
  122.6265  104.8314  108.7147 N   0  0  0  0  0  0  0  0  0  0  0  0
  124.5236  106.1466  107.1186 N   0  0  1  0  0  0  0  0  0  0  0  0
  124.9038  109.3240  108.2509 N   0  0  0  0  0  0  0  0  0  0  0  0
  121.2179  106.6134  108.4909 O   0  0  0  0  0  0  0  0  0  0  0  0
  126.4162  108.5737  106.1959 S   0  0  0  0  0  0  0  0  0  0  0  0
  123.7533  103.1308  108.4941 H   0  0  0  0  0  0  0  0  0  0  0  0
  124.5151  104.4210  109.4393 H   0  0  0  0  0  0  0  0  0  0  0  0
  125.7135  104.3922  107.3290 H   0  0  0  0  0  0  0  0  0  0  0  0
  124.2112  104.1558  106.4257 H   0  0  0  0  0  0  0  0  0  0  0  0
  123.0774  107.6935  107.1246 H   0  0  0  0  0  0  0  0  0  0  0  0
  120.5002  106.1978  106.4135 H   0  0  0  0  0  0  0  0  0  0  0  0
  120.6289  106.3688  104.6528 H   0  0  0  0  0  0  0  0  0  0  0  0
  121.0039  107.7506  105.7198 H   0  0  0  0  0  0  0  0  0  0  0  0
  127.2406  106.1350  107.5913 H   0  0  0  0  0  0  0  0  0  0  0  0
  127.1160  106.7335  109.2575 H   0  0  0  0  0  0  0  0  0  0  0  0
  126.4192  105.1720  108.8286 H   0  0  0  0  0  0  0  0  0  0  0  0
  123.0816  106.6713  104.8938 H   0  0  0  0  0  0  0  0  0  0  0  0
  122.5510  105.1304  105.5726 H   0  0  0  0  0  0  0  0  0  0  0  0
  124.6504  106.9356  109.0179 H   0  0  0  0  0  0  0  0  0  0  0  0
  121.9412  104.3396  109.2850 H   0  0  0  0  0  0  0  0  0  0  0  0
  124.3478  109.1735  109.0861 H   0  0  0  0  0  0  0  0  0  0  0  0
  125.0119  110.2853  107.9452 H   0  0  0  0  0  0  0  0  0  0  0  0
  1  5  1  0  0  0  0
  1 10  1  0  0  0  0
  1 13  2  0  0  0  0
  2  9  1  0  0  0  0
  2 12  1  0  0  0  0
  2 14  2  0  0  0  0
  3  4  1  0  0  0  0
  3 10  1  0  0  0  0
  4 11  1  0  0  0  0
  5  8  1  0  0  0  0
  5 11  1  0  0  0  0
  6  8  1  0  0  0  0
  7  9  1  0  0  0  0
  9 11  1  0  0  0  0
  3 15  1  0  0  0  0
  3 16  1  0  0  0  0
  4 17  1  0  0  0  0
  4 18  1  0  0  0  0
  5 19  1  0  0  0  0
  6 20  1  0  0  0  0
  6 21  1  0  0  0  0
  6 22  1  0  0  0  0
  7 23  1  0  0  0  0
  7 24  1  0  0  0  0
  7 25  1  0  0  0  0
  8 26  1  0  0  0  0
  8 27  1  0  0  0  0
  9 28  1  0  0  0  0
 10 29  1  0  0  0  0
 12 30  1  0  0  0  0
 12 31  1  0  0  0  0
M  END
> <FRED Chemgauss4 score>
-7.420136

$$$$
C05510479	P08181956
  -OEChem-05122015313D

 25 24  0     0  0  0  0  0  0999 V2000
  123.4066  105.6817  106.4923 C   0  0  0  0  0  0  0  0  0  0  0  0
  121.0828  104.6443  106.3925 C   0  0  0  0  0  0  0  0  0  0  0  0
  125.8126  106.3796  106.8361 C   0  0  0  0  0  0  0  0  0  0  0  0
  125.0150  104.3009  107.8821 C   0  0  0  0  0  0  0  0  0  0  0  0
  125.8436  107.4177  107.9428 C   0  0  0  0  0  0  0  0  0  0  0  0
  125.5504  103.1839  107.0051 C   0  0  0  0  0  0  0  0  0  0  0  0
  122.4717  104.6934  106.8170 N   0  0  0  0  0  0  0  0  0  0  0  0
  124.6910  105.4639  107.0530 N   0  0  0  0  0  0  0  0  0  0  0  0
  126.9551  108.2829  107.7477 O   0  0  0  0  0  0  0  0  0  0  0  0
  124.5514  102.7977  106.0698 O   0  0  0  0  0  0  0  0  0  0  0  0
  123.0164  107.0105  105.5182 S   0  0  0  0  0  0  0  0  0  0  0  0
  120.4390  105.0770  107.1626 H   0  0  0  0  0  0  0  0  0  0  0  0
  120.7770  103.6090  106.2190 H   0  0  0  0  0  0  0  0  0  0  0  0
  120.9508  105.2087  105.4654 H   0  0  0  0  0  0  0  0  0  0  0  0
  125.6874  106.8489  105.8551 H   0  0  0  0  0  0  0  0  0  0  0  0
  126.7366  105.7935  106.8376 H   0  0  0  0  0  0  0  0  0  0  0  0
  124.1067  103.9913  108.4087 H   0  0  0  0  0  0  0  0  0  0  0  0
  125.7685  104.6040  108.6153 H   0  0  0  0  0  0  0  0  0  0  0  0
  125.9638  106.9270  108.9137 H   0  0  0  0  0  0  0  0  0  0  0  0
  124.9283  108.0182  107.9573 H   0  0  0  0  0  0  0  0  0  0  0  0
  125.7950  102.3108  107.6180 H   0  0  0  0  0  0  0  0  0  0  0  0
  126.4447  103.4965  106.4562 H   0  0  0  0  0  0  0  0  0  0  0  0
  122.7908  103.8810  107.3315 H   0  0  0  0  0  0  0  0  0  0  0  0
  126.9379  108.9279  108.4729 H   0  0  0  0  0  0  0  0  0  0  0  0
  124.9327  102.0853  105.5318 H   0  0  0  0  0  0  0  0  0  0  0  0
  1  7  1  0  0  0  0
  1  8  1  0  0  0  0
  1 11  2  0  0  0  0
  2  7  1  0  0  0  0
  3  5  1  0  0  0  0
  3  8  1  0  0  0  0
  4  6  1  0  0  0  0
  4  8  1  0  0  0  0
  5  9  1  0  0  0  0
  6 10  1  0  0  0  0
  2 12  1  0  0  0  0
  2 13  1  0  0  0  0
  2 14  1  0  0  0  0
  3 15  1  0  0  0  0
  3 16  1  0  0  0  0
  4 17  1  0  0  0  0
  4 18  1  0  0  0  0
  5 19  1  0  0  0  0
  5 20  1  0  0  0  0
  6 21  1  0  0  0  0
  6 22  1  0  0  0  0
  7 23  1  0  0  0  0
  9 24  1  0  0  0  0
 10 25  1  0  0  0  0
M  END
> <FRED Chemgauss4 score>
-7.419691

$$$$
C85172004	P133262859
  -OEChem-05122015313D

 27 27  0     1  0  0  0  0  0999 V2000
  124.7634  109.2001  108.0654 C   0  0  0  0  0  0  0  0  0  0  0  0
  126.1271  107.7819  107.2532 C   0  0  0  0  0  0  0  0  0  0  0  0
  124.4632  108.0077  108.6806 C   0  0  0  0  0  0  0  0  0  0  0  0
  120.4232  107.5637  107.5142 C   0  0  0  0  0  0  0  0  0  0  0  0
  125.4459  105.7035  108.4663 C   0  0  0  0  0  0  0  0  0  0  0  0
  121.6415  108.1081  108.1790 C   0  0  0  0  0  0  0  0  0  0  0  0
  123.0840  108.8193  110.6412 C   0  0  0  0  0  0  0  0  0  0  0  0
  123.4234  107.6454  109.7189 C   0  0  1  0  0  0  0  0  0  0  0  0
  125.7998  109.0528  107.1778 N   0  0  0  0  0  0  0  0  0  0  0  0
  125.3448  107.1085  108.1498 N   0  0  0  0  0  0  0  0  0  0  0  0
  122.2274  107.1281  109.0889 N   0  0  0  0  0  0  0  0  0  0  0  0
  122.1305  108.3945  111.6098 O   0  0  0  0  0  0  0  0  0  0  0  0
  124.2874  110.1586  108.2147 H   0  0  0  0  0  0  0  0  0  0  0  0
  126.9126  107.2978  106.6892 H   0  0  0  0  0  0  0  0  0  0  0  0
  120.6641  106.6706  106.9276 H   0  0  0  0  0  0  0  0  0  0  0  0
  119.6542  107.3136  108.2532 H   0  0  0  0  0  0  0  0  0  0  0  0
  120.0060  108.3138  106.8318 H   0  0  0  0  0  0  0  0  0  0  0  0
  126.1481  105.5947  109.2971 H   0  0  0  0  0  0  0  0  0  0  0  0
  124.4603  105.3215  108.7463 H   0  0  0  0  0  0  0  0  0  0  0  0
  125.8043  105.1601  107.5876 H   0  0  0  0  0  0  0  0  0  0  0  0
  121.3938  108.9995  108.7630 H   0  0  0  0  0  0  0  0  0  0  0  0
  122.4024  108.3720  107.4386 H   0  0  0  0  0  0  0  0  0  0  0  0
  123.9735  109.1630  111.1806 H   0  0  0  0  0  0  0  0  0  0  0  0
  122.6597  109.6650  110.0891 H   0  0  0  0  0  0  0  0  0  0  0  0
  123.7963  106.8178  110.3356 H   0  0  0  0  0  0  0  0  0  0  0  0
  121.5368  106.8890  109.8043 H   0  0  0  0  0  0  0  0  0  0  0  0
  121.9437  109.1634  112.1710 H   0  0  0  0  0  0  0  0  0  0  0  0
  1  3  2  0  0  0  0
  1  9  1  0  0  0  0
  2  9  2  0  0  0  0
  2 10  1  0  0  0  0
  3  8  1  0  0  0  0
  3 10  1  0  0  0  0
  4  6  1  0  0  0  0
  5 10  1  0  0  0  0
  6 11  1  0  0  0  0
  7  8  1  0  0  0  0
  7 12  1  0  0  0  0
  8 11  1  0  0  0  0
  1 13  1  0  0  0  0
  2 14  1  0  0  0  0
  4 15  1  0  0  0  0
  4 16  1  0  0  0  0
  4 17  1  0  0  0  0
  5 18  1  0  0  0  0
  5 19  1  0  0  0  0
  5 20  1  0  0  0  0
  6 21  1  0  0  0  0
  6 22  1  0  0  0  0
  7 23  1  0  0  0  0
  7 24  1  0  0  0  0
  8 25  1  0  0  0  0
 11 26  1  0  0  0  0
 12 27  1  0  0  0  0
M  END
> <FRED Chemgauss4 score>
-7.417976

$$$$
C69049229	P106086117
  -OEChem-05122015313D

 22 22  0     1  0  0  0  0  0999 V2000
  123.6336  109.2249  110.0411 C   0  0  0  0  0  0  0  0  0  0  0  0
  123.3799  107.8941  109.7920 C   0  0  0  0  0  0  0  0  0  0  0  0
  124.8098  109.3669  108.0852 C   0  0  0  0  0  0  0  0  0  0  0  0
  124.5568  108.0359  107.8363 C   0  0  0  0  0  0  0  0  0  0  0  0
  125.2106  103.7472  107.2701 C   0  0  0  0  0  0  0  0  0  0  0  0
  124.6881  105.8998  106.4853 C   0  0  0  0  0  0  0  0  0  0  0  0
  125.0867  107.3748  106.5821 C   0  0  1  0  0  0  0  0  0  0  0  0
  124.3531  109.9853  109.1922 N   0  0  0  0  0  0  0  0  0  0  0  0
  123.8370  107.2757  108.6851 N   0  0  0  0  0  0  0  0  0  0  0  0
  124.6618  108.0975  105.4023 N   0  0  0  0  0  0  0  0  0  0  0  0
  125.5334  105.1288  107.3330 O   0  0  0  0  0  0  0  0  0  0  0  0
  123.2661  109.7210  110.9309 H   0  0  0  0  0  0  0  0  0  0  0  0
  122.8015  107.2838  110.4745 H   0  0  0  0  0  0  0  0  0  0  0  0
  125.3874  109.9844  107.4072 H   0  0  0  0  0  0  0  0  0  0  0  0
  125.8764  103.1863  107.9306 H   0  0  0  0  0  0  0  0  0  0  0  0
  125.3175  103.3936  106.2415 H   0  0  0  0  0  0  0  0  0  0  0  0
  124.1769  103.6085  107.5954 H   0  0  0  0  0  0  0  0  0  0  0  0
  123.6563  105.7504  106.8219 H   0  0  0  0  0  0  0  0  0  0  0  0
  124.7831  105.5158  105.4637 H   0  0  0  0  0  0  0  0  0  0  0  0
  126.1822  107.4384  106.5710 H   0  0  0  0  0  0  0  0  0  0  0  0
  124.6566  107.6199  104.5202 H   0  0  0  0  0  0  0  0  0  0  0  0
  124.5803  109.0962  105.4522 H   0  0  0  0  0  0  0  0  0  0  0  0
  1  2  2  0  0  0  0
  1  8  1  0  0  0  0
  2  9  1  0  0  0  0
  3  4  1  0  0  0  0
  3  8  2  0  0  0  0
  4  7  1  0  0  0  0
  4  9  2  0  0  0  0
  5 11  1  0  0  0  0
  6  7  1  0  0  0  0
  6 11  1  0  0  0  0
  7 10  1  0  0  0  0
  1 12  1  0  0  0  0
  2 13  1  0  0  0  0
  3 14  1  0  0  0  0
  5 15  1  0  0  0  0
  5 16  1  0  0  0  0
  5 17  1  0  0  0  0
  6 18  1  0  0  0  0
  6 19  1  0  0  0  0
  7 20  1  0  0  0  0
 10 21  1  0  0  0  0
 10 22  1  0  0  0  0
M  END
> <FRED Chemgauss4 score>
-7.415236

$$$$
C35644384	P52904168
  -OEChem-05122015313D

 24 24  0     1  0  0  0  0  0999 V2000
  124.5084  108.2611  107.2757 C   0  0  1  0  0  0  0  0  0  0  0  0
  124.4052  107.3718  106.0341 C   0  0  2  0  0  0  0  0  0  0  0  0
  125.9354  108.3019  107.8316 C   0  0  1  0  0  0  0  0  0  0  0  0
  125.0307  105.9915  106.2809 C   0  0  2  0  0  0  0  0  0  0  0  0
  126.4363  106.8685  108.0553 C   0  0  2  0  0  0  0  0  0  0  0  0
  124.1475  105.0734  107.1230 C   0  0  0  0  0  0  0  0  0  0  0  0
  127.8132  106.8864  108.5498 N   0  0  0  0  0  0  0  0  0  0  0  0
  126.3452  106.1067  106.8463 O   0  0  0  0  0  0  0  0  0  0  0  0
  124.0491  109.5729  106.9696 O   0  0  0  0  0  0  0  0  0  0  0  0
  125.0995  107.9959  104.9502 O   0  0  0  0  0  0  0  0  0  0  0  0
  126.8017  108.9641  106.9084 O   0  0  0  0  0  0  0  0  0  0  0  0
  123.8021  107.8909  108.0650 H   0  0  0  0  0  0  0  0  0  0  0  0
  123.3631  107.2658  105.7539 H   0  0  0  0  0  0  0  0  0  0  0  0
  125.9387  108.8289  108.7545 H   0  0  0  0  0  0  0  0  0  0  0  0
  125.1344  105.4681  105.2756 H   0  0  0  0  0  0  0  0  0  0  0  0
  125.8475  106.3946  108.7993 H   0  0  0  0  0  0  0  0  0  0  0  0
  123.9987  105.5077  108.1104 H   0  0  0  0  0  0  0  0  0  0  0  0
  124.6228  104.0996  107.2299 H   0  0  0  0  0  0  0  0  0  0  0  0
  123.1798  104.9467  106.6399 H   0  0  0  0  0  0  0  0  0  0  0  0
  128.3673  106.0704  108.4154 H   0  0  0  0  0  0  0  0  0  0  0  0
  128.0757  107.6189  109.1710 H   0  0  0  0  0  0  0  0  0  0  0  0
  124.1358  110.0898  107.7845 H   0  0  0  0  0  0  0  0  0  0  0  0
  125.0119  107.4050  104.1851 H   0  0  0  0  0  0  0  0  0  0  0  0
  126.4543  109.8634  106.7948 H   0  0  0  0  0  0  0  0  0  0  0  0
  1  2  1  0  0  0  0
  1  3  1  0  0  0  0
  1  9  1  0  0  0  0
  2  4  1  0  0  0  0
  2 10  1  0  0  0  0
  3  5  1  0  0  0  0
  3 11  1  0  0  0  0
  4  6  1  0  0  0  0
  4  8  1  0  0  0  0
  5  7  1  0  0  0  0
  5  8  1  0  0  0  0
  1 12  1  0  0  0  0
  2 13  1  0  0  0  0
  3 14  1  0  0  0  0
  4 15  1  0  0  0  0
  5 16  1  0  0  0  0
  6 17  1  0  0  0  0
  6 18  1  0  0  0  0
  6 19  1  0  0  0  0
  7 20  1  0  0  0  0
  7 21  1  0  0  0  0
  9 22  1  0  0  0  0
 10 23  1  0  0  0  0
 11 24  1  0  0  0  0
M  END
> <FRED Chemgauss4 score>
-7.406687

$$$$
C98090319	P155911238
  -OEChem-05122015313D

 23 22  0     1  0  0  0  0  0999 V2000
  123.9472  105.7247  107.9322 C   0  0  0  0  0  0  0  0  0  0  0  0
  124.6351  109.0262  108.0870 C   0  0  0  0  0  0  0  0  0  0  0  0
  124.1248  106.3347  106.5621 C   0  0  2  0  0  0  0  0  0  0  0  0
  125.7243  108.0097  107.7464 C   0  0  1  0  0  0  0  0  0  0  0  0
  125.4227  107.1531  106.5036 C   0  0  2  0  0  0  0  0  0  0  0  0
  124.3834  104.5331  108.1773 N   0  0  0  0  0  0  0  0  0  0  0  0
  124.9728  103.9668  107.1076 N   0  0  0  0  0  0  0  0  0  0  0  0
  124.4481  109.8870  106.9668 O   0  0  0  0  0  0  0  0  0  0  0  0
  122.9778  107.1455  106.3672 O   0  0  0  0  0  0  0  0  0  0  0  0
  126.9559  108.7025  107.5417 O   0  0  0  0  0  0  0  0  0  0  0  0
  125.3832  108.0099  105.3614 O   0  0  0  0  0  0  0  0  0  0  0  0
  123.4358  106.3449  108.6936 H   0  0  0  0  0  0  0  0  0  0  0  0
  123.6778  108.5345  108.2859 H   0  0  0  0  0  0  0  0  0  0  0  0
  124.9152  109.6464  108.9428 H   0  0  0  0  0  0  0  0  0  0  0  0
  124.1227  105.5323  105.8163 H   0  0  0  0  0  0  0  0  0  0  0  0
  125.8727  107.3473  108.6085 H   0  0  0  0  0  0  0  0  0  0  0  0
  126.2664  106.4662  106.3578 H   0  0  0  0  0  0  0  0  0  0  0  0
  125.4375  104.6662  106.5297 H   0  0  0  0  0  0  0  0  0  0  0  0
  125.6849  103.3111  107.4237 H   0  0  0  0  0  0  0  0  0  0  0  0
  123.7537  110.5168  107.2152 H   0  0  0  0  0  0  0  0  0  0  0  0
  122.2044  106.5594  106.4192 H   0  0  0  0  0  0  0  0  0  0  0  0
  127.1521  109.1626  108.3716 H   0  0  0  0  0  0  0  0  0  0  0  0
  125.2990  107.4313  104.5889 H   0  0  0  0  0  0  0  0  0  0  0  0
  1  3  1  0  0  0  0
  1  6  2  0  0  0  0
  2  4  1  0  0  0  0
  2  8  1  0  0  0  0
  3  5  1  0  0  0  0
  3  9  1  0  0  0  0
  4  5  1  0  0  0  0
  4 10  1  0  0  0  0
  5 11  1  0  0  0  0
  6  7  1  0  0  0  0
  1 12  1  0  0  0  0
  2 13  1  0  0  0  0
  2 14  1  0  0  0  0
  3 15  1  0  0  0  0
  4 16  1  0  0  0  0
  5 17  1  0  0  0  0
  7 18  1  0  0  0  0
  7 19  1  0  0  0  0
  8 20  1  0  0  0  0
  9 21  1  0  0  0  0
 10 22  1  0  0  0  0
 11 23  1  0  0  0  0
M  END
> <FRED Chemgauss4 score>
-7.404462

$$$$
C82681682	P129224236
  -OEChem-05122015313D

 24 24  0     1  0  0  0  0  0999 V2000
  125.5074  105.4779  108.3970 C   0  0  0  0  0  0  0  0  0  0  0  0
  126.4655  106.4943  107.7786 C   0  0  0  0  0  0  0  0  0  0  0  0
  124.4908  104.9655  107.3923 C   0  0  0  0  0  0  0  0  0  0  0  0
  124.7106  107.4693  106.2091 C   0  0  0  0  0  0  0  0  0  0  0  0
  125.7909  107.7729  107.2504 C   0  0  1  0  0  0  0  0  0  0  0  0
  125.2739  108.6619  108.3860 C   0  0  0  0  0  0  0  0  0  0  0  0
  124.6710  109.8283  107.8402 N   0  0  0  0  0  0  0  0  0  0  0  0
  122.8434  105.7713  105.5331 O   0  0  0  0  0  0  0  0  0  0  0  0
  122.7093  106.8482  107.8037 O   0  0  0  0  0  0  0  0  0  0  0  0
  126.7987  108.5330  106.5628 O   0  0  0  0  0  0  0  0  0  0  0  0
  123.4939  106.2786  106.7265 S   0  0  0  0  0  0  0  0  0  0  0  0
  126.0693  104.6421  108.8289 H   0  0  0  0  0  0  0  0  0  0  0  0
  124.9727  105.9553  109.2265 H   0  0  0  0  0  0  0  0  0  0  0  0
  127.2366  106.7575  108.5191 H   0  0  0  0  0  0  0  0  0  0  0  0
  126.9859  105.9929  106.9480 H   0  0  0  0  0  0  0  0  0  0  0  0
  124.9908  104.4794  106.5471 H   0  0  0  0  0  0  0  0  0  0  0  0
  123.8121  104.2381  107.8529 H   0  0  0  0  0  0  0  0  0  0  0  0
  124.1570  108.3848  105.9403 H   0  0  0  0  0  0  0  0  0  0  0  0
  125.1552  107.0635  105.2848 H   0  0  0  0  0  0  0  0  0  0  0  0
  126.1115  108.9427  109.0071 H   0  0  0  0  0  0  0  0  0  0  0  0
  124.5420  108.1068  108.9531 H   0  0  0  0  0  0  0  0  0  0  0  0
  125.0552  110.2530  107.0015 H   0  0  0  0  0  0  0  0  0  0  0  0
  123.9946  110.3529  108.3867 H   0  0  0  0  0  0  0  0  0  0  0  0
  127.1223  107.9696  105.8441 H   0  0  0  0  0  0  0  0  0  0  0  0
  1  2  1  0  0  0  0
  1  3  1  0  0  0  0
  2  5  1  0  0  0  0
  3 11  1  0  0  0  0
  4  5  1  0  0  0  0
  4 11  1  0  0  0  0
  5  6  1  0  0  0  0
  5 10  1  0  0  0  0
  6  7  1  0  0  0  0
  8 11  2  0  0  0  0
  9 11  2  0  0  0  0
  1 12  1  0  0  0  0
  1 13  1  0  0  0  0
  2 14  1  0  0  0  0
  2 15  1  0  0  0  0
  3 16  1  0  0  0  0
  3 17  1  0  0  0  0
  4 18  1  0  0  0  0
  4 19  1  0  0  0  0
  6 20  1  0  0  0  0
  6 21  1  0  0  0  0
  7 22  1  0  0  0  0
  7 23  1  0  0  0  0
 10 24  1  0  0  0  0
M  END
> <FRED Chemgauss4 score>
-7.401044

$$$$
C53129455	P79683186
  -OEChem-05122015313D

 27 28  0     1  0  0  0  0  0999 V2000
  119.1814  106.1117  105.9971 C   0  0  0  0  0  0  0  0  0  0  0  0
  118.4798  106.9366  103.8496 C   0  0  0  0  0  0  0  0  0  0  0  0
  117.9473  106.5031  106.4905 C   0  0  0  0  0  0  0  0  0  0  0  0
  117.2770  107.2909  104.4391 C   0  0  0  0  0  0  0  0  0  0  0  0
  119.4449  106.3362  104.6505 C   0  0  0  0  0  0  0  0  0  0  0  0
  121.9199  106.0489  105.0334 C   0  0  0  0  0  0  0  0  0  0  0  0
  123.2285  105.6028  106.5723 C   0  0  0  0  0  0  0  0  0  0  0  0
  125.1706  104.1425  107.2710 C   0  0  0  0  0  0  0  0  0  0  0  0
  120.7574  105.9353  104.0676 C   0  0  0  0  0  0  0  0  0  0  0  0
  124.0090  105.0680  107.6962 C   0  0  2  0  0  0  0  0  0  0  0  0
  116.9848  107.0890  105.7435 N   0  0  0  0  0  0  0  0  0  0  0  0
  122.1628  105.1100  105.9934 N   0  0  0  0  0  0  0  0  0  0  0  0
  122.7730  107.0769  104.9972 N   0  0  0  0  0  0  0  0  0  0  0  0
  123.1847  104.3661  108.6782 N   0  0  0  0  0  0  0  0  0  0  0  0
  123.6594  106.7759  106.0389 O   0  0  0  0  0  0  0  0  0  0  0  0
  119.9135  105.6465  106.6486 H   0  0  0  0  0  0  0  0  0  0  0  0
  118.6556  107.1246  102.7960 H   0  0  0  0  0  0  0  0  0  0  0  0
  117.6930  106.3513  107.5344 H   0  0  0  0  0  0  0  0  0  0  0  0
  116.4915  107.7620  103.8575 H   0  0  0  0  0  0  0  0  0  0  0  0
  124.7895  103.3040  106.6779 H   0  0  0  0  0  0  0  0  0  0  0  0
  125.9184  104.6715  106.6695 H   0  0  0  0  0  0  0  0  0  0  0  0
  125.6916  103.7307  108.1426 H   0  0  0  0  0  0  0  0  0  0  0  0
  120.7113  104.9001  103.6854 H   0  0  0  0  0  0  0  0  0  0  0  0
  120.9815  106.5356  103.1681 H   0  0  0  0  0  0  0  0  0  0  0  0
  124.4767  105.8853  108.2883 H   0  0  0  0  0  0  0  0  0  0  0  0
  122.2785  104.7307  108.8743 H   0  0  0  0  0  0  0  0  0  0  0  0
  123.6247  103.6839  109.2560 H   0  0  0  0  0  0  0  0  0  0  0  0
  1  3  2  0  0  0  0
  1  5  1  0  0  0  0
  2  4  1  0  0  0  0
  2  5  2  0  0  0  0
  3 11  1  0  0  0  0
  4 11  2  0  0  0  0
  5  9  1  0  0  0  0
  6  9  1  0  0  0  0
  6 12  1  0  0  0  0
  6 13  2  0  0  0  0
  7 10  1  0  0  0  0
  7 12  2  0  0  0  0
  7 15  1  0  0  0  0
  8 10  1  0  0  0  0
 10 14  1  0  0  0  0
 13 15  1  0  0  0  0
  1 16  1  0  0  0  0
  2 17  1  0  0  0  0
  3 18  1  0  0  0  0
  4 19  1  0  0  0  0
  8 20  1  0  0  0  0
  8 21  1  0  0  0  0
  8 22  1  0  0  0  0
  9 23  1  0  0  0  0
  9 24  1  0  0  0  0
 10 25  1  0  0  0  0
 14 26  1  0  0  0  0
 14 27  1  0  0  0  0
M  END
> <FRED Chemgauss4 score>
-7.399168

$$$$
C42040499	P63626359
  -OEChem-05122015313D

 17 17  0     1  0  0  0  0  0999 V2000
  125.2467  105.6719  108.0221 C   0  0  0  0  0  0  0  0  0  0  0  0
  125.6482  107.8038  107.9515 C   0  0  0  0  0  0  0  0  0  0  0  0
  125.6164  103.3528  107.2133 C   0  0  0  0  0  0  0  0  0  0  0  0
  124.5977  104.3788  107.6759 C   0  0  1  0  0  0  0  0  0  0  0  0
  126.1939  105.8113  108.9021 N   0  0  0  0  0  0  0  0  0  0  0  0
  124.8631  106.8106  107.4099 N   0  0  0  0  0  0  0  0  0  0  0  0
  126.4687  107.1490  108.8795 N   0  0  0  0  0  0  0  0  0  0  0  0
  123.9277  103.9632  108.8774 N   0  0  0  0  0  0  0  0  0  0  0  0
  125.6370  108.9960  107.6859 O   0  0  0  0  0  0  0  0  0  0  0  0
  126.3838  103.1773  107.9762 H   0  0  0  0  0  0  0  0  0  0  0  0
  125.1368  102.3918  106.9992 H   0  0  0  0  0  0  0  0  0  0  0  0
  126.1250  103.6937  106.3055 H   0  0  0  0  0  0  0  0  0  0  0  0
  123.8354  104.5475  106.9075 H   0  0  0  0  0  0  0  0  0  0  0  0
  124.1476  106.9137  106.7004 H   0  0  0  0  0  0  0  0  0  0  0  0
  127.1675  107.6038  109.4531 H   0  0  0  0  0  0  0  0  0  0  0  0
  123.6757  102.9936  108.9903 H   0  0  0  0  0  0  0  0  0  0  0  0
  123.5397  104.6622  109.4915 H   0  0  0  0  0  0  0  0  0  0  0  0
  1  4  1  0  0  0  0
  1  5  2  0  0  0  0
  1  6  1  0  0  0  0
  2  6  1  0  0  0  0
  2  7  1  0  0  0  0
  2  9  2  0  0  0  0
  3  4  1  0  0  0  0
  4  8  1  0  0  0  0
  5  7  1  0  0  0  0
  3 10  1  0  0  0  0
  3 11  1  0  0  0  0
  3 12  1  0  0  0  0
  4 13  1  0  0  0  0
  6 14  1  0  0  0  0
  7 15  1  0  0  0  0
  8 16  1  0  0  0  0
  8 17  1  0  0  0  0
M  END
> <FRED Chemgauss4 score>
-7.393075

$$$$
C78677401	P122772478
  -OEChem-05122015313D

 19 19  0     1  0  0  0  0  0999 V2000
  123.2242  109.3314  109.3434 C   0  0  0  0  0  0  0  0  0  0  0  0
  122.7766  108.0358  109.2075 C   0  0  0  0  0  0  0  0  0  0  0  0
  125.3467  108.6519  108.8310 C   0  0  0  0  0  0  0  0  0  0  0  0
  124.8994  107.3561  108.6958 C   0  0  0  0  0  0  0  0  0  0  0  0
  125.1324  104.1802  107.0846 C   0  0  0  0  0  0  0  0  0  0  0  0
  125.1709  104.9062  108.2085 C   0  0  0  0  0  0  0  0  0  0  0  0
  125.8649  106.2412  108.3267 C   0  0  2  0  0  0  0  0  0  0  0  0
  124.5173  109.6628  109.1575 N   0  0  0  0  0  0  0  0  0  0  0  0
  123.6062  107.0249  108.8813 N   0  0  0  0  0  0  0  0  0  0  0  0
  126.9925  106.1461  109.2636 N   0  0  0  0  0  0  0  0  0  0  0  0
  122.5570  110.1431  109.6057 H   0  0  0  0  0  0  0  0  0  0  0  0
  121.7373  107.7703  109.3569 H   0  0  0  0  0  0  0  0  0  0  0  0
  126.3848  108.9258  108.6830 H   0  0  0  0  0  0  0  0  0  0  0  0
  124.6146  103.2275  107.0639 H   0  0  0  0  0  0  0  0  0  0  0  0
  125.6135  104.5180  106.1735 H   0  0  0  0  0  0  0  0  0  0  0  0
  124.6680  104.5125  109.0895 H   0  0  0  0  0  0  0  0  0  0  0  0
  126.3093  106.4834  107.3522 H   0  0  0  0  0  0  0  0  0  0  0  0
  127.3355  106.9901  109.6582 H   0  0  0  0  0  0  0  0  0  0  0  0
  127.4864  105.2857  109.3033 H   0  0  0  0  0  0  0  0  0  0  0  0
  1  2  2  0  0  0  0
  1  8  1  0  0  0  0
  2  9  1  0  0  0  0
  3  4  1  0  0  0  0
  3  8  2  0  0  0  0
  4  7  1  0  0  0  0
  4  9  2  0  0  0  0
  5  6  2  0  0  0  0
  6  7  1  0  0  0  0
  7 10  1  0  0  0  0
  1 11  1  0  0  0  0
  2 12  1  0  0  0  0
  3 13  1  0  0  0  0
  5 14  1  0  0  0  0
  5 15  1  0  0  0  0
  6 16  1  0  0  0  0
  7 17  1  0  0  0  0
 10 18  1  0  0  0  0
 10 19  1  0  0  0  0
M  END
> <FRED Chemgauss4 score>
-7.391485

$$$$
C38433750	P58145099
  -OEChem-05122015313D

 22 22  0     1  0  0  0  0  0999 V2000
  123.7790  106.5730  108.1349 C   0  0  0  0  0  0  0  0  0  0  0  0
  125.0077  108.7037  108.0404 C   0  0  0  0  0  0  0  0  0  0  0  0
  125.1249  105.9408  108.5106 C   0  0  2  0  0  0  0  0  0  0  0  0
  125.8909  107.9073  107.0828 C   0  0  2  0  0  0  0  0  0  0  0  0
  126.2851  106.5602  107.7029 C   0  0  1  0  0  0  0  0  0  0  0  0
  125.0848  104.4237  108.3206 C   0  0  0  0  0  0  0  0  0  0  0  0
  123.7497  108.0216  108.3543 N   0  0  0  0  0  0  0  0  0  0  0  0
  127.0571  108.6462  106.7409 O   0  0  0  0  0  0  0  0  0  0  0  0
  127.3830  106.7293  108.6041 O   0  0  0  0  0  0  0  0  0  0  0  0
  124.7925  104.1727  107.0238 F   0  0  0  0  0  0  0  0  0  0  0  0
  123.5291  106.3555  107.0845 H   0  0  0  0  0  0  0  0  0  0  0  0
  122.9814  106.1192  108.7412 H   0  0  0  0  0  0  0  0  0  0  0  0
  125.5464  108.8636  108.9879 H   0  0  0  0  0  0  0  0  0  0  0  0
  124.7954  109.7017  107.6223 H   0  0  0  0  0  0  0  0  0  0  0  0
  125.3185  106.1115  109.5877 H   0  0  0  0  0  0  0  0  0  0  0  0
  125.3481  107.7234  106.1373 H   0  0  0  0  0  0  0  0  0  0  0  0
  126.6006  105.8641  106.9281 H   0  0  0  0  0  0  0  0  0  0  0  0
  124.3139  103.9858  108.9482 H   0  0  0  0  0  0  0  0  0  0  0  0
  126.0523  103.9894  108.5555 H   0  0  0  0  0  0  0  0  0  0  0  0
  122.9954  108.4309  107.7856 H   0  0  0  0  0  0  0  0  0  0  0  0
  126.7493  109.4617  106.3179 H   0  0  0  0  0  0  0  0  0  0  0  0
  127.6056  105.8465  108.9393 H   0  0  0  0  0  0  0  0  0  0  0  0
  1  3  1  0  0  0  0
  1  7  1  0  0  0  0
  2  4  1  0  0  0  0
  2  7  1  0  0  0  0
  3  5  1  0  0  0  0
  3  6  1  0  0  0  0
  4  5  1  0  0  0  0
  4  8  1  0  0  0  0
  5  9  1  0  0  0  0
  6 10  1  0  0  0  0
  1 11  1  0  0  0  0
  1 12  1  0  0  0  0
  2 13  1  0  0  0  0
  2 14  1  0  0  0  0
  3 15  1  0  0  0  0
  4 16  1  0  0  0  0
  5 17  1  0  0  0  0
  6 18  1  0  0  0  0
  6 19  1  0  0  0  0
  7 20  1  0  0  0  0
  8 21  1  0  0  0  0
  9 22  1  0  0  0  0
M  END
> <FRED Chemgauss4 score>
-7.383474

$$$$
C85170083	P133262211
  -OEChem-05122015313D

 29 30  0     1  0  0  0  0  0999 V2000
  125.0189  107.6822  107.0378 C   0  0  0  0  0  0  0  0  0  0  0  0
  124.7146  109.3182  108.3650 C   0  0  0  0  0  0  0  0  0  0  0  0
  124.5964  107.1223  108.2204 C   0  0  0  0  0  0  0  0  0  0  0  0
  120.7570  105.4032  107.4693 C   0  0  0  0  0  0  0  0  0  0  0  0
  121.3204  106.7462  107.8279 C   0  0  0  0  0  0  0  0  0  0  0  0
  121.9819  105.4950  108.3376 C   0  0  0  0  0  0  0  0  0  0  0  0
  123.9607  108.1316  110.4335 C   0  0  0  0  0  0  0  0  0  0  0  0
  125.6197  104.8062  108.5303 C   0  0  0  0  0  0  0  0  0  0  0  0
  124.3577  105.6779  108.6249 C   0  0  2  0  0  0  0  0  0  0  0  0
  125.0907  109.0493  107.1344 N   0  0  0  0  0  0  0  0  0  0  0  0
  124.4059  108.1826  109.0611 N   0  0  0  0  0  0  0  0  0  0  0  0
  126.6648  105.2695  109.4054 N   0  0  0  0  0  0  0  0  0  0  0  0
  123.2783  105.0854  107.8259 N   0  0  0  0  0  0  0  0  0  0  0  0
  125.2757  107.1724  106.1204 H   0  0  0  0  0  0  0  0  0  0  0  0
  124.6472  110.3046  108.8032 H   0  0  0  0  0  0  0  0  0  0  0  0
  119.8175  105.1131  107.9239 H   0  0  0  0  0  0  0  0  0  0  0  0
  120.8862  105.0562  106.4513 H   0  0  0  0  0  0  0  0  0  0  0  0
  121.8286  107.3037  107.0503 H   0  0  0  0  0  0  0  0  0  0  0  0
  120.7560  107.3585  108.5206 H   0  0  0  0  0  0  0  0  0  0  0  0
  121.8443  105.2729  109.3911 H   0  0  0  0  0  0  0  0  0  0  0  0
  122.8692  108.1934  110.4365 H   0  0  0  0  0  0  0  0  0  0  0  0
  124.2918  107.1943  110.8891 H   0  0  0  0  0  0  0  0  0  0  0  0
  124.3937  108.9706  110.9853 H   0  0  0  0  0  0  0  0  0  0  0  0
  125.3992  103.7756  108.8309 H   0  0  0  0  0  0  0  0  0  0  0  0
  126.0323  104.7744  107.5163 H   0  0  0  0  0  0  0  0  0  0  0  0
  124.0206  105.6641  109.6696 H   0  0  0  0  0  0  0  0  0  0  0  0
  127.6215  105.0435  109.1881 H   0  0  0  0  0  0  0  0  0  0  0  0
  126.4195  105.6289  110.3134 H   0  0  0  0  0  0  0  0  0  0  0  0
  123.3602  104.0736  107.8699 H   0  0  0  0  0  0  0  0  0  0  0  0
  1  3  2  0  0  0  0
  1 10  1  0  0  0  0
  2 10  2  0  0  0  0
  2 11  1  0  0  0  0
  3  9  1  0  0  0  0
  3 11  1  0  0  0  0
  4  5  1  0  0  0  0
  4  6  1  0  0  0  0
  5  6  1  0  0  0  0
  6 13  1  0  0  0  0
  7 11  1  0  0  0  0
  8  9  1  0  0  0  0
  8 12  1  0  0  0  0
  9 13  1  0  0  0  0
  1 14  1  0  0  0  0
  2 15  1  0  0  0  0
  4 16  1  0  0  0  0
  4 17  1  0  0  0  0
  5 18  1  0  0  0  0
  5 19  1  0  0  0  0
  6 20  1  0  0  0  0
  7 21  1  0  0  0  0
  7 22  1  0  0  0  0
  7 23  1  0  0  0  0
  8 24  1  0  0  0  0
  8 25  1  0  0  0  0
  9 26  1  0  0  0  0
 12 27  1  0  0  0  0
 12 28  1  0  0  0  0
 13 29  1  0  0  0  0
M  END
> <FRED Chemgauss4 score>
-7.381105

$$$$
C85798425	P134352706
  -OEChem-05122015313D

 31 31  0     1  0  0  0  0  0999 V2000
  121.9220  108.3171  107.1827 C   0  0  0  0  0  0  0  0  0  0  0  0
  122.3471  108.2919  108.4901 C   0  0  0  0  0  0  0  0  0  0  0  0
  123.9941  107.8379  107.0980 C   0  0  0  0  0  0  0  0  0  0  0  0
  124.1920  108.7608  110.6963 C   0  0  0  0  0  0  0  0  0  0  0  0
  126.5916  105.4869  108.6948 C   0  0  0  0  0  0  0  0  0  0  0  0
  125.1799  103.8770  107.6048 C   0  0  0  0  0  0  0  0  0  0  0  0
  124.5676  107.8412  109.5470 C   0  0  0  0  0  0  0  0  0  0  0  0
  125.6512  105.9782  106.5392 C   0  0  0  0  0  0  0  0  0  0  0  0
  125.3991  107.4909  106.6369 C   0  0  1  0  0  0  0  0  0  0  0  0
  122.9519  108.0334  106.3211 N   0  0  0  0  0  0  0  0  0  0  0  0
  123.6763  107.9831  108.4198 N   0  0  0  0  0  0  0  0  0  0  0  0
  125.6964  108.1234  105.3461 N   0  0  0  0  0  0  0  0  0  0  0  0
  125.4364  105.3009  107.8175 N   0  0  0  0  0  0  0  0  0  0  0  0
  120.9267  108.5251  106.8180 H   0  0  0  0  0  0  0  0  0  0  0  0
  121.8371  108.4605  109.4282 H   0  0  0  0  0  0  0  0  0  0  0  0
  124.2136  109.8109  110.3862 H   0  0  0  0  0  0  0  0  0  0  0  0
  124.8933  108.6358  111.5270 H   0  0  0  0  0  0  0  0  0  0  0  0
  123.1840  108.5423  111.0644 H   0  0  0  0  0  0  0  0  0  0  0  0
  126.7779  106.5528  108.8498 H   0  0  0  0  0  0  0  0  0  0  0  0
  127.4817  105.0352  108.2485 H   0  0  0  0  0  0  0  0  0  0  0  0
  126.4090  105.0169  109.6649 H   0  0  0  0  0  0  0  0  0  0  0  0
  124.3158  103.7447  106.9486 H   0  0  0  0  0  0  0  0  0  0  0  0
  124.9763  103.3830  108.5588 H   0  0  0  0  0  0  0  0  0  0  0  0
  126.0490  103.4014  107.1424 H   0  0  0  0  0  0  0  0  0  0  0  0
  124.5432  106.7934  109.8668 H   0  0  0  0  0  0  0  0  0  0  0  0
  125.5858  108.0519  109.2007 H   0  0  0  0  0  0  0  0  0  0  0  0
  124.9587  105.5177  105.8253 H   0  0  0  0  0  0  0  0  0  0  0  0
  126.6695  105.7431  106.2116 H   0  0  0  0  0  0  0  0  0  0  0  0
  126.1115  107.9035  107.3632 H   0  0  0  0  0  0  0  0  0  0  0  0
  126.4274  107.7330  104.7983 H   0  0  0  0  0  0  0  0  0  0  0  0
  125.3040  109.0189  105.1698 H   0  0  0  0  0  0  0  0  0  0  0  0
  1  2  2  0  0  0  0
  1 10  1  0  0  0  0
  2 11  1  0  0  0  0
  3  9  1  0  0  0  0
  3 10  2  0  0  0  0
  3 11  1  0  0  0  0
  4  7  1  0  0  0  0
  5 13  1  0  0  0  0
  6 13  1  0  0  0  0
  7 11  1  0  0  0  0
  8  9  1  0  0  0  0
  8 13  1  0  0  0  0
  9 12  1  0  0  0  0
  1 14  1  0  0  0  0
  2 15  1  0  0  0  0
  4 16  1  0  0  0  0
  4 17  1  0  0  0  0
  4 18  1  0  0  0  0
  5 19  1  0  0  0  0
  5 20  1  0  0  0  0
  5 21  1  0  0  0  0
  6 22  1  0  0  0  0
  6 23  1  0  0  0  0
  6 24  1  0  0  0  0
  7 25  1  0  0  0  0
  7 26  1  0  0  0  0
  8 27  1  0  0  0  0
  8 28  1  0  0  0  0
  9 29  1  0  0  0  0
 12 30  1  0  0  0  0
 12 31  1  0  0  0  0
M  END
> <FRED Chemgauss4 score>
-7.378377

$$$$
C87971498	P137595737
  -OEChem-05122015313D

 27 27  0     1  0  0  0  0  0999 V2000
  125.4349  105.5070  107.2160 C   0  0  0  0  0  0  0  0  0  0  0  0
  125.3606  106.3101  108.5141 C   0  0  0  0  0  0  0  0  0  0  0  0
  124.2275  105.9281  106.3857 C   0  0  0  0  0  0  0  0  0  0  0  0
  125.1512  107.7669  108.0890 C   0  0  2  0  0  0  0  0  0  0  0  0
  124.6503  108.6527  109.2126 C   0  0  0  0  0  0  0  0  0  0  0  0
  123.1697  108.7785  111.0974 C   0  0  0  0  0  0  0  0  0  0  0  0
  124.1794  108.7812  112.2306 C   0  0  0  0  0  0  0  0  0  0  0  0
  123.6745  107.9586  109.9904 N   0  0  0  0  0  0  0  0  0  0  0  0
  122.6575  107.8859  107.1652 O   0  0  0  0  0  0  0  0  0  0  0  0
  124.5748  108.4201  105.5957 O   0  0  0  0  0  0  0  0  0  0  0  0
  123.7022  109.6055  113.2863 O   0  0  0  0  0  0  0  0  0  0  0  0
  124.0137  107.6738  106.7030 S   0  0  0  0  0  0  0  0  0  0  0  0
  126.3599  105.7549  106.6815 H   0  0  0  0  0  0  0  0  0  0  0  0
  125.4346  104.4290  107.4025 H   0  0  0  0  0  0  0  0  0  0  0  0
  124.5166  105.9545  109.1180 H   0  0  0  0  0  0  0  0  0  0  0  0
  126.2722  106.1956  109.1089 H   0  0  0  0  0  0  0  0  0  0  0  0
  124.3760  105.7604  105.3171 H   0  0  0  0  0  0  0  0  0  0  0  0
  123.3228  105.4142  106.7233 H   0  0  0  0  0  0  0  0  0  0  0  0
  126.0907  108.1669  107.6890 H   0  0  0  0  0  0  0  0  0  0  0  0
  124.1947  109.5433  108.7908 H   0  0  0  0  0  0  0  0  0  0  0  0
  125.4804  108.9278  109.8554 H   0  0  0  0  0  0  0  0  0  0  0  0
  122.2102  108.3635  111.4218 H   0  0  0  0  0  0  0  0  0  0  0  0
  123.0127  109.7952  110.7248 H   0  0  0  0  0  0  0  0  0  0  0  0
  125.1314  109.1944  111.8832 H   0  0  0  0  0  0  0  0  0  0  0  0
  124.3493  107.7724  112.6207 H   0  0  0  0  0  0  0  0  0  0  0  0
  122.8710  107.6858  109.4075 H   0  0  0  0  0  0  0  0  0  0  0  0
  124.3738  109.5795  113.9866 H   0  0  0  0  0  0  0  0  0  0  0  0
  1  2  1  0  0  0  0
  1  3  1  0  0  0  0
  2  4  1  0  0  0  0
  3 12  1  0  0  0  0
  4  5  1  0  0  0  0
  4 12  1  0  0  0  0
  5  8  1  0  0  0  0
  6  7  1  0  0  0  0
  6  8  1  0  0  0  0
  7 11  1  0  0  0  0
  9 12  2  0  0  0  0
 10 12  2  0  0  0  0
  1 13  1  0  0  0  0
  1 14  1  0  0  0  0
  2 15  1  0  0  0  0
  2 16  1  0  0  0  0
  3 17  1  0  0  0  0
  3 18  1  0  0  0  0
  4 19  1  0  0  0  0
  5 20  1  0  0  0  0
  5 21  1  0  0  0  0
  6 22  1  0  0  0  0
  6 23  1  0  0  0  0
  7 24  1  0  0  0  0
  7 25  1  0  0  0  0
  8 26  1  0  0  0  0
 11 27  1  0  0  0  0
M  END
> <FRED Chemgauss4 score>
-7.375037

$$$$
C39129103	P151026861
  -OEChem-05122015313D

 23 23  0     1  0  0  0  0  0999 V2000
  124.6305  109.0834  108.4380 C   0  0  0  0  0  0  0  0  0  0  0  0
  123.7702  109.4400  110.7579 C   0  0  0  0  0  0  0  0  0  0  0  0
  126.3228  105.9130  108.7304 C   0  0  0  0  0  0  0  0  0  0  0  0
  124.4839  107.5895  108.6539 C   0  0  2  0  0  0  0  0  0  0  0  0
  123.3832  107.2408  109.6518 C   0  0  1  0  0  0  0  0  0  0  0  0
  127.6797  105.6526  109.2954 C   0  0  0  0  0  0  0  0  0  0  0  0
  124.2514  109.8723  109.5206 N   0  0  0  0  0  0  0  0  0  0  0  0
  123.4369  108.0983  110.8202 N   0  0  0  0  0  0  0  0  0  0  0  0
  122.0548  107.3708  109.0550 N   0  0  0  0  0  0  0  0  0  0  0  0
  125.7829  107.1364  109.0905 N   0  0  0  0  0  0  0  0  0  0  0  0
  125.1671  109.5451  107.4311 O   0  0  0  0  0  0  0  0  0  0  0  0
  123.6687  110.1948  111.7262 O   0  0  0  0  0  0  0  0  0  0  0  0
  125.7941  105.0701  108.0152 O   0  0  0  0  0  0  0  0  0  0  0  0
  124.3027  107.1350  107.6677 H   0  0  0  0  0  0  0  0  0  0  0  0
  123.5047  106.2064  110.0129 H   0  0  0  0  0  0  0  0  0  0  0  0
  127.6380  105.1505  110.2753 H   0  0  0  0  0  0  0  0  0  0  0  0
  128.2821  104.9894  108.6539 H   0  0  0  0  0  0  0  0  0  0  0  0
  128.3037  106.5466  109.4543 H   0  0  0  0  0  0  0  0  0  0  0  0
  124.3343  110.8787  109.3965 H   0  0  0  0  0  0  0  0  0  0  0  0
  123.2180  107.6915  111.7323 H   0  0  0  0  0  0  0  0  0  0  0  0
  121.2802  107.5470  109.6600 H   0  0  0  0  0  0  0  0  0  0  0  0
  121.9324  107.0813  108.1071 H   0  0  0  0  0  0  0  0  0  0  0  0
  126.3300  107.7472  109.6939 H   0  0  0  0  0  0  0  0  0  0  0  0
  1  4  1  0  0  0  0
  1  7  1  0  0  0  0
  1 11  2  0  0  0  0
  2  7  1  0  0  0  0
  2  8  1  0  0  0  0
  2 12  2  0  0  0  0
  3  6  1  0  0  0  0
  3 10  1  0  0  0  0
  3 13  2  0  0  0  0
  4  5  1  0  0  0  0
  4 10  1  0  0  0  0
  5  8  1  0  0  0  0
  5  9  1  0  0  0  0
  4 14  1  0  0  0  0
  5 15  1  0  0  0  0
  6 16  1  0  0  0  0
  6 17  1  0  0  0  0
  6 18  1  0  0  0  0
  7 19  1  0  0  0  0
  8 20  1  0  0  0  0
  9 21  1  0  0  0  0
  9 22  1  0  0  0  0
 10 23  1  0  0  0  0
M  END
> <FRED Chemgauss4 score>
-7.370671

$$$$
C34616736	P51361932
  -OEChem-05122015313D

 16 16  0     1  0  0  0  0  0999 V2000
  125.4392  104.9856  108.4930 C   0  0  0  0  0  0  0  0  0  0  0  0
  126.2962  107.6006  107.6392 C   0  0  0  0  0  0  0  0  0  0  0  0
  124.7325  107.2481  105.6852 C   0  0  0  0  0  0  0  0  0  0  0  0
  126.7590  105.5546  108.9560 C   0  0  0  0  0  0  0  0  0  0  0  0
  125.6783  106.6284  106.6570 C   0  0  2  0  0  0  0  0  0  0  0  0
  126.7098  106.9954  108.8147 N   0  0  0  0  0  0  0  0  0  0  0  0
  124.9016  105.6581  107.4080 N   0  0  0  0  0  0  0  0  0  0  0  0
  124.9606  103.9592  108.9687 O   0  0  0  0  0  0  0  0  0  0  0  0
  126.5015  108.7826  107.3747 O   0  0  0  0  0  0  0  0  0  0  0  0
  123.5376  106.9754  105.6372 O   0  0  0  0  0  0  0  0  0  0  0  0
  125.1748  107.9839  104.9926 H   0  0  0  0  0  0  0  0  0  0  0  0
  126.9204  105.3206  110.0112 H   0  0  0  0  0  0  0  0  0  0  0  0
  127.5741  105.1590  108.3436 H   0  0  0  0  0  0  0  0  0  0  0  0
  126.4701  106.1015  106.1150 H   0  0  0  0  0  0  0  0  0  0  0  0
  126.9861  107.5780  109.5990 H   0  0  0  0  0  0  0  0  0  0  0  0
  123.9422  105.4683  107.1314 H   0  0  0  0  0  0  0  0  0  0  0  0
  1  4  1  0  0  0  0
  1  7  1  0  0  0  0
  1  8  2  0  0  0  0
  2  5  1  0  0  0  0
  2  6  1  0  0  0  0
  2  9  2  0  0  0  0
  3  5  1  0  0  0  0
  3 10  2  0  0  0  0
  4  6  1  0  0  0  0
  5  7  1  0  0  0  0
  3 11  1  0  0  0  0
  4 12  1  0  0  0  0
  4 13  1  0  0  0  0
  5 14  1  0  0  0  0
  6 15  1  0  0  0  0
  7 16  1  0  0  0  0
M  END
> <FRED Chemgauss4 score>
-7.370107

$$$$
C82774730	P129384350
  -OEChem-05122015313D

 25 25  0     0  0  0  0  0  0999 V2000
  125.8090  105.9853  106.9342 C   0  0  0  0  0  0  0  0  0  0  0  0
  124.7020  109.0155  108.8250 C   0  0  0  0  0  0  0  0  0  0  0  0
  125.3401  107.4261  107.0563 C   0  0  0  0  0  0  0  0  0  0  0  0
  123.6417  105.4738  107.9821 C   0  0  0  0  0  0  0  0  0  0  0  0
  123.8490  106.6486  108.9184 C   0  0  0  0  0  0  0  0  0  0  0  0
  125.1504  103.6157  107.2855 C   0  0  0  0  0  0  0  0  0  0  0  0
  123.9362  109.2598  110.1029 C   0  0  0  0  0  0  0  0  0  0  0  0
  124.9176  105.0424  107.4362 N   0  0  0  0  0  0  0  0  0  0  0  0
  124.6264  107.7230  108.2966 N   0  0  0  0  0  0  0  0  0  0  0  0
  122.6239  109.6896  109.7282 N   0  0  0  0  0  0  0  0  0  0  0  0
  126.8354  105.7155  106.3093 O   0  0  0  0  0  0  0  0  0  0  0  0
  125.3386  109.9381  108.3105 O   0  0  0  0  0  0  0  0  0  0  0  0
  126.2146  108.0648  107.0325 H   0  0  0  0  0  0  0  0  0  0  0  0
  124.7017  107.6369  106.2107 H   0  0  0  0  0  0  0  0  0  0  0  0
  123.1854  104.6481  108.5285 H   0  0  0  0  0  0  0  0  0  0  0  0
  123.0003  105.7488  107.1436 H   0  0  0  0  0  0  0  0  0  0  0  0
  122.8712  107.0303  109.2668 H   0  0  0  0  0  0  0  0  0  0  0  0
  124.4006  106.3383  109.8273 H   0  0  0  0  0  0  0  0  0  0  0  0
  125.7225  103.2365  108.1362 H   0  0  0  0  0  0  0  0  0  0  0  0
  125.7118  103.4191  106.3681 H   0  0  0  0  0  0  0  0  0  0  0  0
  124.1982  103.0807  107.2352 H   0  0  0  0  0  0  0  0  0  0  0  0
  124.4571  110.0272  110.6667 H   0  0  0  0  0  0  0  0  0  0  0  0
  123.9031  108.3286  110.6596 H   0  0  0  0  0  0  0  0  0  0  0  0
  122.5028  110.2584  108.9011 H   0  0  0  0  0  0  0  0  0  0  0  0
  121.8628  109.6003  110.3881 H   0  0  0  0  0  0  0  0  0  0  0  0
  1  3  1  0  0  0  0
  1  8  1  0  0  0  0
  1 11  2  0  0  0  0
  2  7  1  0  0  0  0
  2  9  1  0  0  0  0
  2 12  2  0  0  0  0
  3  9  1  0  0  0  0
  4  5  1  0  0  0  0
  4  8  1  0  0  0  0
  5  9  1  0  0  0  0
  6  8  1  0  0  0  0
  7 10  1  0  0  0  0
  3 13  1  0  0  0  0
  3 14  1  0  0  0  0
  4 15  1  0  0  0  0
  4 16  1  0  0  0  0
  5 17  1  0  0  0  0
  5 18  1  0  0  0  0
  6 19  1  0  0  0  0
  6 20  1  0  0  0  0
  6 21  1  0  0  0  0
  7 22  1  0  0  0  0
  7 23  1  0  0  0  0
 10 24  1  0  0  0  0
 10 25  1  0  0  0  0
M  END
> <FRED Chemgauss4 score>
-7.367766

$$$$
C82561211	P129033962
  -OEChem-05122015313D

 28 28  0     1  0  0  0  0  0999 V2000
  123.6085  109.6959  110.2940 C   0  0  0  0  0  0  0  0  0  0  0  0
  124.7242  108.9954  108.6990 C   0  0  0  0  0  0  0  0  0  0  0  0
  122.7783  111.2743  113.7790 C   0  0  0  0  0  0  0  0  0  0  0  0
  121.4752  110.6939  111.1563 C   0  0  0  0  0  0  0  0  0  0  0  0
  123.3846  110.3137  112.7633 C   0  0  0  0  0  0  0  0  0  0  0  0
  124.8654  108.1281  106.3225 C   0  0  0  0  0  0  0  0  0  0  0  0
  123.0006  110.6500  111.3078 C   0  0  1  0  0  0  0  0  0  0  0  0
  125.5925  108.7511  107.5394 C   0  0  2  0  0  0  0  0  0  0  0  0
  124.4613  110.1193  109.3166 N   0  0  0  0  0  0  0  0  0  0  0  0
  123.3412  108.3866  110.3047 N   0  0  0  0  0  0  0  0  0  0  0  0
  126.7367  107.8957  107.8578 N   0  0  0  0  0  0  0  0  0  0  0  0
  124.0960  107.9113  109.2249 O   0  0  0  0  0  0  0  0  0  0  0  0
  125.6249  108.3148  105.1325 O   0  0  0  0  0  0  0  0  0  0  0  0
  121.6895  111.3002  113.6669 H   0  0  0  0  0  0  0  0  0  0  0  0
  122.9993  110.9672  114.8057 H   0  0  0  0  0  0  0  0  0  0  0  0
  123.1573  112.2907  113.6324 H   0  0  0  0  0  0  0  0  0  0  0  0
  121.0168  109.7178  111.3488 H   0  0  0  0  0  0  0  0  0  0  0  0
  121.0386  111.4108  111.8601 H   0  0  0  0  0  0  0  0  0  0  0  0
  121.1900  111.0038  110.1446 H   0  0  0  0  0  0  0  0  0  0  0  0
  124.4738  110.2999  112.8893 H   0  0  0  0  0  0  0  0  0  0  0  0
  123.0314  109.3023  113.0008 H   0  0  0  0  0  0  0  0  0  0  0  0
  124.7447  107.0496  106.4726 H   0  0  0  0  0  0  0  0  0  0  0  0
  123.8763  108.5744  106.1726 H   0  0  0  0  0  0  0  0  0  0  0  0
  123.3672  111.6641  111.0977 H   0  0  0  0  0  0  0  0  0  0  0  0
  126.0670  109.6908  107.1781 H   0  0  0  0  0  0  0  0  0  0  0  0
  127.1703  108.0095  108.7465 H   0  0  0  0  0  0  0  0  0  0  0  0
  127.1593  107.3873  107.1136 H   0  0  0  0  0  0  0  0  0  0  0  0
  125.1189  107.9052  104.4133 H   0  0  0  0  0  0  0  0  0  0  0  0
  1  7  1  0  0  0  0
  1  9  1  0  0  0  0
  1 10  2  0  0  0  0
  2  8  1  0  0  0  0
  2  9  2  0  0  0  0
  2 12  1  0  0  0  0
  3  5  1  0  0  0  0
  4  7  1  0  0  0  0
  5  7  1  0  0  0  0
  6  8  1  0  0  0  0
  6 13  1  0  0  0  0
  8 11  1  0  0  0  0
 10 12  1  0  0  0  0
  3 14  1  0  0  0  0
  3 15  1  0  0  0  0
  3 16  1  0  0  0  0
  4 17  1  0  0  0  0
  4 18  1  0  0  0  0
  4 19  1  0  0  0  0
  5 20  1  0  0  0  0
  5 21  1  0  0  0  0
  6 22  1  0  0  0  0
  6 23  1  0  0  0  0
  7 24  1  0  0  0  0
  8 25  1  0  0  0  0
 11 26  1  0  0  0  0
 11 27  1  0  0  0  0
 13 28  1  0  0  0  0
M  END
> <FRED Chemgauss4 score>
-7.365973

$$$$
C39065565	P59186052
  -OEChem-05122015313D

 20 20  0     1  0  0  0  0  0999 V2000
  124.5425  106.6635  108.5632 C   0  0  0  0  0  0  0  0  0  0  0  0
  126.8711  106.8884  107.5901 C   0  0  0  0  0  0  0  0  0  0  0  0
  123.8705  104.4610  107.6759 C   0  0  0  0  0  0  0  0  0  0  0  0
  125.3063  104.3059  107.2271 C   0  0  0  0  0  0  0  0  0  0  0  0
  125.9835  106.1559  108.5524 C   0  0  2  0  0  0  0  0  0  0  0  0
  123.5905  105.8352  108.0260 N   0  0  0  0  0  0  0  0  0  0  0  0
  128.3561  108.7397  107.4169 N   0  0  0  0  0  0  0  0  0  0  0  0
  127.4840  107.9819  108.1711 N   0  0  0  0  0  0  0  0  0  0  0  0
  127.0241  106.5038  106.4330 O   0  0  0  0  0  0  0  0  0  0  0  0
  126.1611  104.7786  108.2667 O   0  0  0  0  0  0  0  0  0  0  0  0
  124.1443  108.1748  109.1686 S   0  0  0  0  0  0  0  0  0  0  0  0
  123.1703  104.1558  106.8932 H   0  0  0  0  0  0  0  0  0  0  0  0
  123.6803  103.8655  108.5752 H   0  0  0  0  0  0  0  0  0  0  0  0
  125.5373  103.2508  107.0517 H   0  0  0  0  0  0  0  0  0  0  0  0
  125.5064  104.8521  106.2982 H   0  0  0  0  0  0  0  0  0  0  0  0
  126.4117  106.3221  109.5486 H   0  0  0  0  0  0  0  0  0  0  0  0
  122.6256  106.1509  108.0131 H   0  0  0  0  0  0  0  0  0  0  0  0
  128.2628  109.7031  107.7359 H   0  0  0  0  0  0  0  0  0  0  0  0
  128.0079  108.7258  106.4592 H   0  0  0  0  0  0  0  0  0  0  0  0
  127.2954  108.2243  109.1388 H   0  0  0  0  0  0  0  0  0  0  0  0
  1  5  1  0  0  0  0
  1  6  1  0  0  0  0
  1 11  2  0  0  0  0
  2  5  1  0  0  0  0
  2  8  1  0  0  0  0
  2  9  2  0  0  0  0
  3  4  1  0  0  0  0
  3  6  1  0  0  0  0
  4 10  1  0  0  0  0
  5 10  1  0  0  0  0
  7  8  1  0  0  0  0
  3 12  1  0  0  0  0
  3 13  1  0  0  0  0
  4 14  1  0  0  0  0
  4 15  1  0  0  0  0
  5 16  1  0  0  0  0
  6 17  1  0  0  0  0
  7 18  1  0  0  0  0
  7 19  1  0  0  0  0
  8 20  1  0  0  0  0
M  END
> <FRED Chemgauss4 score>
-7.361432

$$$$
C85170154	P133262288
  -OEChem-05122015313D

 29 29  0     1  0  0  0  0  0999 V2000
  123.7433  106.7361  106.3019 C   0  0  0  0  0  0  0  0  0  0  0  0
  122.7350  104.9092  106.7218 C   0  0  0  0  0  0  0  0  0  0  0  0
  124.3869  106.2037  107.3940 C   0  0  0  0  0  0  0  0  0  0  0  0
  124.0188  104.0910  108.7060 C   0  0  0  0  0  0  0  0  0  0  0  0
  124.3415  108.6350  108.9395 C   0  0  0  0  0  0  0  0  0  0  0  0
  126.5633  107.5380  107.3975 C   0  0  0  0  0  0  0  0  0  0  0  0
  123.8727  109.4173  110.1527 C   0  0  0  0  0  0  0  0  0  0  0  0
  125.5649  106.7017  108.2133 C   0  0  1  0  0  0  0  0  0  0  0  0
  122.7157  105.9256  105.8884 N   0  0  0  0  0  0  0  0  0  0  0  0
  123.7296  105.0338  107.6516 N   0  0  0  0  0  0  0  0  0  0  0  0
  127.4308  106.7152  106.5956 N   0  0  0  0  0  0  0  0  0  0  0  0
  125.1050  107.4771  109.3716 N   0  0  0  0  0  0  0  0  0  0  0  0
  123.1565  110.5686  109.7243 O   0  0  0  0  0  0  0  0  0  0  0  0
  123.9657  107.6616  105.7905 H   0  0  0  0  0  0  0  0  0  0  0  0
  122.0611  104.0635  106.7015 H   0  0  0  0  0  0  0  0  0  0  0  0
  124.7399  103.3651  108.3210 H   0  0  0  0  0  0  0  0  0  0  0  0
  124.4342  104.6230  109.5664 H   0  0  0  0  0  0  0  0  0  0  0  0
  123.0942  103.5903  109.0068 H   0  0  0  0  0  0  0  0  0  0  0  0
  123.4942  108.2836  108.3422 H   0  0  0  0  0  0  0  0  0  0  0  0
  124.9888  109.2559  108.3127 H   0  0  0  0  0  0  0  0  0  0  0  0
  126.0338  108.1987  106.7016 H   0  0  0  0  0  0  0  0  0  0  0  0
  127.2003  108.1653  108.0302 H   0  0  0  0  0  0  0  0  0  0  0  0
  124.7344  109.7538  110.7375 H   0  0  0  0  0  0  0  0  0  0  0  0
  123.2202  108.8147  110.7928 H   0  0  0  0  0  0  0  0  0  0  0  0
  126.1022  105.8299  108.6090 H   0  0  0  0  0  0  0  0  0  0  0  0
  128.3286  107.0760  106.3174 H   0  0  0  0  0  0  0  0  0  0  0  0
  127.0559  105.8891  106.1586 H   0  0  0  0  0  0  0  0  0  0  0  0
  124.5230  106.8796  109.9517 H   0  0  0  0  0  0  0  0  0  0  0  0
  122.8762  111.0378  110.5264 H   0  0  0  0  0  0  0  0  0  0  0  0
  1  3  2  0  0  0  0
  1  9  1  0  0  0  0
  2  9  2  0  0  0  0
  2 10  1  0  0  0  0
  3  8  1  0  0  0  0
  3 10  1  0  0  0  0
  4 10  1  0  0  0  0
  5  7  1  0  0  0  0
  5 12  1  0  0  0  0
  6  8  1  0  0  0  0
  6 11  1  0  0  0  0
  7 13  1  0  0  0  0
  8 12  1  0  0  0  0
  1 14  1  0  0  0  0
  2 15  1  0  0  0  0
  4 16  1  0  0  0  0
  4 17  1  0  0  0  0
  4 18  1  0  0  0  0
  5 19  1  0  0  0  0
  5 20  1  0  0  0  0
  6 21  1  0  0  0  0
  6 22  1  0  0  0  0
  7 23  1  0  0  0  0
  7 24  1  0  0  0  0
  8 25  1  0  0  0  0
 11 26  1  0  0  0  0
 11 27  1  0  0  0  0
 12 28  1  0  0  0  0
 13 29  1  0  0  0  0
M  END
> <FRED Chemgauss4 score>
-7.361054

$$$$
C63065427	P96833789
  -OEChem-05122015313D

 25 25  0     1  0  0  0  0  0999 V2000
  122.6770  108.7532  111.1221 C   0  0  0  0  0  0  0  0  0  0  0  0
  122.8402  107.5748  110.4228 C   0  0  0  0  0  0  0  0  0  0  0  0
  123.3050  109.8582  110.5847 C   0  0  0  0  0  0  0  0  0  0  0  0
  124.1221  108.6191  108.8630 C   0  0  0  0  0  0  0  0  0  0  0  0
  123.1862  111.1774  111.2710 C   0  0  0  0  0  0  0  0  0  0  0  0
  126.1402  107.5867  107.7097 C   0  0  0  0  0  0  0  0  0  0  0  0
  124.0692  108.1313  106.3855 C   0  0  0  0  0  0  0  0  0  0  0  0
  124.9430  108.5429  107.5815 C   0  0  1  0  0  0  0  0  0  0  0  0
  123.5587  107.4713  109.2855 N   0  0  0  0  0  0  0  0  0  0  0  0
  124.0384  109.8270  109.4526 N   0  0  0  0  0  0  0  0  0  0  0  0
  127.0252  108.0148  108.8197 N   0  0  0  0  0  0  0  0  0  0  0  0
  124.7013  108.5252  105.1724 O   0  0  0  0  0  0  0  0  0  0  0  0
  122.0925  108.7970  112.0320 H   0  0  0  0  0  0  0  0  0  0  0  0
  122.3840  106.6527  110.7681 H   0  0  0  0  0  0  0  0  0  0  0  0
  123.9980  111.3040  111.9975 H   0  0  0  0  0  0  0  0  0  0  0  0
  123.2299  112.0055  110.5520 H   0  0  0  0  0  0  0  0  0  0  0  0
  122.2284  111.2659  111.8000 H   0  0  0  0  0  0  0  0  0  0  0  0
  126.7315  107.5304  106.7900 H   0  0  0  0  0  0  0  0  0  0  0  0
  125.7913  106.5741  107.9428 H   0  0  0  0  0  0  0  0  0  0  0  0
  123.8921  107.0511  106.3529 H   0  0  0  0  0  0  0  0  0  0  0  0
  123.0988  108.6374  106.4308 H   0  0  0  0  0  0  0  0  0  0  0  0
  125.3318  109.5497  107.3718 H   0  0  0  0  0  0  0  0  0  0  0  0
  127.1829  108.9838  108.9169 H   0  0  0  0  0  0  0  0  0  0  0  0
  127.5595  107.3125  109.2611 H   0  0  0  0  0  0  0  0  0  0  0  0
  124.1161  108.2458  104.4507 H   0  0  0  0  0  0  0  0  0  0  0  0
  1  2  2  0  0  0  0
  1  3  1  0  0  0  0
  2  9  1  0  0  0  0
  3  5  1  0  0  0  0
  3 10  2  0  0  0  0
  4  8  1  0  0  0  0
  4  9  2  0  0  0  0
  4 10  1  0  0  0  0
  6  8  1  0  0  0  0
  6 11  1  0  0  0  0
  7  8  1  0  0  0  0
  7 12  1  0  0  0  0
  1 13  1  0  0  0  0
  2 14  1  0  0  0  0
  5 15  1  0  0  0  0
  5 16  1  0  0  0  0
  5 17  1  0  0  0  0
  6 18  1  0  0  0  0
  6 19  1  0  0  0  0
  7 20  1  0  0  0  0
  7 21  1  0  0  0  0
  8 22  1  0  0  0  0
 11 23  1  0  0  0  0
 11 24  1  0  0  0  0
 12 25  1  0  0  0  0
M  END
> <FRED Chemgauss4 score>
-7.360507

$$$$
C00895050	P05571510
  -OEChem-05122015313D

 20 20  0     1  0  0  0  0  0999 V2000
  125.6085  109.2439  108.2008 C   0  0  2  0  0  0  0  0  0  0  0  0
  126.2731  108.1688  107.3645 C   0  0  1  0  0  0  0  0  0  0  0  0
  124.2436  108.6292  108.4643 C   0  0  2  0  0  0  0  0  0  0  0  0
  125.7814  106.9074  108.0594 C   0  0  2  0  0  0  0  0  0  0  0  0
  123.5956  109.1287  109.7434 C   0  0  0  0  0  0  0  0  0  0  0  0
  124.4618  107.2100  108.5540 O   0  0  0  0  0  0  0  0  0  0  0  0
  125.5104  110.4876  107.5402 O   0  0  0  0  0  0  0  0  0  0  0  0
  125.7654  108.2052  106.0343 O   0  0  0  0  0  0  0  0  0  0  0  0
  126.6580  106.5978  109.1362 O   0  0  0  0  0  0  0  0  0  0  0  0
  123.4395  110.5357  109.6581 O   0  0  0  0  0  0  0  0  0  0  0  0
  126.1626  109.3814  109.1377 H   0  0  0  0  0  0  0  0  0  0  0  0
  127.3613  108.2770  107.3293 H   0  0  0  0  0  0  0  0  0  0  0  0
  123.5596  108.8134  107.6260 H   0  0  0  0  0  0  0  0  0  0  0  0
  125.7191  106.0484  107.3834 H   0  0  0  0  0  0  0  0  0  0  0  0
  124.2249  108.8922  110.6044 H   0  0  0  0  0  0  0  0  0  0  0  0
  122.6134  108.6692  109.8753 H   0  0  0  0  0  0  0  0  0  0  0  0
  126.4161  110.7744  107.3267 H   0  0  0  0  0  0  0  0  0  0  0  0
  126.2204  107.5023  105.5449 H   0  0  0  0  0  0  0  0  0  0  0  0
  126.3138  105.7918  109.5530 H   0  0  0  0  0  0  0  0  0  0  0  0
  123.0240  110.8253  110.4875 H   0  0  0  0  0  0  0  0  0  0  0  0
  1  2  1  0  0  0  0
  1  3  1  0  0  0  0
  1  7  1  0  0  0  0
  2  4  1  0  0  0  0
  2  8  1  0  0  0  0
  3  5  1  0  0  0  0
  3  6  1  0  0  0  0
  4  6  1  0  0  0  0
  4  9  1  0  0  0  0
  5 10  1  0  0  0  0
  1 11  1  0  0  0  0
  2 12  1  0  0  0  0
  3 13  1  0  0  0  0
  4 14  1  0  0  0  0
  5 15  1  0  0  0  0
  5 16  1  0  0  0  0
  7 17  1  0  0  0  0
  8 18  1  0  0  0  0
  9 19  1  0  0  0  0
 10 20  1  0  0  0  0
M  END
> <FRED Chemgauss4 score>
-7.359265

$$$$
C36326126	P86577449
  -OEChem-05122015313D

 51 52  0     1  0  0  0  0  0999 V2000
  119.5607  106.6180  106.8003 C   0  0  0  0  0  0  0  0  0  0  0  0
  120.1043  107.7481  107.6759 C   0  0  0  0  0  0  0  0  0  0  0  0
  121.7508  105.3673  107.0700 C   0  0  0  0  0  0  0  0  0  0  0  0
  124.2808  107.6329  108.6975 C   0  0  0  0  0  0  0  0  0  0  0  0
  125.7950  107.7223  108.4980 C   0  0  0  0  0  0  0  0  0  0  0  0
  125.6493  105.4004  108.9856 C   0  0  0  0  0  0  0  0  0  0  0  0
  120.2185  105.2730  107.1353 C   0  0  2  0  0  0  0  0  0  0  0  0
  122.2822  106.5012  107.9603 C   0  0  2  0  0  0  0  0  0  0  0  0
  121.6360  107.8641  107.6279 C   0  0  1  0  0  0  0  0  0  0  0  0
  124.3644  105.2586  108.1517 C   0  0  2  0  0  0  0  0  0  0  0  0
  125.2502  103.2226  107.0034 C   0  0  0  0  0  0  0  0  0  0  0  0
  118.1766  104.0671  106.3214 C   0  0  0  0  0  0  0  0  0  0  0  0
  120.3409  102.8296  106.5873 C   0  0  0  0  0  0  0  0  0  0  0  0
  120.0781  104.5148  104.7497 C   0  0  0  0  0  0  0  0  0  0  0  0
  124.6708  104.5836  106.8108 C   0  0  0  0  0  0  0  0  0  0  0  0
  119.7060  104.1765  106.2030 C   0  0  0  0  0  0  0  0  0  0  0  0
  123.7384  106.5632  107.8619 N   0  0  2  0  0  0  0  0  0  0  0  0
  122.0752  108.3844  106.3280 N   0  0  0  0  0  0  0  0  0  0  0  0
  126.4595  106.4573  108.4839 O   0  0  0  0  0  0  0  0  0  0  0  0
  118.4760  106.5447  106.9463 H   0  0  0  0  0  0  0  0  0  0  0  0
  119.7146  106.8600  105.7416 H   0  0  0  0  0  0  0  0  0  0  0  0
  119.6409  108.6969  107.3780 H   0  0  0  0  0  0  0  0  0  0  0  0
  119.7965  107.5694  108.7144 H   0  0  0  0  0  0  0  0  0  0  0  0
  122.1842  104.4115  107.3932 H   0  0  0  0  0  0  0  0  0  0  0  0
  122.0698  105.5155  106.0296 H   0  0  0  0  0  0  0  0  0  0  0  0
  124.0689  107.4401  109.7545 H   0  0  0  0  0  0  0  0  0  0  0  0
  123.8399  108.5965  108.4276 H   0  0  0  0  0  0  0  0  0  0  0  0
  126.0461  108.2753  107.5638 H   0  0  0  0  0  0  0  0  0  0  0  0
  126.2422  108.3195  109.3207 H   0  0  0  0  0  0  0  0  0  0  0  0
  125.3991  105.6473  110.0227 H   0  0  0  0  0  0  0  0  0  0  0  0
  126.2305  104.4701  109.0006 H   0  0  0  0  0  0  0  0  0  0  0  0
  119.9361  104.9996  108.1611 H   0  0  0  0  0  0  0  0  0  0  0  0
  122.0350  106.2567  109.0030 H   0  0  0  0  0  0  0  0  0  0  0  0
  121.9472  108.5946  108.3856 H   0  0  0  0  0  0  0  0  0  0  0  0
  123.6431  104.6319  108.6890 H   0  0  0  0  0  0  0  0  0  0  0  0
  126.1763  103.2996  107.5851 H   0  0  0  0  0  0  0  0  0  0  0  0
  125.4913  102.7589  106.0410 H   0  0  0  0  0  0  0  0  0  0  0  0
  124.5574  102.5755  107.5518 H   0  0  0  0  0  0  0  0  0  0  0  0
  117.7786  103.2869  105.6628 H   0  0  0  0  0  0  0  0  0  0  0  0
  117.6920  105.0117  106.0498 H   0  0  0  0  0  0  0  0  0  0  0  0
  117.8778  103.8221  107.3467 H   0  0  0  0  0  0  0  0  0  0  0  0
  119.9875  102.0263  105.9311 H   0  0  0  0  0  0  0  0  0  0  0  0
  121.4327  102.8713  106.5049 H   0  0  0  0  0  0  0  0  0  0  0  0
  120.0949  102.5504  107.6180 H   0  0  0  0  0  0  0  0  0  0  0  0
  119.7202  103.7410  104.0613 H   0  0  0  0  0  0  0  0  0  0  0  0
  121.1634  104.5976  104.6230 H   0  0  0  0  0  0  0  0  0  0  0  0
  119.6328  105.4674  104.4409 H   0  0  0  0  0  0  0  0  0  0  0  0
  123.7479  104.5147  106.2321 H   0  0  0  0  0  0  0  0  0  0  0  0
  125.3710  105.2086  106.2536 H   0  0  0  0  0  0  0  0  0  0  0  0
  123.0152  108.2128  106.0551 H   0  0  0  0  0  0  0  0  0  0  0  0
  121.4912  109.0488  105.8750 H   0  0  0  0  0  0  0  0  0  0  0  0
  1  2  1  0  0  0  0
  1  7  1  0  0  0  0
  2  9  1  0  0  0  0
  3  7  1  0  0  0  0
  3  8  1  0  0  0  0
  4  5  1  0  0  0  0
  4 17  1  0  0  0  0
  5 19  1  0  0  0  0
  6 10  1  0  0  0  0
  6 19  1  0  0  0  0
  7 16  1  0  0  0  0
  8  9  1  0  0  0  0
  8 17  1  0  0  0  0
  9 18  1  0  0  0  0
 10 15  1  0  0  0  0
 10 17  1  0  0  0  0
 11 15  1  0  0  0  0
 12 16  1  0  0  0  0
 13 16  1  0  0  0  0
 14 16  1  0  0  0  0
  1 20  1  0  0  0  0
  1 21  1  0  0  0  0
  2 22  1  0  0  0  0
  2 23  1  0  0  0  0
  3 24  1  0  0  0  0
  3 25  1  0  0  0  0
  4 26  1  0  0  0  0
  4 27  1  0  0  0  0
  5 28  1  0  0  0  0
  5 29  1  0  0  0  0
  6 30  1  0  0  0  0
  6 31  1  0  0  0  0
  7 32  1  0  0  0  0
  8 33  1  0  0  0  0
  9 34  1  0  0  0  0
 10 35  1  0  0  0  0
 11 36  1  0  0  0  0
 11 37  1  0  0  0  0
 11 38  1  0  0  0  0
 12 39  1  0  0  0  0
 12 40  1  0  0  0  0
 12 41  1  0  0  0  0
 13 42  1  0  0  0  0
 13 43  1  0  0  0  0
 13 44  1  0  0  0  0
 14 45  1  0  0  0  0
 14 46  1  0  0  0  0
 14 47  1  0  0  0  0
 15 48  1  0  0  0  0
 15 49  1  0  0  0  0
 18 50  1  0  0  0  0
 18 51  1  0  0  0  0
M  END
> <FRED Chemgauss4 score>
-7.356219

$$$$
C84212117	P131816330
  -OEChem-05122015313D

 28 28  0     1  0  0  0  0  0999 V2000
  125.7610  103.0323  107.2285 C   0  0  0  0  0  0  0  0  0  0  0  0
  125.5843  104.1606  107.5988 C   0  0  0  0  0  0  0  0  0  0  0  0
  122.4901  106.1576  105.8754 C   0  0  0  0  0  0  0  0  0  0  0  0
  124.2700  108.4719  108.0947 C   0  0  0  0  0  0  0  0  0  0  0  0
  123.6255  107.1503  108.5150 C   0  0  0  0  0  0  0  0  0  0  0  0
  124.4941  107.6592  105.8365 C   0  0  0  0  0  0  0  0  0  0  0  0
  123.9382  106.2910  106.2542 C   0  0  1  0  0  0  0  0  0  0  0  0
  120.3618  105.0405  106.5118 C   0  0  0  0  0  0  0  0  0  0  0  0
  125.3739  105.5377  108.0522 C   0  0  0  0  0  0  0  0  0  0  0  0
  124.0149  108.7509  106.6848 N   0  0  0  0  0  0  0  0  0  0  0  0
  124.0326  106.0010  107.6925 N   0  0  1  0  0  0  0  0  0  0  0  0
  121.7698  105.3105  106.6958 N   0  0  0  0  0  0  0  0  0  0  0  0
  122.0581  106.7785  104.9113 O   0  0  0  0  0  0  0  0  0  0  0  0
  125.9176  102.0316  106.8994 H   0  0  0  0  0  0  0  0  0  0  0  0
  123.8982  109.2932  108.7181 H   0  0  0  0  0  0  0  0  0  0  0  0
  125.3510  108.4101  108.2537 H   0  0  0  0  0  0  0  0  0  0  0  0
  123.8538  106.9602  109.5838 H   0  0  0  0  0  0  0  0  0  0  0  0
  122.5268  107.2729  108.4577 H   0  0  0  0  0  0  0  0  0  0  0  0
  125.5934  107.6354  105.8866 H   0  0  0  0  0  0  0  0  0  0  0  0
  124.2499  107.8780  104.7835 H   0  0  0  0  0  0  0  0  0  0  0  0
  124.4901  105.4832  105.6851 H   0  0  0  0  0  0  0  0  0  0  0  0
  119.7642  105.7606  107.0767 H   0  0  0  0  0  0  0  0  0  0  0  0
  120.1214  104.0327  106.8612 H   0  0  0  0  0  0  0  0  0  0  0  0
  120.0974  105.1169  105.4537 H   0  0  0  0  0  0  0  0  0  0  0  0
  126.1156  106.2041  107.6012 H   0  0  0  0  0  0  0  0  0  0  0  0
  125.4959  105.5981  109.1384 H   0  0  0  0  0  0  0  0  0  0  0  0
  123.0078  108.8774  106.5381 H   0  0  0  0  0  0  0  0  0  0  0  0
  122.2528  104.8559  107.4648 H   0  0  0  0  0  0  0  0  0  0  0  0
  1  2  3  0  0  0  0
  2  9  1  0  0  0  0
  3  7  1  0  0  0  0
  3 12  1  0  0  0  0
  3 13  2  0  0  0  0
  4  5  1  0  0  0  0
  4 10  1  0  0  0  0
  5 11  1  0  0  0  0
  6  7  1  0  0  0  0
  6 10  1  0  0  0  0
  7 11  1  0  0  0  0
  8 12  1  0  0  0  0
  9 11  1  0  0  0  0
  1 14  1  0  0  0  0
  4 15  1  0  0  0  0
  4 16  1  0  0  0  0
  5 17  1  0  0  0  0
  5 18  1  0  0  0  0
  6 19  1  0  0  0  0
  6 20  1  0  0  0  0
  7 21  1  0  0  0  0
  8 22  1  0  0  0  0
  8 23  1  0  0  0  0
  8 24  1  0  0  0  0
  9 25  1  0  0  0  0
  9 26  1  0  0  0  0
 10 27  1  0  0  0  0
 12 28  1  0  0  0  0
M  END
> <FRED Chemgauss4 score>
-7.355986

$$$$
C37677234	P56041032
  -OEChem-05122015313D

 24 24  0     1  0  0  0  0  0999 V2000
  121.7345  105.7753  105.0428 C   0  0  0  0  0  0  0  0  0  0  0  0
  122.5144  105.5192  107.0828 C   0  0  0  0  0  0  0  0  0  0  0  0
  121.6614  104.9412  106.1745 C   0  0  0  0  0  0  0  0  0  0  0  0
  120.8520  103.7248  106.3489 C   0  0  0  0  0  0  0  0  0  0  0  0
  123.9873  107.5685  107.0321 C   0  0  0  0  0  0  0  0  0  0  0  0
  126.4784  107.9618  107.4062 C   0  0  0  0  0  0  0  0  0  0  0  0
  125.4079  107.3475  106.4977 C   0  0  2  0  0  0  0  0  0  0  0  0
  122.5680  106.8049  105.2141 N   0  0  0  0  0  0  0  0  0  0  0  0
  123.0263  106.6216  106.4641 N   0  0  0  0  0  0  0  0  0  0  0  0
  126.3335  109.4064  107.5255 N   0  0  0  0  0  0  0  0  0  0  0  0
  125.5054  107.9734  105.2161 O   0  0  0  0  0  0  0  0  0  0  0  0
  121.2156  105.6784  104.0997 H   0  0  0  0  0  0  0  0  0  0  0  0
  122.7927  105.2474  108.0920 H   0  0  0  0  0  0  0  0  0  0  0  0
  121.4048  102.8247  106.0280 H   0  0  0  0  0  0  0  0  0  0  0  0
  120.5498  103.5705  107.4006 H   0  0  0  0  0  0  0  0  0  0  0  0
  119.9122  103.7609  105.7683 H   0  0  0  0  0  0  0  0  0  0  0  0
  123.6295  108.5777  106.7941 H   0  0  0  0  0  0  0  0  0  0  0  0
  123.9361  107.4464  108.1201 H   0  0  0  0  0  0  0  0  0  0  0  0
  126.4201  107.5087  108.4030 H   0  0  0  0  0  0  0  0  0  0  0  0
  127.4771  107.7230  107.0221 H   0  0  0  0  0  0  0  0  0  0  0  0
  125.6038  106.2777  106.3549 H   0  0  0  0  0  0  0  0  0  0  0  0
  127.1429  109.9455  107.7529 H   0  0  0  0  0  0  0  0  0  0  0  0
  125.4113  109.7861  107.5792 H   0  0  0  0  0  0  0  0  0  0  0  0
  126.4094  107.8175  104.9055 H   0  0  0  0  0  0  0  0  0  0  0  0
  1  3  1  0  0  0  0
  1  8  2  0  0  0  0
  2  3  2  0  0  0  0
  2  9  1  0  0  0  0
  3  4  1  0  0  0  0
  5  7  1  0  0  0  0
  5  9  1  0  0  0  0
  6  7  1  0  0  0  0
  6 10  1  0  0  0  0
  7 11  1  0  0  0  0
  8  9  1  0  0  0  0
  1 12  1  0  0  0  0
  2 13  1  0  0  0  0
  4 14  1  0  0  0  0
  4 15  1  0  0  0  0
  4 16  1  0  0  0  0
  5 17  1  0  0  0  0
  5 18  1  0  0  0  0
  6 19  1  0  0  0  0
  6 20  1  0  0  0  0
  7 21  1  0  0  0  0
 10 22  1  0  0  0  0
 10 23  1  0  0  0  0
 11 24  1  0  0  0  0
M  END
> <FRED Chemgauss4 score>
-7.352689

$$$$
C72197597	P112155099
  -OEChem-05122015313D

 24 24  0     1  0  0  0  0  0999 V2000
  125.6175  106.4017  108.9799 C   0  0  0  0  0  0  0  0  0  0  0  0
  123.8331  106.9372  107.4417 C   0  0  0  0  0  0  0  0  0  0  0  0
  125.6698  105.1053  108.4680 C   0  0  0  0  0  0  0  0  0  0  0  0
  123.8853  105.6407  106.9297 C   0  0  0  0  0  0  0  0  0  0  0  0
  124.6991  107.3177  108.4668 C   0  0  0  0  0  0  0  0  0  0  0  0
  124.8037  104.7248  107.4429 C   0  0  0  0  0  0  0  0  0  0  0  0
  123.2682  109.0727  109.6013 C   0  0  0  0  0  0  0  0  0  0  0  0
  124.6426  108.7040  109.0135 C   0  0  2  0  0  0  0  0  0  0  0  0
  124.8614  103.3389  106.8949 C   0  0  0  0  0  0  0  0  0  0  0  0
  125.0113  109.6962  108.0146 N   0  0  0  0  0  0  0  0  0  0  0  0
  122.3611  109.3952  108.5521 O   0  0  0  0  0  0  0  0  0  0  0  0
  123.6782  102.6964  107.0791 F   0  0  0  0  0  0  0  0  0  0  0  0
  125.8038  102.6030  107.5408 F   0  0  0  0  0  0  0  0  0  0  0  0
  126.2957  106.6893  109.7790 H   0  0  0  0  0  0  0  0  0  0  0  0
  123.1152  107.6449  107.0353 H   0  0  0  0  0  0  0  0  0  0  0  0
  126.3895  104.3988  108.8727 H   0  0  0  0  0  0  0  0  0  0  0  0
  123.2068  105.3525  106.1312 H   0  0  0  0  0  0  0  0  0  0  0  0
  122.8486  108.2241  110.1527 H   0  0  0  0  0  0  0  0  0  0  0  0
  123.3326  109.9328  110.2766 H   0  0  0  0  0  0  0  0  0  0  0  0
  125.3923  108.8352  109.8145 H   0  0  0  0  0  0  0  0  0  0  0  0
  125.0923  103.3191  105.8282 H   0  0  0  0  0  0  0  0  0  0  0  0
  125.7286  109.4644  107.3586 H   0  0  0  0  0  0  0  0  0  0  0  0
  124.6910  110.6347  108.1381 H   0  0  0  0  0  0  0  0  0  0  0  0
  121.5166  109.6184  108.9742 H   0  0  0  0  0  0  0  0  0  0  0  0
  1  3  1  0  0  0  0
  1  5  2  0  0  0  0
  2  4  2  0  0  0  0
  2  5  1  0  0  0  0
  3  6  2  0  0  0  0
  4  6  1  0  0  0  0
  5  8  1  0  0  0  0
  6  9  1  0  0  0  0
  7  8  1  0  0  0  0
  7 11  1  0  0  0  0
  8 10  1  0  0  0  0
  9 12  1  0  0  0  0
  9 13  1  0  0  0  0
  1 14  1  0  0  0  0
  2 15  1  0  0  0  0
  3 16  1  0  0  0  0
  4 17  1  0  0  0  0
  7 18  1  0  0  0  0
  7 19  1  0  0  0  0
  8 20  1  0  0  0  0
  9 21  1  0  0  0  0
 10 22  1  0  0  0  0
 10 23  1  0  0  0  0
 11 24  1  0  0  0  0
M  END
> <FRED Chemgauss4 score>
-7.352546

$$$$
C82707466	P129264205
  -OEChem-05122015313D

 21 21  0     0  0  0  0  0  0999 V2000
  123.8260  105.2637  107.2563 C   0  0  0  0  0  0  0  0  0  0  0  0
  125.0529  104.7104  107.5575 C   0  0  0  0  0  0  0  0  0  0  0  0
  124.6637  106.9286  108.4123 C   0  0  0  0  0  0  0  0  0  0  0  0
  122.7517  104.6208  106.4721 C   0  0  0  0  0  0  0  0  0  0  0  0
  125.6148  103.3916  107.2025 C   0  0  0  0  0  0  0  0  0  0  0  0
  124.7948  108.2599  109.0939 C   0  0  0  0  0  0  0  0  0  0  0  0
  123.6009  106.5355  107.7459 N   0  0  0  0  0  0  0  0  0  0  0  0
  126.4137  109.3448  107.8023 N   0  0  0  0  0  0  0  0  0  0  0  0
  125.0273  109.3384  108.1433 N   0  0  0  0  0  0  0  0  0  0  0  0
  125.9709  105.8194  108.4897 S   0  0  0  0  0  0  0  0  0  0  0  0
  122.0720  104.0501  107.1251 H   0  0  0  0  0  0  0  0  0  0  0  0
  122.1462  105.3587  105.9195 H   0  0  0  0  0  0  0  0  0  0  0  0
  123.1528  103.9262  105.7150 H   0  0  0  0  0  0  0  0  0  0  0  0
  126.1575  103.4367  106.2445 H   0  0  0  0  0  0  0  0  0  0  0  0
  126.3167  103.0218  107.9690 H   0  0  0  0  0  0  0  0  0  0  0  0
  124.8313  102.6206  107.1087 H   0  0  0  0  0  0  0  0  0  0  0  0
  123.8853  108.4967  109.6568 H   0  0  0  0  0  0  0  0  0  0  0  0
  125.6265  108.2564  109.8063 H   0  0  0  0  0  0  0  0  0  0  0  0
  126.8788  108.5586  108.2553 H   0  0  0  0  0  0  0  0  0  0  0  0
  126.5060  109.1830  106.8002 H   0  0  0  0  0  0  0  0  0  0  0  0
  124.7843  110.2301  108.5734 H   0  0  0  0  0  0  0  0  0  0  0  0
  1  2  2  0  0  0  0
  1  4  1  0  0  0  0
  1  7  1  0  0  0  0
  2  5  1  0  0  0  0
  2 10  1  0  0  0  0
  3  6  1  0  0  0  0
  3  7  2  0  0  0  0
  3 10  1  0  0  0  0
  6  9  1  0  0  0  0
  8  9  1  0  0  0  0
  4 11  1  0  0  0  0
  4 12  1  0  0  0  0
  4 13  1  0  0  0  0
  5 14  1  0  0  0  0
  5 15  1  0  0  0  0
  5 16  1  0  0  0  0
  6 17  1  0  0  0  0
  6 18  1  0  0  0  0
  8 19  1  0  0  0  0
  8 20  1  0  0  0  0
  9 21  1  0  0  0  0
M  END
> <FRED Chemgauss4 score>
-7.351977

$$$$
C82987538	P129754919
  -OEChem-05122015313D

 32 33  0     1  0  0  0  0  0999 V2000
  126.2551  106.1962  106.9785 C   0  0  0  0  0  0  0  0  0  0  0  0
  125.1720  108.0287  107.4605 C   0  0  0  0  0  0  0  0  0  0  0  0
  124.1942  108.9056  108.1578 C   0  0  0  0  0  0  0  0  0  0  0  0
  124.3870  106.0150  108.6736 C   0  0  0  0  0  0  0  0  0  0  0  0
  123.6267  107.0059  109.5670 C   0  0  0  0  0  0  0  0  0  0  0  0
  120.3374  108.8115  107.8335 C   0  0  0  0  0  0  0  0  0  0  0  0
  123.1343  109.9177  110.4137 C   0  0  0  0  0  0  0  0  0  0  0  0
  122.2435  108.9887  109.5772 C   0  0  1  0  0  0  0  0  0  0  0  0
  121.2147  109.7299  108.6873 C   0  0  2  0  0  0  0  0  0  0  0  0
  126.7646  107.1663  106.2496 N   0  0  0  0  0  0  0  0  0  0  0  0
  126.0794  108.3306  106.5565 N   0  0  0  0  0  0  0  0  0  0  0  0
  125.2624  106.6976  107.7494 N   0  0  0  0  0  0  0  0  0  0  0  0
  123.0966  108.1237  108.7639 N   0  0  1  0  0  0  0  0  0  0  0  0
  120.3416  110.5675  109.5165 N   0  0  0  0  0  0  0  0  0  0  0  0
  123.4748  111.0685  109.6460 O   0  0  0  0  0  0  0  0  0  0  0  0
  126.5650  105.1611  106.9819 H   0  0  0  0  0  0  0  0  0  0  0  0
  124.7178  109.4647  108.9420 H   0  0  0  0  0  0  0  0  0  0  0  0
  123.8036  109.6315  107.4330 H   0  0  0  0  0  0  0  0  0  0  0  0
  125.0214  105.3567  109.2782 H   0  0  0  0  0  0  0  0  0  0  0  0
  123.6886  105.4032  108.0936 H   0  0  0  0  0  0  0  0  0  0  0  0
  122.8097  106.4879  110.0873 H   0  0  0  0  0  0  0  0  0  0  0  0
  124.3185  107.3761  110.3332 H   0  0  0  0  0  0  0  0  0  0  0  0
  119.7649  108.1157  108.4546 H   0  0  0  0  0  0  0  0  0  0  0  0
  120.9534  108.2056  107.1586 H   0  0  0  0  0  0  0  0  0  0  0  0
  119.6318  109.3768  107.2156 H   0  0  0  0  0  0  0  0  0  0  0  0
  122.6100  110.2659  111.3089 H   0  0  0  0  0  0  0  0  0  0  0  0
  124.0615  109.4244  110.7249 H   0  0  0  0  0  0  0  0  0  0  0  0
  121.7026  108.3231  110.2629 H   0  0  0  0  0  0  0  0  0  0  0  0
  121.7602  110.3999  108.0100 H   0  0  0  0  0  0  0  0  0  0  0  0
  119.4630  110.8367  109.1378 H   0  0  0  0  0  0  0  0  0  0  0  0
  120.7387  110.9944  110.3215 H   0  0  0  0  0  0  0  0  0  0  0  0
  124.0346  111.6229  110.2117 H   0  0  0  0  0  0  0  0  0  0  0  0
  1 10  2  0  0  0  0
  1 12  1  0  0  0  0
  2  3  1  0  0  0  0
  2 11  2  0  0  0  0
  2 12  1  0  0  0  0
  3 13  1  0  0  0  0
  4  5  1  0  0  0  0
  4 12  1  0  0  0  0
  5 13  1  0  0  0  0
  6  9  1  0  0  0  0
  7  8  1  0  0  0  0
  7 15  1  0  0  0  0
  8  9  1  0  0  0  0
  8 13  1  0  0  0  0
  9 14  1  0  0  0  0
 10 11  1  0  0  0  0
  1 16  1  0  0  0  0
  3 17  1  0  0  0  0
  3 18  1  0  0  0  0
  4 19  1  0  0  0  0
  4 20  1  0  0  0  0
  5 21  1  0  0  0  0
  5 22  1  0  0  0  0
  6 23  1  0  0  0  0
  6 24  1  0  0  0  0
  6 25  1  0  0  0  0
  7 26  1  0  0  0  0
  7 27  1  0  0  0  0
  8 28  1  0  0  0  0
  9 29  1  0  0  0  0
 14 30  1  0  0  0  0
 14 31  1  0  0  0  0
 15 32  1  0  0  0  0
M  END
> <FRED Chemgauss4 score>
-7.347686

$$$$
C95627120	P150369225
  -OEChem-05122015313D

 19 19  0     1  0  0  0  0  0999 V2000
  125.2825  109.1324  108.3594 C   0  0  0  0  0  0  0  0  0  0  0  0
  124.9670  106.5914  108.2236 C   0  0  0  0  0  0  0  0  0  0  0  0
  126.8621  107.6774  107.0374 C   0  0  0  0  0  0  0  0  0  0  0  0
  124.6265  107.8937  108.9508 C   0  0  1  0  0  0  0  0  0  0  0  0
  126.4454  106.4797  107.8733 C   0  0  1  0  0  0  0  0  0  0  0  0
  126.3954  108.9449  107.5712 N   0  0  0  0  0  0  0  0  0  0  0  0
  125.0301  107.8530  110.3566 N   0  0  0  0  0  0  0  0  0  0  0  0
  124.8682  110.2594  108.6429 O   0  0  0  0  0  0  0  0  0  0  0  0
  127.2332  106.4051  109.0557 O   0  0  0  0  0  0  0  0  0  0  0  0
  124.6694  105.7095  108.8333 H   0  0  0  0  0  0  0  0  0  0  0  0
  124.3568  106.4969  107.2999 H   0  0  0  0  0  0  0  0  0  0  0  0
  127.9538  107.7417  106.9645 H   0  0  0  0  0  0  0  0  0  0  0  0
  126.4867  107.5844  106.0131 H   0  0  0  0  0  0  0  0  0  0  0  0
  123.5450  108.0708  108.9057 H   0  0  0  0  0  0  0  0  0  0  0  0
  126.6158  105.5423  107.2992 H   0  0  0  0  0  0  0  0  0  0  0  0
  126.9441  109.7709  107.3396 H   0  0  0  0  0  0  0  0  0  0  0  0
  124.9198  106.9946  110.8500 H   0  0  0  0  0  0  0  0  0  0  0  0
  125.2035  108.7186  110.8183 H   0  0  0  0  0  0  0  0  0  0  0  0
  128.1589  106.3358  108.7715 H   0  0  0  0  0  0  0  0  0  0  0  0
  1  4  1  0  0  0  0
  1  6  1  0  0  0  0
  1  8  2  0  0  0  0
  2  4  1  0  0  0  0
  2  5  1  0  0  0  0
  3  5  1  0  0  0  0
  3  6  1  0  0  0  0
  4  7  1  0  0  0  0
  5  9  1  0  0  0  0
  2 10  1  0  0  0  0
  2 11  1  0  0  0  0
  3 12  1  0  0  0  0
  3 13  1  0  0  0  0
  4 14  1  0  0  0  0
  5 15  1  0  0  0  0
  6 16  1  0  0  0  0
  7 17  1  0  0  0  0
  7 18  1  0  0  0  0
  9 19  1  0  0  0  0
M  END
> <FRED Chemgauss4 score>
-7.346280

$$$$
C98178888	P156130704
  -OEChem-05122015313D

 17 18  0     1  0  0  0  0  0999 V2000
  126.1564  105.8249  108.9269 C   0  0  0  0  0  0  0  0  0  0  0  0
  123.1144  106.5233  107.1644 C   0  0  0  0  0  0  0  0  0  0  0  0
  124.1987  108.7462  108.5563 C   0  0  0  0  0  0  0  0  0  0  0  0
  124.5511  106.5860  107.5903 C   0  0  1  0  0  0  0  0  0  0  0  0
  124.5562  107.3595  108.9116 C   0  0  1  0  0  0  0  0  0  0  0  0
  122.4662  107.6637  107.1938 N   0  0  0  0  0  0  0  0  0  0  0  0
  125.3708  105.4350  107.9338 N   0  0  0  0  0  0  0  0  0  0  0  0
  123.0950  108.7809  107.7037 N   0  0  0  0  0  0  0  0  0  0  0  0
  125.8492  106.9981  109.4598 N   0  3  0  0  0  0  0  0  0  0  0  0
  122.6699  105.4250  106.7745 O   0  5  0  0  0  0  0  0  0  0  0  0
  124.7668  109.7330  109.0100 O   0  0  0  0  0  0  0  0  0  0  0  0
  126.9831  105.2321  109.2749 H   0  0  0  0  0  0  0  0  0  0  0  0
  125.0975  107.1292  106.8028 H   0  0  0  0  0  0  0  0  0  0  0  0
  123.7942  106.9862  109.6109 H   0  0  0  0  0  0  0  0  0  0  0  0
  125.5061  104.5479  107.4633 H   0  0  0  0  0  0  0  0  0  0  0  0
  122.6574  109.6621  107.4549 H   0  0  0  0  0  0  0  0  0  0  0  0
  126.3918  107.3991  110.2157 H   0  0  0  0  0  0  0  0  0  0  0  0
  1  7  1  0  0  0  0
  1  9  2  0  0  0  0
  2  4  1  0  0  0  0
  2  6  2  0  0  0  0
  2 10  1  0  0  0  0
  3  5  1  0  0  0  0
  3  8  1  0  0  0  0
  3 11  2  0  0  0  0
  4  5  1  0  0  0  0
  4  7  1  0  0  0  0
  5  9  1  0  0  0  0
  6  8  1  0  0  0  0
  1 12  1  0  0  0  0
  4 13  1  0  0  0  0
  5 14  1  0  0  0  0
  7 15  1  0  0  0  0
  8 16  1  0  0  0  0
  9 17  1  0  0  0  0
M  CHG  2   9   1  10  -1
M  END
> <FRED Chemgauss4 score>
-7.344324

$$$$
C82469324	P128880837
  -OEChem-05122015313D

 34 34  0     1  0  0  0  0  0999 V2000
  120.8913  104.8407  103.9938 C   0  0  0  0  0  0  0  0  0  0  0  0
  122.3039  104.6339  108.1163 C   0  0  0  0  0  0  0  0  0  0  0  0
  121.0584  105.4051  107.6957 C   0  0  0  0  0  0  0  0  0  0  0  0
  122.6328  105.8720  106.0590 C   0  0  0  0  0  0  0  0  0  0  0  0
  123.3355  104.9256  107.0284 C   0  0  1  0  0  0  0  0  0  0  0  0
  119.2626  104.1879  105.7860 C   0  0  0  0  0  0  0  0  0  0  0  0
  125.5042  105.7509  106.4662 C   0  0  0  0  0  0  0  0  0  0  0  0
  125.1497  104.6022  108.5465 C   0  0  0  0  0  0  0  0  0  0  0  0
  120.7158  104.5062  105.4694 C   0  0  2  0  0  0  0  0  0  0  0  0
  121.1930  105.6465  106.2522 N   0  0  1  0  0  0  0  0  0  0  0  0
  121.3045  103.8384  101.8712 N   0  0  0  0  0  0  0  0  0  0  0  0
  121.1614  103.7117  103.2376 N   0  0  0  0  0  0  0  0  0  0  0  0
  124.5507  105.4906  107.5473 N   0  0  0  0  0  0  0  0  0  0  0  0
  120.7636  105.9789  103.5462 O   0  0  0  0  0  0  0  0  0  0  0  0
  122.6289  104.9412  109.1169 H   0  0  0  0  0  0  0  0  0  0  0  0
  122.1016  103.5566  108.1555 H   0  0  0  0  0  0  0  0  0  0  0  0
  120.1365  104.8405  107.9293 H   0  0  0  0  0  0  0  0  0  0  0  0
  121.0055  106.3581  108.2596 H   0  0  0  0  0  0  0  0  0  0  0  0
  122.8961  106.9299  106.2737 H   0  0  0  0  0  0  0  0  0  0  0  0
  122.9396  105.6773  105.0121 H   0  0  0  0  0  0  0  0  0  0  0  0
  123.5749  103.9908  106.5138 H   0  0  0  0  0  0  0  0  0  0  0  0
  118.6079  105.0283  105.5326 H   0  0  0  0  0  0  0  0  0  0  0  0
  118.9242  103.3107  105.2242 H   0  0  0  0  0  0  0  0  0  0  0  0
  119.1266  103.9729  106.8521 H   0  0  0  0  0  0  0  0  0  0  0  0
  126.4241  106.1801  106.8717 H   0  0  0  0  0  0  0  0  0  0  0  0
  125.0761  106.4530  105.7456 H   0  0  0  0  0  0  0  0  0  0  0  0
  125.7492  104.8208  105.9462 H   0  0  0  0  0  0  0  0  0  0  0  0
  126.0726  105.0412  108.9343 H   0  0  0  0  0  0  0  0  0  0  0  0
  125.3824  103.6322  108.0988 H   0  0  0  0  0  0  0  0  0  0  0  0
  124.4571  104.4473  109.3781 H   0  0  0  0  0  0  0  0  0  0  0  0
  121.3537  103.6544  105.7296 H   0  0  0  0  0  0  0  0  0  0  0  0
  121.9980  103.1498  101.5818 H   0  0  0  0  0  0  0  0  0  0  0  0
  121.7264  104.7505  101.7014 H   0  0  0  0  0  0  0  0  0  0  0  0
  121.2612  102.7882  103.6470 H   0  0  0  0  0  0  0  0  0  0  0  0
  1  9  1  0  0  0  0
  1 12  1  0  0  0  0
  1 14  2  0  0  0  0
  2  3  1  0  0  0  0
  2  5  1  0  0  0  0
  3 10  1  0  0  0  0
  4  5  1  0  0  0  0
  4 10  1  0  0  0  0
  5 13  1  0  0  0  0
  6  9  1  0  0  0  0
  7 13  1  0  0  0  0
  8 13  1  0  0  0  0
  9 10  1  0  0  0  0
 11 12  1  0  0  0  0
  2 15  1  0  0  0  0
  2 16  1  0  0  0  0
  3 17  1  0  0  0  0
  3 18  1  0  0  0  0
  4 19  1  0  0  0  0
  4 20  1  0  0  0  0
  5 21  1  0  0  0  0
  6 22  1  0  0  0  0
  6 23  1  0  0  0  0
  6 24  1  0  0  0  0
  7 25  1  0  0  0  0
  7 26  1  0  0  0  0
  7 27  1  0  0  0  0
  8 28  1  0  0  0  0
  8 29  1  0  0  0  0
  8 30  1  0  0  0  0
  9 31  1  0  0  0  0
 11 32  1  0  0  0  0
 11 33  1  0  0  0  0
 12 34  1  0  0  0  0
M  END
> <FRED Chemgauss4 score>
-7.344293

$$$$
C13542855	P133974200
  -OEChem-05122015313D

 13 13  0     1  0  0  0  0  0999 V2000
  124.4175  107.8776  108.8547 C   0  0  0  0  0  0  0  0  0  0  0  0
  123.9936  108.0097  106.7195 C   0  0  0  0  0  0  0  0  0  0  0  0
  125.2407  109.0692  108.3665 C   0  0  2  0  0  0  0  0  0  0  0  0
  123.7506  107.3160  107.8820 N   0  0  0  0  0  0  0  0  0  0  0  0
  124.8492  109.0517  106.9944 N   0  0  0  0  0  0  0  0  0  0  0  0
  126.6956  108.8384  108.4920 N   0  3  0  0  0  0  0  0  0  0  0  0
  124.4442  107.5688  110.0622 O   0  5  0  0  0  0  0  0  0  0  0  0
  123.5220  107.7501  105.6195 O   0  0  0  0  0  0  0  0  0  0  0  0
  124.9747  110.0160  108.8444 H   0  0  0  0  0  0  0  0  0  0  0  0
  125.1712  109.7170  106.2985 H   0  0  0  0  0  0  0  0  0  0  0  0
  127.0231  109.0379  109.4451 H   0  0  0  0  0  0  0  0  0  0  0  0
  127.2241  109.4404  107.8483 H   0  0  0  0  0  0  0  0  0  0  0  0
  126.9376  107.8633  108.2766 H   0  0  0  0  0  0  0  0  0  0  0  0
  1  3  1  0  0  0  0
  1  4  2  0  0  0  0
  1  7  1  0  0  0  0
  2  4  1  0  0  0  0
  2  5  1  0  0  0  0
  2  8  2  0  0  0  0
  3  5  1  0  0  0  0
  3  6  1  0  0  0  0
  3  9  1  0  0  0  0
  5 10  1  0  0  0  0
  6 11  1  0  0  0  0
  6 12  1  0  0  0  0
  6 13  1  0  0  0  0
M  CHG  2   6   1   7  -1
M  END
> <FRED Chemgauss4 score>
-7.343045

$$$$
C74309835	P115824025
  -OEChem-05122015313D

 20 20  0     1  0  0  0  0  0999 V2000
  125.9847  106.5074  107.9532 C   0  0  0  0  0  0  0  0  0  0  0  0
  126.4696  107.6807  107.3982 C   0  0  0  0  0  0  0  0  0  0  0  0
  124.7688  107.7593  105.8557 C   0  0  0  0  0  0  0  0  0  0  0  0
  124.8300  105.9579  107.4073 C   0  0  0  0  0  0  0  0  0  0  0  0
  124.2044  106.5895  106.3383 C   0  0  0  0  0  0  0  0  0  0  0  0
  122.8616  104.8374  108.5365 C   0  0  0  0  0  0  0  0  0  0  0  0
  124.2941  104.6929  107.9941 C   0  0  1  0  0  0  0  0  0  0  0  0
  125.8894  108.3231  106.3598 N   0  0  0  0  0  0  0  0  0  0  0  0
  124.3533  103.5962  107.0406 N   0  0  0  0  0  0  0  0  0  0  0  0
  122.8219  105.8512  109.5357 O   0  0  0  0  0  0  0  0  0  0  0  0
  122.7743  105.9680  105.6132 Cl  0  0  0  0  0  0  0  0  0  0  0  0
  126.4971  106.0399  108.7872 H   0  0  0  0  0  0  0  0  0  0  0  0
  127.3673  108.1497  107.7876 H   0  0  0  0  0  0  0  0  0  0  0  0
  124.3292  108.3009  105.0235 H   0  0  0  0  0  0  0  0  0  0  0  0
  122.1768  105.1352  107.7349 H   0  0  0  0  0  0  0  0  0  0  0  0
  122.4984  103.9036  108.9796 H   0  0  0  0  0  0  0  0  0  0  0  0
  124.9326  104.3556  108.8293 H   0  0  0  0  0  0  0  0  0  0  0  0
  123.7410  102.8173  107.1740 H   0  0  0  0  0  0  0  0  0  0  0  0
  125.1290  103.5557  106.4111 H   0  0  0  0  0  0  0  0  0  0  0  0
  121.9031  105.9021  109.8429 H   0  0  0  0  0  0  0  0  0  0  0  0
  1  2  1  0  0  0  0
  1  4  2  0  0  0  0
  2  8  2  0  0  0  0
  3  5  2  0  0  0  0
  3  8  1  0  0  0  0
  4  5  1  0  0  0  0
  4  7  1  0  0  0  0
  5 11  1  0  0  0  0
  6  7  1  0  0  0  0
  6 10  1  0  0  0  0
  7  9  1  0  0  0  0
  1 12  1  0  0  0  0
  2 13  1  0  0  0  0
  3 14  1  0  0  0  0
  6 15  1  0  0  0  0
  6 16  1  0  0  0  0
  7 17  1  0  0  0  0
  9 18  1  0  0  0  0
  9 19  1  0  0  0  0
 10 20  1  0  0  0  0
M  END
> <FRED Chemgauss4 score>
-7.340464

$$$$
C84991419	P133024252
  -OEChem-05122015313D

 27 27  0     1  0  0  0  0  0999 V2000
  126.1278  108.4221  107.4079 C   0  0  0  0  0  0  0  0  0  0  0  0
  126.2076  107.0556  107.5380 C   0  0  0  0  0  0  0  0  0  0  0  0
  124.8204  107.9260  109.0126 C   0  0  0  0  0  0  0  0  0  0  0  0
  124.1798  104.6255  106.8886 C   0  0  0  0  0  0  0  0  0  0  0  0
  125.1881  104.3623  107.9949 C   0  0  0  0  0  0  0  0  0  0  0  0
  125.1083  105.4284  109.0854 C   0  0  0  0  0  0  0  0  0  0  0  0
  123.8799  109.3168  110.8904 C   0  0  0  0  0  0  0  0  0  0  0  0
  123.8325  107.9748  110.1555 C   0  0  1  0  0  0  0  0  0  0  0  0
  125.2628  108.9579  108.3289 N   0  0  0  0  0  0  0  0  0  0  0  0
  125.3650  106.7526  108.5702 N   0  0  0  0  0  0  0  0  0  0  0  0
  123.3016  109.1736  112.2076 N   0  0  0  0  0  0  0  0  0  0  0  0
  122.5228  107.7583  109.6296 O   0  0  0  0  0  0  0  0  0  0  0  0
  126.6492  109.0473  106.6979 H   0  0  0  0  0  0  0  0  0  0  0  0
  126.7704  106.3020  107.0050 H   0  0  0  0  0  0  0  0  0  0  0  0
  124.3389  105.6109  106.4394 H   0  0  0  0  0  0  0  0  0  0  0  0
  123.1614  104.5947  107.2885 H   0  0  0  0  0  0  0  0  0  0  0  0
  124.2579  103.8710  106.0993 H   0  0  0  0  0  0  0  0  0  0  0  0
  125.0030  103.3702  108.4238 H   0  0  0  0  0  0  0  0  0  0  0  0
  126.1971  104.3370  107.5659 H   0  0  0  0  0  0  0  0  0  0  0  0
  125.8378  105.2332  109.8804 H   0  0  0  0  0  0  0  0  0  0  0  0
  124.1165  105.4395  109.5529 H   0  0  0  0  0  0  0  0  0  0  0  0
  123.3164  110.0810  110.3439 H   0  0  0  0  0  0  0  0  0  0  0  0
  124.9108  109.6705  111.0014 H   0  0  0  0  0  0  0  0  0  0  0  0
  124.0333  107.1522  110.8531 H   0  0  0  0  0  0  0  0  0  0  0  0
  122.4985  108.5822  112.3216 H   0  0  0  0  0  0  0  0  0  0  0  0
  123.5789  109.8137  112.9297 H   0  0  0  0  0  0  0  0  0  0  0  0
  122.3629  108.4703  108.9921 H   0  0  0  0  0  0  0  0  0  0  0  0
  1  2  2  0  0  0  0
  1  9  1  0  0  0  0
  2 10  1  0  0  0  0
  3  8  1  0  0  0  0
  3  9  2  0  0  0  0
  3 10  1  0  0  0  0
  4  5  1  0  0  0  0
  5  6  1  0  0  0  0
  6 10  1  0  0  0  0
  7  8  1  0  0  0  0
  7 11  1  0  0  0  0
  8 12  1  0  0  0  0
  1 13  1  0  0  0  0
  2 14  1  0  0  0  0
  4 15  1  0  0  0  0
  4 16  1  0  0  0  0
  4 17  1  0  0  0  0
  5 18  1  0  0  0  0
  5 19  1  0  0  0  0
  6 20  1  0  0  0  0
  6 21  1  0  0  0  0
  7 22  1  0  0  0  0
  7 23  1  0  0  0  0
  8 24  1  0  0  0  0
 11 25  1  0  0  0  0
 11 26  1  0  0  0  0
 12 27  1  0  0  0  0
M  END
> <FRED Chemgauss4 score>
-7.335405

$$$$
C39059495	P151021494
  -OEChem-05122015313D

 18 19  0     1  0  0  0  0  0999 V2000
  123.0493  105.9185  106.4850 C   0  0  0  0  0  0  0  0  0  0  0  0
  125.3877  106.8732  106.4823 C   0  0  0  0  0  0  0  0  0  0  0  0
  125.9749  106.0574  108.5679 C   0  0  0  0  0  0  0  0  0  0  0  0
  124.5046  105.6624  106.2521 C   0  0  1  0  0  0  0  0  0  0  0  0
  124.6898  104.4569  107.1695 C   0  0  1  0  0  0  0  0  0  0  0  0
  122.3997  104.9484  107.0345 N   0  0  0  0  0  0  0  0  0  0  0  0
  126.0096  107.0274  107.6998 N   0  0  0  0  0  0  0  0  0  0  0  0
  125.3615  104.8428  108.3906 N   0  0  0  0  0  0  0  0  0  0  0  0
  123.3066  103.9560  107.2001 N   0  0  0  0  0  0  0  0  0  0  0  0
  126.5769  106.1730  109.7966 N   0  0  0  0  0  0  0  0  0  0  0  0
  125.4757  107.7233  105.5953 O   0  0  0  0  0  0  0  0  0  0  0  0
  122.5947  106.8779  106.2091 H   0  0  0  0  0  0  0  0  0  0  0  0
  124.6261  105.3594  105.1710 H   0  0  0  0  0  0  0  0  0  0  0  0
  125.2912  103.7132  106.6745 H   0  0  0  0  0  0  0  0  0  0  0  0
  125.3315  104.1758  109.1651 H   0  0  0  0  0  0  0  0  0  0  0  0
  123.1123  103.4088  108.0364 H   0  0  0  0  0  0  0  0  0  0  0  0
  127.0446  107.0219  110.0112 H   0  0  0  0  0  0  0  0  0  0  0  0
  126.5202  105.4031  110.4207 H   0  0  0  0  0  0  0  0  0  0  0  0
  1  4  1  0  0  0  0
  1  6  2  0  0  0  0
  2  4  1  0  0  0  0
  2  7  1  0  0  0  0
  2 11  2  0  0  0  0
  3  7  2  0  0  0  0
  3  8  1  0  0  0  0
  3 10  1  0  0  0  0
  4  5  1  0  0  0  0
  5  8  1  0  0  0  0
  5  9  1  0  0  0  0
  6  9  1  0  0  0  0
  1 12  1  0  0  0  0
  4 13  1  0  0  0  0
  5 14  1  0  0  0  0
  8 15  1  0  0  0  0
  9 16  1  0  0  0  0
 10 17  1  0  0  0  0
 10 18  1  0  0  0  0
M  END
> <FRED Chemgauss4 score>
-7.332268

$$$$
C50269940	P91555757
  -OEChem-05122015313D

 25 25  0     1  0  0  0  0  0999 V2000
  125.5064  108.9071  108.0691 C   0  0  0  0  0  0  0  0  0  0  0  0
  124.0117  107.8757  109.3088 C   0  0  0  0  0  0  0  0  0  0  0  0
  124.9872  107.6343  108.3725 C   0  0  0  0  0  0  0  0  0  0  0  0
  123.1457  109.9590  110.3990 C   0  0  0  0  0  0  0  0  0  0  0  0
  124.5269  104.3247  106.7417 C   0  0  0  0  0  0  0  0  0  0  0  0
  126.5388  105.6182  108.5842 C   0  0  0  0  0  0  0  0  0  0  0  0
  125.4074  106.2942  107.7941 C   0  0  1  0  0  0  0  0  0  0  0  0
  124.9100  109.8846  108.7566 N   0  0  0  0  0  0  0  0  0  0  0  0
  124.0059  109.2259  109.5014 N   0  0  0  0  0  0  0  0  0  0  0  0
  127.7184  106.4409  108.6521 N   0  0  0  0  0  0  0  0  0  0  0  0
  124.2604  105.3829  107.7005 N   0  0  0  0  0  0  0  0  0  0  0  0
  126.2939  109.1657  107.3753 H   0  0  0  0  0  0  0  0  0  0  0  0
  123.3370  107.2182  109.8402 H   0  0  0  0  0  0  0  0  0  0  0  0
  123.6472  110.0251  111.3680 H   0  0  0  0  0  0  0  0  0  0  0  0
  122.9637  110.9583  109.9938 H   0  0  0  0  0  0  0  0  0  0  0  0
  122.1920  109.4328  110.4959 H   0  0  0  0  0  0  0  0  0  0  0  0
  124.7108  104.7517  105.7524 H   0  0  0  0  0  0  0  0  0  0  0  0
  123.6711  103.6471  106.6791 H   0  0  0  0  0  0  0  0  0  0  0  0
  125.4064  103.7512  107.0465 H   0  0  0  0  0  0  0  0  0  0  0  0
  126.2296  105.4355  109.6197 H   0  0  0  0  0  0  0  0  0  0  0  0
  126.8353  104.6564  108.1524 H   0  0  0  0  0  0  0  0  0  0  0  0
  125.7655  106.4586  106.7694 H   0  0  0  0  0  0  0  0  0  0  0  0
  128.6129  106.0031  108.8002 H   0  0  0  0  0  0  0  0  0  0  0  0
  127.6152  107.4371  108.7553 H   0  0  0  0  0  0  0  0  0  0  0  0
  124.0905  104.9800  108.6176 H   0  0  0  0  0  0  0  0  0  0  0  0
  1  3  1  0  0  0  0
  1  8  2  0  0  0  0
  2  3  2  0  0  0  0
  2  9  1  0  0  0  0
  3  7  1  0  0  0  0
  4  9  1  0  0  0  0
  5 11  1  0  0  0  0
  6  7  1  0  0  0  0
  6 10  1  0  0  0  0
  7 11  1  0  0  0  0
  8  9  1  0  0  0  0
  1 12  1  0  0  0  0
  2 13  1  0  0  0  0
  4 14  1  0  0  0  0
  4 15  1  0  0  0  0
  4 16  1  0  0  0  0
  5 17  1  0  0  0  0
  5 18  1  0  0  0  0
  5 19  1  0  0  0  0
  6 20  1  0  0  0  0
  6 21  1  0  0  0  0
  7 22  1  0  0  0  0
 10 23  1  0  0  0  0
 10 24  1  0  0  0  0
 11 25  1  0  0  0  0
M  END
> <FRED Chemgauss4 score>
-7.318558

$$$$
C85182506	P133303268
  -OEChem-05122015313D

 28 29  0     1  0  0  0  0  0999 V2000
  125.3252  108.1590  106.9757 C   0  0  0  0  0  0  0  0  0  0  0  0
  124.5624  109.6839  108.2498 C   0  0  0  0  0  0  0  0  0  0  0  0
  124.9156  107.5127  108.1181 C   0  0  0  0  0  0  0  0  0  0  0  0
  124.9751  103.5118  107.0000 C   0  0  0  0  0  0  0  0  0  0  0  0
  123.6400  105.3280  108.1087 C   0  0  0  0  0  0  0  0  0  0  0  0
  126.0531  104.0200  107.9550 C   0  0  0  0  0  0  0  0  0  0  0  0
  124.9430  106.0495  108.5123 C   0  0  1  0  0  0  0  0  0  0  0  0
  123.8308  104.5169  106.8270 C   0  0  2  0  0  0  0  0  0  0  0  0
  123.8745  108.3475  110.2487 C   0  0  0  0  0  0  0  0  0  0  0  0
  125.1028  109.5104  107.0641 N   0  0  0  0  0  0  0  0  0  0  0  0
  124.4297  108.5025  108.9251 N   0  0  0  0  0  0  0  0  0  0  0  0
  122.5999  103.8255  106.4544 N   0  0  0  0  0  0  0  0  0  0  0  0
  126.1122  105.4415  107.9429 O   0  0  0  0  0  0  0  0  0  0  0  0
  125.7691  107.7221  106.0928 H   0  0  0  0  0  0  0  0  0  0  0  0
  124.2505  110.6309  108.6689 H   0  0  0  0  0  0  0  0  0  0  0  0
  125.4341  103.3520  106.0154 H   0  0  0  0  0  0  0  0  0  0  0  0
  124.5996  102.5381  107.3371 H   0  0  0  0  0  0  0  0  0  0  0  0
  123.2819  104.6991  108.9280 H   0  0  0  0  0  0  0  0  0  0  0  0
  122.8632  106.0767  107.9189 H   0  0  0  0  0  0  0  0  0  0  0  0
  125.8837  103.6681  108.9797 H   0  0  0  0  0  0  0  0  0  0  0  0
  127.0314  103.6427  107.6387 H   0  0  0  0  0  0  0  0  0  0  0  0
  125.0524  106.0271  109.6341 H   0  0  0  0  0  0  0  0  0  0  0  0
  124.0891  105.2086  105.9978 H   0  0  0  0  0  0  0  0  0  0  0  0
  122.7988  108.1820  110.1460 H   0  0  0  0  0  0  0  0  0  0  0  0
  124.3469  107.4947  110.7442 H   0  0  0  0  0  0  0  0  0  0  0  0
  124.0692  109.2527  110.8306 H   0  0  0  0  0  0  0  0  0  0  0  0
  122.6755  103.0261  105.8669 H   0  0  0  0  0  0  0  0  0  0  0  0
  121.7363  104.2885  106.6273 H   0  0  0  0  0  0  0  0  0  0  0  0
  1  3  2  0  0  0  0
  1 10  1  0  0  0  0
  2 10  2  0  0  0  0
  2 11  1  0  0  0  0
  3  7  1  0  0  0  0
  3 11  1  0  0  0  0
  4  6  1  0  0  0  0
  4  8  1  0  0  0  0
  5  7  1  0  0  0  0
  5  8  1  0  0  0  0
  6 13  1  0  0  0  0
  7 13  1  0  0  0  0
  8 12  1  0  0  0  0
  9 11  1  0  0  0  0
  1 14  1  0  0  0  0
  2 15  1  0  0  0  0
  4 16  1  0  0  0  0
  4 17  1  0  0  0  0
  5 18  1  0  0  0  0
  5 19  1  0  0  0  0
  6 20  1  0  0  0  0
  6 21  1  0  0  0  0
  7 22  1  0  0  0  0
  8 23  1  0  0  0  0
  9 24  1  0  0  0  0
  9 25  1  0  0  0  0
  9 26  1  0  0  0  0
 12 27  1  0  0  0  0
 12 28  1  0  0  0  0
M  END
> <FRED Chemgauss4 score>
-7.317294

$$$$
C42528606	P64324269
  -OEChem-05122015313D

 32 31  0     1  0  0  0  0  0999 V2000
  120.3680  104.8366  106.9743 C   0  0  0  0  0  0  0  0  0  0  0  0
  125.1260  103.4514  107.1437 C   0  0  0  0  0  0  0  0  0  0  0  0
  124.9804  104.6619  109.3481 C   0  0  0  0  0  0  0  0  0  0  0  0
  121.5814  105.6473  107.1552 C   0  0  0  0  0  0  0  0  0  0  0  0
  122.8454  104.7944  107.1325 C   0  0  0  0  0  0  0  0  0  0  0  0
  124.5600  108.5421  107.2510 C   0  0  0  0  0  0  0  0  0  0  0  0
  124.4192  106.2791  106.0881 C   0  0  0  0  0  0  0  0  0  0  0  0
  125.1409  104.8036  107.8416 C   0  0  0  0  0  0  0  0  0  0  0  0
  125.2819  107.5049  106.3896 C   0  0  1  0  0  0  0  0  0  0  0  0
  119.4092  104.1988  106.8317 N   0  0  0  0  0  0  0  0  0  0  0  0
  125.3752  109.6899  107.5463 N   0  0  0  0  0  0  0  0  0  0  0  0
  124.0409  105.6252  107.3215 N   0  0  2  0  0  0  0  0  0  0  0  0
  125.6749  108.1059  105.1558 O   0  0  0  0  0  0  0  0  0  0  0  0
  124.1931  102.9166  107.3496 H   0  0  0  0  0  0  0  0  0  0  0  0
  125.2245  103.5605  106.0578 H   0  0  0  0  0  0  0  0  0  0  0  0
  125.9578  102.8271  107.4883 H   0  0  0  0  0  0  0  0  0  0  0  0
  124.0444  104.1475  109.5921 H   0  0  0  0  0  0  0  0  0  0  0  0
  124.9639  105.6437  109.8326 H   0  0  0  0  0  0  0  0  0  0  0  0
  125.7994  104.0796  109.7850 H   0  0  0  0  0  0  0  0  0  0  0  0
  121.5206  106.1663  108.1188 H   0  0  0  0  0  0  0  0  0  0  0  0
  121.6288  106.4186  106.3775 H   0  0  0  0  0  0  0  0  0  0  0  0
  122.8041  104.0565  107.9404 H   0  0  0  0  0  0  0  0  0  0  0  0
  122.9301  104.2468  106.1873 H   0  0  0  0  0  0  0  0  0  0  0  0
  123.6556  108.9025  106.7507 H   0  0  0  0  0  0  0  0  0  0  0  0
  124.2745  108.1082  108.2147 H   0  0  0  0  0  0  0  0  0  0  0  0
  124.9628  105.5563  105.4709 H   0  0  0  0  0  0  0  0  0  0  0  0
  123.5080  106.5733  105.5571 H   0  0  0  0  0  0  0  0  0  0  0  0
  126.0818  105.3198  107.6219 H   0  0  0  0  0  0  0  0  0  0  0  0
  126.1989  107.1956  106.9060 H   0  0  0  0  0  0  0  0  0  0  0  0
  125.1868  110.2247  108.3790 H   0  0  0  0  0  0  0  0  0  0  0  0
  125.9786  110.0607  106.8297 H   0  0  0  0  0  0  0  0  0  0  0  0
  126.2651  108.8397  105.3844 H   0  0  0  0  0  0  0  0  0  0  0  0
  1  4  1  0  0  0  0
  1 10  3  0  0  0  0
  2  8  1  0  0  0  0
  3  8  1  0  0  0  0
  4  5  1  0  0  0  0
  5 12  1  0  0  0  0
  6  9  1  0  0  0  0
  6 11  1  0  0  0  0
  7  9  1  0  0  0  0
  7 12  1  0  0  0  0
  8 12  1  0  0  0  0
  9 13  1  0  0  0  0
  2 14  1  0  0  0  0
  2 15  1  0  0  0  0
  2 16  1  0  0  0  0
  3 17  1  0  0  0  0
  3 18  1  0  0  0  0
  3 19  1  0  0  0  0
  4 20  1  0  0  0  0
  4 21  1  0  0  0  0
  5 22  1  0  0  0  0
  5 23  1  0  0  0  0
  6 24  1  0  0  0  0
  6 25  1  0  0  0  0
  7 26  1  0  0  0  0
  7 27  1  0  0  0  0
  8 28  1  0  0  0  0
  9 29  1  0  0  0  0
 11 30  1  0  0  0  0
 11 31  1  0  0  0  0
 13 32  1  0  0  0  0
M  END
> <FRED Chemgauss4 score>
-7.317224

$$$$
C85085338	P133149953
  -OEChem-05122015313D

 25 25  0     1  0  0  0  0  0999 V2000
  126.5110  107.8623  107.1293 C   0  0  0  0  0  0  0  0  0  0  0  0
  124.9540  108.8294  108.7918 C   0  0  0  0  0  0  0  0  0  0  0  0
  126.5446  106.5929  107.9456 C   0  0  0  0  0  0  0  0  0  0  0  0
  125.0268  107.5355  109.5661 C   0  0  0  0  0  0  0  0  0  0  0  0
  124.5041  104.7565  107.0745 C   0  0  0  0  0  0  0  0  0  0  0  0
  122.9072  105.9043  108.6984 C   0  0  0  0  0  0  0  0  0  0  0  0
  124.1726  106.0294  107.8471 C   0  0  1  0  0  0  0  0  0  0  0  0
  125.7362  108.8878  107.6489 N   0  0  0  0  0  0  0  0  0  0  0  0
  125.3046  106.3993  108.6921 N   0  0  0  0  0  0  0  0  0  0  0  0
  121.8752  105.1563  108.0171 N   0  0  0  0  0  0  0  0  0  0  0  0
  127.1771  107.9810  106.1011 O   0  0  0  0  0  0  0  0  0  0  0  0
  124.2824  109.7794  109.1931 O   0  0  0  0  0  0  0  0  0  0  0  0
  126.7639  105.7448  107.2679 H   0  0  0  0  0  0  0  0  0  0  0  0
  127.3963  106.6805  108.6463 H   0  0  0  0  0  0  0  0  0  0  0  0
  125.8397  107.6474  110.3083 H   0  0  0  0  0  0  0  0  0  0  0  0
  124.0818  107.4111  110.1299 H   0  0  0  0  0  0  0  0  0  0  0  0
  124.6732  103.9047  107.7423 H   0  0  0  0  0  0  0  0  0  0  0  0
  123.6776  104.4854  106.4080 H   0  0  0  0  0  0  0  0  0  0  0  0
  125.4004  104.8951  106.4611 H   0  0  0  0  0  0  0  0  0  0  0  0
  122.5164  106.8994  108.9391 H   0  0  0  0  0  0  0  0  0  0  0  0
  123.1400  105.4074  109.6465 H   0  0  0  0  0  0  0  0  0  0  0  0
  124.0167  106.8360  107.1210 H   0  0  0  0  0  0  0  0  0  0  0  0
  125.7424  109.7693  107.1419 H   0  0  0  0  0  0  0  0  0  0  0  0
  121.7558  105.2858  107.0285 H   0  0  0  0  0  0  0  0  0  0  0  0
  121.1763  104.6868  108.5644 H   0  0  0  0  0  0  0  0  0  0  0  0
  1  3  1  0  0  0  0
  1  8  1  0  0  0  0
  1 11  2  0  0  0  0
  2  4  1  0  0  0  0
  2  8  1  0  0  0  0
  2 12  2  0  0  0  0
  3  9  1  0  0  0  0
  4  9  1  0  0  0  0
  5  7  1  0  0  0  0
  6  7  1  0  0  0  0
  6 10  1  0  0  0  0
  7  9  1  0  0  0  0
  3 13  1  0  0  0  0
  3 14  1  0  0  0  0
  4 15  1  0  0  0  0
  4 16  1  0  0  0  0
  5 17  1  0  0  0  0
  5 18  1  0  0  0  0
  5 19  1  0  0  0  0
  6 20  1  0  0  0  0
  6 21  1  0  0  0  0
  7 22  1  0  0  0  0
  8 23  1  0  0  0  0
 10 24  1  0  0  0  0
 10 25  1  0  0  0  0
M  END
> <FRED Chemgauss4 score>
-7.315641

$$$$
C40349624	P61251809
  -OEChem-05122015313D

 22 21  0     0  0  0  0  0  0999 V2000
  123.7212  109.2686  109.3668 C   0  0  0  0  0  0  0  0  0  0  0  0
  125.4972  105.2745  108.7973 C   0  0  0  0  0  0  0  0  0  0  0  0
  123.6954  105.8085  107.2160 C   0  0  0  0  0  0  0  0  0  0  0  0
  124.2373  108.9997  107.9761 C   0  0  0  0  0  0  0  0  0  0  0  0
  122.9576  108.2687  109.9092 N   0  0  0  0  0  0  0  0  0  0  0  0
  125.5520  108.3431  108.1120 N   0  0  0  0  0  0  0  0  0  0  0  0
  125.1670  105.7837  107.4375 N   0  0  0  0  0  0  0  0  0  0  0  0
  125.4646  107.6293  105.6431 O   0  0  0  0  0  0  0  0  0  0  0  0
  127.4442  106.9638  107.0404 O   0  0  0  0  0  0  0  0  0  0  0  0
  124.0661  110.6770  110.1972 S   0  0  0  0  0  0  0  0  0  0  0  0
  126.0174  107.2026  106.9158 S   0  0  0  0  0  0  0  0  0  0  0  0
  126.5807  105.2635  108.9415 H   0  0  0  0  0  0  0  0  0  0  0  0
  125.1151  104.2578  108.9233 H   0  0  0  0  0  0  0  0  0  0  0  0
  125.0471  105.9151  109.5604 H   0  0  0  0  0  0  0  0  0  0  0  0
  123.4725  106.1845  106.2141 H   0  0  0  0  0  0  0  0  0  0  0  0
  123.2134  106.4586  107.9512 H   0  0  0  0  0  0  0  0  0  0  0  0
  123.2814  104.8013  107.3140 H   0  0  0  0  0  0  0  0  0  0  0  0
  124.3641  109.9136  107.3900 H   0  0  0  0  0  0  0  0  0  0  0  0
  123.5742  108.3112  107.4443 H   0  0  0  0  0  0  0  0  0  0  0  0
  122.7562  107.4094  109.4080 H   0  0  0  0  0  0  0  0  0  0  0  0
  122.5652  108.3561  110.8408 H   0  0  0  0  0  0  0  0  0  0  0  0
  125.7988  108.1130  109.0834 H   0  0  0  0  0  0  0  0  0  0  0  0
  1  4  1  0  0  0  0
  1  5  1  0  0  0  0
  1 10  2  0  0  0  0
  2  7  1  0  0  0  0
  3  7  1  0  0  0  0
  4  6  1  0  0  0  0
  6 11  1  0  0  0  0
  7 11  1  0  0  0  0
  8 11  2  0  0  0  0
  9 11  2  0  0  0  0
  2 12  1  0  0  0  0
  2 13  1  0  0  0  0
  2 14  1  0  0  0  0
  3 15  1  0  0  0  0
  3 16  1  0  0  0  0
  3 17  1  0  0  0  0
  4 18  1  0  0  0  0
  4 19  1  0  0  0  0
  5 20  1  0  0  0  0
  5 21  1  0  0  0  0
  6 22  1  0  0  0  0
M  END
> <FRED Chemgauss4 score>
-7.312985

$$$$
C82899427	P129595484
  -OEChem-05122015313D

 29 29  0     1  0  0  0  0  0999 V2000
  124.1177  105.4848  106.5847 C   0  0  0  0  0  0  0  0  0  0  0  0
  124.3454  104.0244  106.9144 C   0  0  0  0  0  0  0  0  0  0  0  0
  125.7150  105.3088  108.2936 C   0  0  0  0  0  0  0  0  0  0  0  0
  125.4211  106.1073  107.0355 C   0  0  2  0  0  0  0  0  0  0  0  0
  125.3487  107.6048  107.2643 C   0  0  0  0  0  0  0  0  0  0  0  0
  123.4706  108.3471  110.8729 C   0  0  0  0  0  0  0  0  0  0  0  0
  124.2427  109.1715  108.6226 C   0  0  0  0  0  0  0  0  0  0  0  0
  124.0341  109.5322  110.0921 C   0  0  1  0  0  0  0  0  0  0  0  0
  123.1439  110.6691  110.2074 N   0  0  0  0  0  0  0  0  0  0  0  0
  125.2012  103.9875  108.0660 O   0  0  0  0  0  0  0  0  0  0  0  0
  122.2033  107.9866  110.3347 O   0  0  0  0  0  0  0  0  0  0  0  0
  124.7553  107.8482  108.5298 O   0  0  0  0  0  0  0  0  0  0  0  0
  123.8950  105.6485  105.5266 H   0  0  0  0  0  0  0  0  0  0  0  0
  123.2791  105.8740  107.1749 H   0  0  0  0  0  0  0  0  0  0  0  0
  123.4145  103.4923  107.1294 H   0  0  0  0  0  0  0  0  0  0  0  0
  124.8625  103.5091  106.0979 H   0  0  0  0  0  0  0  0  0  0  0  0
  126.7856  105.2501  108.5114 H   0  0  0  0  0  0  0  0  0  0  0  0
  125.2031  105.7172  109.1720 H   0  0  0  0  0  0  0  0  0  0  0  0
  126.1932  105.8911  106.2853 H   0  0  0  0  0  0  0  0  0  0  0  0
  124.7400  108.0795  106.4903 H   0  0  0  0  0  0  0  0  0  0  0  0
  126.3509  108.0411  107.2531 H   0  0  0  0  0  0  0  0  0  0  0  0
  123.3228  108.6104  111.9255 H   0  0  0  0  0  0  0  0  0  0  0  0
  124.1333  107.4767  110.8146 H   0  0  0  0  0  0  0  0  0  0  0  0
  124.9498  109.8532  108.1375 H   0  0  0  0  0  0  0  0  0  0  0  0
  123.2933  109.1998  108.0780 H   0  0  0  0  0  0  0  0  0  0  0  0
  124.9811  109.8618  110.5357 H   0  0  0  0  0  0  0  0  0  0  0  0
  123.1890  111.3879  109.5099 H   0  0  0  0  0  0  0  0  0  0  0  0
  122.6573  110.8130  111.0722 H   0  0  0  0  0  0  0  0  0  0  0  0
  121.8831  107.2342  110.8570 H   0  0  0  0  0  0  0  0  0  0  0  0
  1  2  1  0  0  0  0
  1  4  1  0  0  0  0
  2 10  1  0  0  0  0
  3  4  1  0  0  0  0
  3 10  1  0  0  0  0
  4  5  1  0  0  0  0
  5 12  1  0  0  0  0
  6  8  1  0  0  0  0
  6 11  1  0  0  0  0
  7  8  1  0  0  0  0
  7 12  1  0  0  0  0
  8  9  1  0  0  0  0
  1 13  1  0  0  0  0
  1 14  1  0  0  0  0
  2 15  1  0  0  0  0
  2 16  1  0  0  0  0
  3 17  1  0  0  0  0
  3 18  1  0  0  0  0
  4 19  1  0  0  0  0
  5 20  1  0  0  0  0
  5 21  1  0  0  0  0
  6 22  1  0  0  0  0
  6 23  1  0  0  0  0
  7 24  1  0  0  0  0
  7 25  1  0  0  0  0
  8 26  1  0  0  0  0
  9 27  1  0  0  0  0
  9 28  1  0  0  0  0
 11 29  1  0  0  0  0
M  END
> <FRED Chemgauss4 score>
-7.310102

$$$$
C82928769	P129631281
  -OEChem-05122015313D

 29 29  0     1  0  0  0  0  0999 V2000
  124.9749  109.1858  108.1606 C   0  0  0  0  0  0  0  0  0  0  0  0
  125.4852  107.6371  106.8573 C   0  0  0  0  0  0  0  0  0  0  0  0
  125.9840  104.9204  108.4549 C   0  0  0  0  0  0  0  0  0  0  0  0
  121.4382  104.2143  106.5900 C   0  0  0  0  0  0  0  0  0  0  0  0
  123.7346  104.9425  107.3049 C   0  0  0  0  0  0  0  0  0  0  0  0
  121.9054  106.7055  106.7714 C   0  0  0  0  0  0  0  0  0  0  0  0
  124.6514  105.6732  108.3197 C   0  0  2  0  0  0  0  0  0  0  0  0
  122.2262  105.3047  107.3339 C   0  0  1  0  0  0  0  0  0  0  0  0
  125.5390  108.9462  106.9403 N   0  0  0  0  0  0  0  0  0  0  0  0
  124.5755  108.1073  108.8379 N   0  0  0  0  0  0  0  0  0  0  0  0
  124.9133  107.1304  107.9825 N   0  0  0  0  0  0  0  0  0  0  0  0
  122.2730  106.8771  105.3713 N   0  0  0  0  0  0  0  0  0  0  0  0
  121.7807  105.2732  108.6951 O   0  0  0  0  0  0  0  0  0  0  0  0
  124.8492  110.1775  108.5686 H   0  0  0  0  0  0  0  0  0  0  0  0
  125.8308  107.0277  106.0343 H   0  0  0  0  0  0  0  0  0  0  0  0
  126.5274  104.9253  107.5037 H   0  0  0  0  0  0  0  0  0  0  0  0
  126.6267  105.3912  109.2075 H   0  0  0  0  0  0  0  0  0  0  0  0
  125.8358  103.8753  108.7479 H   0  0  0  0  0  0  0  0  0  0  0  0
  120.3658  104.4420  106.5930 H   0  0  0  0  0  0  0  0  0  0  0  0
  121.7381  104.1649  105.5370 H   0  0  0  0  0  0  0  0  0  0  0  0
  121.5786  103.2250  107.0364 H   0  0  0  0  0  0  0  0  0  0  0  0
  123.8345  103.8593  107.4581 H   0  0  0  0  0  0  0  0  0  0  0  0
  124.1190  105.1415  106.2953 H   0  0  0  0  0  0  0  0  0  0  0  0
  120.8329  106.9094  106.8851 H   0  0  0  0  0  0  0  0  0  0  0  0
  122.4032  107.4754  107.3712 H   0  0  0  0  0  0  0  0  0  0  0  0
  124.1767  105.6205  109.3072 H   0  0  0  0  0  0  0  0  0  0  0  0
  122.4708  107.7995  105.0452 H   0  0  0  0  0  0  0  0  0  0  0  0
  122.1187  106.1142  104.7463 H   0  0  0  0  0  0  0  0  0  0  0  0
  120.8307  105.4557  108.6714 H   0  0  0  0  0  0  0  0  0  0  0  0
  1  9  1  0  0  0  0
  1 10  2  0  0  0  0
  2  9  2  0  0  0  0
  2 11  1  0  0  0  0
  3  7  1  0  0  0  0
  4  8  1  0  0  0  0
  5  7  1  0  0  0  0
  5  8  1  0  0  0  0
  6  8  1  0  0  0  0
  6 12  1  0  0  0  0
  7 11  1  0  0  0  0
  8 13  1  0  0  0  0
 10 11  1  0  0  0  0
  1 14  1  0  0  0  0
  2 15  1  0  0  0  0
  3 16  1  0  0  0  0
  3 17  1  0  0  0  0
  3 18  1  0  0  0  0
  4 19  1  0  0  0  0
  4 20  1  0  0  0  0
  4 21  1  0  0  0  0
  5 22  1  0  0  0  0
  5 23  1  0  0  0  0
  6 24  1  0  0  0  0
  6 25  1  0  0  0  0
  7 26  1  0  0  0  0
 12 27  1  0  0  0  0
 12 28  1  0  0  0  0
 13 29  1  0  0  0  0
M  END
> <FRED Chemgauss4 score>
-7.305669

$$$$
C52945694	P79371735
  -OEChem-05122015313D

 19 19  0     0  0  0  0  0  0999 V2000
  125.8853  108.0260  107.5353 C   0  0  0  0  0  0  0  0  0  0  0  0
  124.4153  108.8478  108.9491 C   0  0  0  0  0  0  0  0  0  0  0  0
  124.9794  107.6610  108.5492 C   0  0  0  0  0  0  0  0  0  0  0  0
  124.6080  104.5722  107.4005 C   0  0  0  0  0  0  0  0  0  0  0  0
  125.3550  105.1944  108.5681 C   0  0  0  0  0  0  0  0  0  0  0  0
  125.8991  109.3416  107.3053 N   0  0  0  0  0  0  0  0  0  0  0  0
  124.9948  109.8138  108.1802 N   0  0  0  0  0  0  0  0  0  0  0  0
  123.2547  104.2270  107.7440 N   0  0  0  0  0  0  0  0  0  0  0  0
  124.7129  106.3903  109.0427 N   0  0  0  0  0  0  0  0  0  0  0  0
  126.5372  107.3909  106.9522 H   0  0  0  0  0  0  0  0  0  0  0  0
  123.6709  109.0907  109.6944 H   0  0  0  0  0  0  0  0  0  0  0  0
  125.1003  103.6585  107.0526 H   0  0  0  0  0  0  0  0  0  0  0  0
  124.5572  105.2796  106.5669 H   0  0  0  0  0  0  0  0  0  0  0  0
  125.3936  104.4952  109.4090 H   0  0  0  0  0  0  0  0  0  0  0  0
  126.3801  105.4596  108.2900 H   0  0  0  0  0  0  0  0  0  0  0  0
  124.8236  110.8113  108.2020 H   0  0  0  0  0  0  0  0  0  0  0  0
  123.0631  103.8362  108.6526 H   0  0  0  0  0  0  0  0  0  0  0  0
  122.5584  104.1870  107.0168 H   0  0  0  0  0  0  0  0  0  0  0  0
  124.0208  106.3061  109.7827 H   0  0  0  0  0  0  0  0  0  0  0  0
  1  3  1  0  0  0  0
  1  6  2  0  0  0  0
  2  3  2  0  0  0  0
  2  7  1  0  0  0  0
  3  9  1  0  0  0  0
  4  5  1  0  0  0  0
  4  8  1  0  0  0  0
  5  9  1  0  0  0  0
  6  7  1  0  0  0  0
  1 10  1  0  0  0  0
  2 11  1  0  0  0  0
  4 12  1  0  0  0  0
  4 13  1  0  0  0  0
  5 14  1  0  0  0  0
  5 15  1  0  0  0  0
  7 16  1  0  0  0  0
  8 17  1  0  0  0  0
  8 18  1  0  0  0  0
  9 19  1  0  0  0  0
M  END
> <FRED Chemgauss4 score>
-7.303976

$$$$
C82882993	P129561702
  -OEChem-05122015313D

 37 37  0     1  0  0  0  0  0999 V2000
  122.2322  104.7241  106.3882 C   0  0  0  0  0  0  0  0  0  0  0  0
  123.0814  105.7557  105.6549 C   0  0  0  0  0  0  0  0  0  0  0  0
  120.9762  106.7144  105.8099 C   0  0  0  0  0  0  0  0  0  0  0  0
  120.8501  105.3630  106.5077 C   0  0  1  0  0  0  0  0  0  0  0  0
  118.5071  105.2112  106.0741 C   0  0  0  0  0  0  0  0  0  0  0  0
  119.7778  103.2303  106.5581 C   0  0  0  0  0  0  0  0  0  0  0  0
  124.1375  108.3897  107.0191 C   0  0  0  0  0  0  0  0  0  0  0  0
  122.7882  107.6773  107.1050 C   0  0  0  0  0  0  0  0  0  0  0  0
  124.7742  107.9861  109.4301 C   0  0  0  0  0  0  0  0  0  0  0  0
  124.5855  109.0380  108.3365 C   0  0  1  0  0  0  0  0  0  0  0  0
  122.4075  107.0486  105.8400 N   0  0  1  0  0  0  0  0  0  0  0  0
  125.8832  109.7356  108.1251 N   0  0  0  0  0  0  0  0  0  0  0  0
  119.8093  104.5552  105.9336 N   0  0  0  0  0  0  0  0  0  0  0  0
  125.7656  107.0417  109.0409 O   0  0  0  0  0  0  0  0  0  0  0  0
  122.2255  103.7725  105.8445 H   0  0  0  0  0  0  0  0  0  0  0  0
  122.6362  104.5256  107.3885 H   0  0  0  0  0  0  0  0  0  0  0  0
  124.1161  105.7770  106.0451 H   0  0  0  0  0  0  0  0  0  0  0  0
  123.1462  105.4858  104.5816 H   0  0  0  0  0  0  0  0  0  0  0  0
  120.6088  106.6580  104.7628 H   0  0  0  0  0  0  0  0  0  0  0  0
  120.3657  107.4881  106.3166 H   0  0  0  0  0  0  0  0  0  0  0  0
  120.6281  105.5206  107.5668 H   0  0  0  0  0  0  0  0  0  0  0  0
  117.7234  104.5887  105.6345 H   0  0  0  0  0  0  0  0  0  0  0  0
  118.5146  106.1790  105.5653 H   0  0  0  0  0  0  0  0  0  0  0  0
  118.2772  105.3725  107.1307 H   0  0  0  0  0  0  0  0  0  0  0  0
  118.9833  102.6247  106.1144 H   0  0  0  0  0  0  0  0  0  0  0  0
  119.5920  103.3228  107.6316 H   0  0  0  0  0  0  0  0  0  0  0  0
  120.7334  102.7201  106.4105 H   0  0  0  0  0  0  0  0  0  0  0  0
  124.0807  109.1611  106.2404 H   0  0  0  0  0  0  0  0  0  0  0  0
  124.8916  107.6620  106.6927 H   0  0  0  0  0  0  0  0  0  0  0  0
  122.8376  106.8802  107.8539 H   0  0  0  0  0  0  0  0  0  0  0  0
  121.9847  108.3607  107.3956 H   0  0  0  0  0  0  0  0  0  0  0  0
  125.0940  108.4397  110.3742 H   0  0  0  0  0  0  0  0  0  0  0  0
  123.8450  107.4365  109.6135 H   0  0  0  0  0  0  0  0  0  0  0  0
  123.8595  109.7891  108.6680 H   0  0  0  0  0  0  0  0  0  0  0  0
  126.4434  109.8759  108.9219 H   0  0  0  0  0  0  0  0  0  0  0  0
  126.0055  110.1865  107.2589 H   0  0  0  0  0  0  0  0  0  0  0  0
  125.8420  106.4035  109.7678 H   0  0  0  0  0  0  0  0  0  0  0  0
  1  2  1  0  0  0  0
  1  4  1  0  0  0  0
  2 11  1  0  0  0  0
  3  4  1  0  0  0  0
  3 11  1  0  0  0  0
  4 13  1  0  0  0  0
  5 13  1  0  0  0  0
  6 13  1  0  0  0  0
  7  8  1  0  0  0  0
  7 10  1  0  0  0  0
  8 11  1  0  0  0  0
  9 10  1  0  0  0  0
  9 14  1  0  0  0  0
 10 12  1  0  0  0  0
  1 15  1  0  0  0  0
  1 16  1  0  0  0  0
  2 17  1  0  0  0  0
  2 18  1  0  0  0  0
  3 19  1  0  0  0  0
  3 20  1  0  0  0  0
  4 21  1  0  0  0  0
  5 22  1  0  0  0  0
  5 23  1  0  0  0  0
  5 24  1  0  0  0  0
  6 25  1  0  0  0  0
  6 26  1  0  0  0  0
  6 27  1  0  0  0  0
  7 28  1  0  0  0  0
  7 29  1  0  0  0  0
  8 30  1  0  0  0  0
  8 31  1  0  0  0  0
  9 32  1  0  0  0  0
  9 33  1  0  0  0  0
 10 34  1  0  0  0  0
 12 35  1  0  0  0  0
 12 36  1  0  0  0  0
 14 37  1  0  0  0  0
M  END
> <FRED Chemgauss4 score>
-7.299294

$$$$
C82915337	P129630570
  -OEChem-05122015313D

 36 36  0     1  0  0  0  0  0999 V2000
  124.0781  105.8016  108.3481 C   0  0  0  0  0  0  0  0  0  0  0  0
  121.7158  106.2298  108.1431 C   0  0  0  0  0  0  0  0  0  0  0  0
  124.0232  105.0001  107.0410 C   0  0  1  0  0  0  0  0  0  0  0  0
  121.7051  105.4200  106.8399 C   0  0  2  0  0  0  0  0  0  0  0  0
  125.0415  103.8675  107.0524 C   0  0  0  0  0  0  0  0  0  0  0  0
  120.3693  104.7138  106.6481 C   0  0  0  0  0  0  0  0  0  0  0  0
  124.1621  109.1902  109.6901 C   0  0  0  0  0  0  0  0  0  0  0  0
  123.3104  107.9903  107.6064 C   0  0  0  0  0  0  0  0  0  0  0  0
  125.8204  108.5395  107.8629 C   0  0  0  0  0  0  0  0  0  0  0  0
  124.3687  108.9535  108.1880 C   0  0  2  0  0  0  0  0  0  0  0  0
  123.0268  106.8247  108.4390 N   0  0  0  0  0  0  0  0  0  0  0  0
  126.0753  108.2355  106.4612 N   0  0  0  0  0  0  0  0  0  0  0  0
  122.7254  104.4168  106.8842 O   0  0  0  0  0  0  0  0  0  0  0  0
  124.1774  110.2219  107.5352 O   0  0  0  0  0  0  0  0  0  0  0  0
  124.0005  105.1074  109.2139 H   0  0  0  0  0  0  0  0  0  0  0  0
  125.0751  106.2833  108.4311 H   0  0  0  0  0  0  0  0  0  0  0  0
  120.9500  107.0309  108.0733 H   0  0  0  0  0  0  0  0  0  0  0  0
  121.4013  105.5786  108.9883 H   0  0  0  0  0  0  0  0  0  0  0  0
  124.2290  105.6487  106.1809 H   0  0  0  0  0  0  0  0  0  0  0  0
  121.8841  106.0731  105.9775 H   0  0  0  0  0  0  0  0  0  0  0  0
  124.8571  103.2076  107.9005 H   0  0  0  0  0  0  0  0  0  0  0  0
  126.0504  104.2728  107.1335 H   0  0  0  0  0  0  0  0  0  0  0  0
  124.9666  103.2883  106.1316 H   0  0  0  0  0  0  0  0  0  0  0  0
  120.1687  104.0571  107.4951 H   0  0  0  0  0  0  0  0  0  0  0  0
  120.3897  104.1170  105.7359 H   0  0  0  0  0  0  0  0  0  0  0  0
  119.5662  105.4475  106.5722 H   0  0  0  0  0  0  0  0  0  0  0  0
  124.9225  109.8756  110.0824 H   0  0  0  0  0  0  0  0  0  0  0  0
  124.2061  108.2653  110.2726 H   0  0  0  0  0  0  0  0  0  0  0  0
  123.1936  109.6688  109.8755 H   0  0  0  0  0  0  0  0  0  0  0  0
  122.3786  108.5402  107.4233 H   0  0  0  0  0  0  0  0  0  0  0  0
  123.6403  107.6389  106.6209 H   0  0  0  0  0  0  0  0  0  0  0  0
  126.5065  109.3340  108.1832 H   0  0  0  0  0  0  0  0  0  0  0  0
  126.0885  107.6638  108.4673 H   0  0  0  0  0  0  0  0  0  0  0  0
  126.8186  107.6058  106.2417 H   0  0  0  0  0  0  0  0  0  0  0  0
  125.6451  108.8106  105.7672 H   0  0  0  0  0  0  0  0  0  0  0  0
  124.3108  110.0547  106.5934 H   0  0  0  0  0  0  0  0  0  0  0  0
  1  3  1  0  0  0  0
  1 11  1  0  0  0  0
  2  4  1  0  0  0  0
  2 11  1  0  0  0  0
  3  5  1  0  0  0  0
  3 13  1  0  0  0  0
  4  6  1  0  0  0  0
  4 13  1  0  0  0  0
  7 10  1  0  0  0  0
  8 10  1  0  0  0  0
  8 11  1  0  0  0  0
  9 10  1  0  0  0  0
  9 12  1  0  0  0  0
 10 14  1  0  0  0  0
  1 15  1  0  0  0  0
  1 16  1  0  0  0  0
  2 17  1  0  0  0  0
  2 18  1  0  0  0  0
  3 19  1  0  0  0  0
  4 20  1  0  0  0  0
  5 21  1  0  0  0  0
  5 22  1  0  0  0  0
  5 23  1  0  0  0  0
  6 24  1  0  0  0  0
  6 25  1  0  0  0  0
  6 26  1  0  0  0  0
  7 27  1  0  0  0  0
  7 28  1  0  0  0  0
  7 29  1  0  0  0  0
  8 30  1  0  0  0  0
  8 31  1  0  0  0  0
  9 32  1  0  0  0  0
  9 33  1  0  0  0  0
 12 34  1  0  0  0  0
 12 35  1  0  0  0  0
 14 36  1  0  0  0  0
M  END
> <FRED Chemgauss4 score>
-7.298544

$$$$
C98091800	P155914780
  -OEChem-05122015313D

 21 21  0     1  0  0  0  0  0999 V2000
  123.1839  107.8406  109.6555 C   0  0  0  0  0  0  0  0  0  0  0  0
  123.1900  110.2285  111.2815 C   0  0  0  0  0  0  0  0  0  0  0  0
  124.3224  108.8437  109.5507 C   0  0  1  0  0  0  0  0  0  0  0  0
  122.7246  108.9095  111.8700 C   0  0  2  0  0  0  0  0  0  0  0  0
  124.8091  108.9896  108.1162 C   0  0  0  0  0  0  0  0  0  0  0  0
  123.7423  108.3237  112.8363 C   0  0  0  0  0  0  0  0  0  0  0  0
  123.8470  110.1162  110.0708 N   0  0  0  0  0  0  0  0  0  0  0  0
  122.3975  108.0028  110.7816 N   0  0  0  0  0  0  0  0  0  0  0  0
  123.0422  106.9029  108.8730 O   0  0  0  0  0  0  0  0  0  0  0  0
  123.0713  111.2907  111.8899 O   0  0  0  0  0  0  0  0  0  0  0  0
  123.6202  108.9863  114.0834 O   0  0  0  0  0  0  0  0  0  0  0  0
  125.1470  108.5046  110.1858 H   0  0  0  0  0  0  0  0  0  0  0  0
  121.7831  109.0971  112.3990 H   0  0  0  0  0  0  0  0  0  0  0  0
  123.9930  109.3273  107.4763 H   0  0  0  0  0  0  0  0  0  0  0  0
  125.1741  108.0312  107.7452 H   0  0  0  0  0  0  0  0  0  0  0  0
  125.6194  109.7180  108.0679 H   0  0  0  0  0  0  0  0  0  0  0  0
  124.7538  108.4692  112.4522 H   0  0  0  0  0  0  0  0  0  0  0  0
  123.5569  107.2574  112.9787 H   0  0  0  0  0  0  0  0  0  0  0  0
  124.0043  110.9562  109.5220 H   0  0  0  0  0  0  0  0  0  0  0  0
  121.5436  107.4578  110.8522 H   0  0  0  0  0  0  0  0  0  0  0  0
  124.2799  108.5934  114.6794 H   0  0  0  0  0  0  0  0  0  0  0  0
  1  3  1  0  0  0  0
  1  8  1  0  0  0  0
  1  9  2  0  0  0  0
  2  4  1  0  0  0  0
  2  7  1  0  0  0  0
  2 10  2  0  0  0  0
  3  5  1  0  0  0  0
  3  7  1  0  0  0  0
  4  6  1  0  0  0  0
  4  8  1  0  0  0  0
  6 11  1  0  0  0  0
  3 12  1  0  0  0  0
  4 13  1  0  0  0  0
  5 14  1  0  0  0  0
  5 15  1  0  0  0  0
  5 16  1  0  0  0  0
  6 17  1  0  0  0  0
  6 18  1  0  0  0  0
  7 19  1  0  0  0  0
  8 20  1  0  0  0  0
 11 21  1  0  0  0  0
M  END
> <FRED Chemgauss4 score>
-7.293170

$$$$
C19260305	P28485389
  -OEChem-05122015313D

 25 25  0     1  0  0  0  0  0999 V2000
  125.5276  105.8002  107.2960 C   0  0  0  0  0  0  0  0  0  0  0  0
  124.9011  104.5338  106.7612 C   0  0  0  0  0  0  0  0  0  0  0  0
  123.4303  104.6859  107.1298 C   0  0  0  0  0  0  0  0  0  0  0  0
  123.4564  105.5202  108.3948 C   0  0  0  0  0  0  0  0  0  0  0  0
  124.8896  107.4865  109.0621 C   0  0  0  0  0  0  0  0  0  0  0  0
  124.1618  108.8756  107.0530 C   0  0  0  0  0  0  0  0  0  0  0  0
  125.0998  108.7688  108.2556 C   0  0  2  0  0  0  0  0  0  0  0  0
  124.6389  106.3314  108.2279 N   0  0  0  0  0  0  0  0  0  0  0  0
  124.6698  108.0793  105.9576 N   0  0  0  0  0  0  0  0  0  0  0  0
  126.6308  106.2185  106.9781 O   0  0  0  0  0  0  0  0  0  0  0  0
  126.4484  108.8195  107.7901 O   0  0  0  0  0  0  0  0  0  0  0  0
  125.0437  104.4508  105.6811 H   0  0  0  0  0  0  0  0  0  0  0  0
  125.3541  103.6760  107.2680 H   0  0  0  0  0  0  0  0  0  0  0  0
  122.9109  105.2350  106.3342 H   0  0  0  0  0  0  0  0  0  0  0  0
  122.9217  103.7270  107.2628 H   0  0  0  0  0  0  0  0  0  0  0  0
  122.5667  106.1481  108.4948 H   0  0  0  0  0  0  0  0  0  0  0  0
  123.5837  104.9032  109.2902 H   0  0  0  0  0  0  0  0  0  0  0  0
  125.7684  107.2634  109.6752 H   0  0  0  0  0  0  0  0  0  0  0  0
  124.0218  107.5867  109.7220 H   0  0  0  0  0  0  0  0  0  0  0  0
  124.0755  109.9121  106.7107 H   0  0  0  0  0  0  0  0  0  0  0  0
  123.1626  108.5114  107.3131 H   0  0  0  0  0  0  0  0  0  0  0  0
  124.9532  109.6298  108.9193 H   0  0  0  0  0  0  0  0  0  0  0  0
  125.6602  108.0530  105.7982 H   0  0  0  0  0  0  0  0  0  0  0  0
  124.0250  107.7414  105.2666 H   0  0  0  0  0  0  0  0  0  0  0  0
  127.0110  108.8087  108.5790 H   0  0  0  0  0  0  0  0  0  0  0  0
  1  2  1  0  0  0  0
  1  8  1  0  0  0  0
  1 10  2  0  0  0  0
  2  3  1  0  0  0  0
  3  4  1  0  0  0  0
  4  8  1  0  0  0  0
  5  7  1  0  0  0  0
  5  8  1  0  0  0  0
  6  7  1  0  0  0  0
  6  9  1  0  0  0  0
  7 11  1  0  0  0  0
  2 12  1  0  0  0  0
  2 13  1  0  0  0  0
  3 14  1  0  0  0  0
  3 15  1  0  0  0  0
  4 16  1  0  0  0  0
  4 17  1  0  0  0  0
  5 18  1  0  0  0  0
  5 19  1  0  0  0  0
  6 20  1  0  0  0  0
  6 21  1  0  0  0  0
  7 22  1  0  0  0  0
  9 23  1  0  0  0  0
  9 24  1  0  0  0  0
 11 25  1  0  0  0  0
M  END
> <FRED Chemgauss4 score>
-7.292947

$$$$
C16951178	P112299492
  -OEChem-05122015313D

 20 21  0     1  0  0  0  0  0999 V2000
  123.7699  108.3167  108.1807 C   0  0  0  0  0  0  0  0  0  0  0  0
  125.1432  104.0499  107.3523 C   0  0  0  0  0  0  0  0  0  0  0  0
  125.2386  108.4196  108.4835 C   0  0  1  0  0  0  0  0  0  0  0  0
  125.1623  105.4334  107.9398 C   0  0  1  0  0  0  0  0  0  0  0  0
  126.2743  107.7031  107.6247 C   0  0  2  0  0  0  0  0  0  0  0  0
  126.4557  106.2344  108.0326 C   0  0  1  0  0  0  0  0  0  0  0  0
  124.5382  109.4738  107.8151 O   0  0  0  0  0  0  0  0  0  0  0  0
  124.7045  105.1951  106.6048 O   0  0  0  0  0  0  0  0  0  0  0  0
  127.5193  108.3884  107.7455 O   0  0  0  0  0  0  0  0  0  0  0  0
  126.9438  106.1490  109.3700 O   0  0  0  0  0  0  0  0  0  0  0  0
  123.4451  107.6597  107.3847 H   0  0  0  0  0  0  0  0  0  0  0  0
  123.0715  108.4214  109.0007 H   0  0  0  0  0  0  0  0  0  0  0  0
  126.0799  103.5921  107.0627 H   0  0  0  0  0  0  0  0  0  0  0  0
  124.3844  103.3598  107.6972 H   0  0  0  0  0  0  0  0  0  0  0  0
  125.5553  108.5819  109.5040 H   0  0  0  0  0  0  0  0  0  0  0  0
  124.4321  105.6954  108.6923 H   0  0  0  0  0  0  0  0  0  0  0  0
  125.9708  107.7508  106.5726 H   0  0  0  0  0  0  0  0  0  0  0  0
  127.2079  105.7688  107.3860 H   0  0  0  0  0  0  0  0  0  0  0  0
  128.1524  107.9088  107.1895 H   0  0  0  0  0  0  0  0  0  0  0  0
  127.0965  105.2083  109.5476 H   0  0  0  0  0  0  0  0  0  0  0  0
  1  3  1  0  0  0  0
  1  7  1  0  0  0  0
  2  4  1  0  0  0  0
  2  8  1  0  0  0  0
  3  5  1  0  0  0  0
  3  7  1  0  0  0  0
  4  6  1  0  0  0  0
  4  8  1  0  0  0  0
  5  6  1  0  0  0  0
  5  9  1  0  0  0  0
  6 10  1  0  0  0  0
  1 11  1  0  0  0  0
  1 12  1  0  0  0  0
  2 13  1  0  0  0  0
  2 14  1  0  0  0  0
  3 15  1  0  0  0  0
  4 16  1  0  0  0  0
  5 17  1  0  0  0  0
  6 18  1  0  0  0  0
  9 19  1  0  0  0  0
 10 20  1  0  0  0  0
M  END
> <FRED Chemgauss4 score>
-7.292152

$$$$
C39064009	P59184455
  -OEChem-05122015313D

 21 21  0     0  0  0  0  0  0999 V2000
  126.1656  106.2518  108.5365 C   0  0  0  0  0  0  0  0  0  0  0  0
  125.3562  106.4543  107.4886 C   0  0  0  0  0  0  0  0  0  0  0  0
  125.2599  107.7969  106.9198 C   0  0  0  0  0  0  0  0  0  0  0  0
  124.5714  105.3250  106.8830 C   0  0  0  0  0  0  0  0  0  0  0  0
  125.1422  103.9523  107.2858 C   0  0  0  0  0  0  0  0  0  0  0  0
  125.4909  103.8861  108.7778 C   0  0  0  0  0  0  0  0  0  0  0  0
  126.3085  105.0294  109.1400 N   0  0  0  0  0  0  0  0  0  0  0  0
  126.0687  110.0300  107.1468 N   0  0  0  0  0  0  0  0  0  0  0  0
  126.0574  108.7175  107.5751 N   0  0  0  0  0  0  0  0  0  0  0  0
  124.5275  108.0295  105.9551 O   0  0  0  0  0  0  0  0  0  0  0  0
  126.7644  107.0297  108.9943 H   0  0  0  0  0  0  0  0  0  0  0  0
  123.5289  105.4008  107.2148 H   0  0  0  0  0  0  0  0  0  0  0  0
  124.5732  105.4005  105.7894 H   0  0  0  0  0  0  0  0  0  0  0  0
  124.4295  103.1606  107.0294 H   0  0  0  0  0  0  0  0  0  0  0  0
  126.0519  103.7638  106.6999 H   0  0  0  0  0  0  0  0  0  0  0  0
  124.5737  103.8933  109.3776 H   0  0  0  0  0  0  0  0  0  0  0  0
  126.0288  102.9589  109.0002 H   0  0  0  0  0  0  0  0  0  0  0  0
  126.9073  104.9751  109.9565 H   0  0  0  0  0  0  0  0  0  0  0  0
  126.1998  110.6100  107.9747 H   0  0  0  0  0  0  0  0  0  0  0  0
  125.1316  110.2369  106.8036 H   0  0  0  0  0  0  0  0  0  0  0  0
  126.6420  108.4703  108.3678 H   0  0  0  0  0  0  0  0  0  0  0  0
  1  2  2  0  0  0  0
  1  7  1  0  0  0  0
  2  3  1  0  0  0  0
  2  4  1  0  0  0  0
  3  9  1  0  0  0  0
  3 10  2  0  0  0  0
  4  5  1  0  0  0  0
  5  6  1  0  0  0  0
  6  7  1  0  0  0  0
  8  9  1  0  0  0  0
  1 11  1  0  0  0  0
  4 12  1  0  0  0  0
  4 13  1  0  0  0  0
  5 14  1  0  0  0  0
  5 15  1  0  0  0  0
  6 16  1  0  0  0  0
  6 17  1  0  0  0  0
  7 18  1  0  0  0  0
  8 19  1  0  0  0  0
  8 20  1  0  0  0  0
  9 21  1  0  0  0  0
M  END
> <FRED Chemgauss4 score>
-7.290666

$$$$
C58003917	P87342442
  -OEChem-05122015313D

 25 25  0     0  0  0  0  0  0999 V2000
  124.0890  108.5818  109.0066 C   0  0  0  0  0  0  0  0  0  0  0  0
  124.7596  107.3107  109.3433 C   0  0  0  0  0  0  0  0  0  0  0  0
  123.5785  109.4532  109.9143 C   0  0  0  0  0  0  0  0  0  0  0  0
  125.0804  104.3333  106.5837 C   0  0  0  0  0  0  0  0  0  0  0  0
  125.1856  104.0927  108.0905 C   0  0  0  0  0  0  0  0  0  0  0  0
  124.4122  105.6776  106.2902 C   0  0  0  0  0  0  0  0  0  0  0  0
  125.9039  105.2352  108.7989 C   0  0  0  0  0  0  0  0  0  0  0  0
  125.1247  106.8305  106.9875 C   0  0  0  0  0  0  0  0  0  0  0  0
  125.2275  106.5188  108.4445 N   0  3  0  0  0  0  0  0  0  0  0  0
  122.9652  110.6237  109.5097 N   0  0  0  0  0  0  0  0  0  0  0  0
  123.6953  109.0917  111.6662 S   0  5  0  0  0  0  0  0  0  0  0  0
  124.0193  108.7992  107.9415 H   0  0  0  0  0  0  0  0  0  0  0  0
  124.8766  107.0067  110.3911 H   0  0  0  0  0  0  0  0  0  0  0  0
  126.0820  104.3149  106.1372 H   0  0  0  0  0  0  0  0  0  0  0  0
  124.5051  103.5248  106.1190 H   0  0  0  0  0  0  0  0  0  0  0  0
  124.1765  103.9744  108.5065 H   0  0  0  0  0  0  0  0  0  0  0  0
  125.7187  103.1534  108.2759 H   0  0  0  0  0  0  0  0  0  0  0  0
  124.4011  105.8537  105.2086 H   0  0  0  0  0  0  0  0  0  0  0  0
  123.3650  105.6367  106.6171 H   0  0  0  0  0  0  0  0  0  0  0  0
  125.8809  105.0986  109.8852 H   0  0  0  0  0  0  0  0  0  0  0  0
  126.9467  105.3190  108.4750 H   0  0  0  0  0  0  0  0  0  0  0  0
  126.1455  106.9597  106.6124 H   0  0  0  0  0  0  0  0  0  0  0  0
  124.5762  107.7687  106.8535 H   0  0  0  0  0  0  0  0  0  0  0  0
  122.8750  110.8716  108.5350 H   0  0  0  0  0  0  0  0  0  0  0  0
  122.5993  111.2429  110.2224 H   0  0  0  0  0  0  0  0  0  0  0  0
  1  2  1  0  0  0  0
  1  3  2  0  0  0  0
  2  9  2  0  0  0  0
  3 10  1  0  0  0  0
  3 11  1  0  0  0  0
  4  5  1  0  0  0  0
  4  6  1  0  0  0  0
  5  7  1  0  0  0  0
  6  8  1  0  0  0  0
  7  9  1  0  0  0  0
  8  9  1  0  0  0  0
  1 12  1  0  0  0  0
  2 13  1  0  0  0  0
  4 14  1  0  0  0  0
  4 15  1  0  0  0  0
  5 16  1  0  0  0  0
  5 17  1  0  0  0  0
  6 18  1  0  0  0  0
  6 19  1  0  0  0  0
  7 20  1  0  0  0  0
  7 21  1  0  0  0  0
  8 22  1  0  0  0  0
  8 23  1  0  0  0  0
 10 24  1  0  0  0  0
 10 25  1  0  0  0  0
M  CHG  2   9   1  11  -1
M  END
> <FRED Chemgauss4 score>
-7.288699

$$$$
C85353299	P133560721
  -OEChem-05122015313D

 21 22  0     1  0  0  0  0  0999 V2000
  119.6117  103.3124  106.2117 C   0  0  0  0  0  0  0  0  0  0  0  0
  119.5551  105.3979  106.1439 C   0  0  0  0  0  0  0  0  0  0  0  0
  117.7902  107.2617  106.1550 C   0  0  0  0  0  0  0  0  0  0  0  0
  117.9422  106.9368  103.8452 C   0  0  0  0  0  0  0  0  0  0  0  0
  119.2323  106.8557  105.8510 C   0  0  2  0  0  0  0  0  0  0  0  0
  119.3282  107.2576  104.3784 C   0  0  1  0  0  0  0  0  0  0  0  0
  118.9500  104.3539  105.6267 N   0  0  0  0  0  0  0  0  0  0  0  0
  120.5309  104.9854  106.9967 N   0  0  0  0  0  0  0  0  0  0  0  0
  120.5880  103.6463  107.0583 N   0  0  0  0  0  0  0  0  0  0  0  0
  120.3934  106.6433  103.6068 N   0  0  0  0  0  0  0  0  0  0  0  0
  117.0325  107.0954  104.9447 O   0  0  0  0  0  0  0  0  0  0  0  0
  119.3613  102.2806  106.0031 H   0  0  0  0  0  0  0  0  0  0  0  0
  117.3220  106.6823  106.9572 H   0  0  0  0  0  0  0  0  0  0  0  0
  117.7380  108.3234  106.4221 H   0  0  0  0  0  0  0  0  0  0  0  0
  117.6441  107.5981  103.0257 H   0  0  0  0  0  0  0  0  0  0  0  0
  117.8563  105.9008  103.4980 H   0  0  0  0  0  0  0  0  0  0  0  0
  119.9482  107.4585  106.4681 H   0  0  0  0  0  0  0  0  0  0  0  0
  119.4629  108.3429  104.3357 H   0  0  0  0  0  0  0  0  0  0  0  0
  121.2529  103.1457  107.6414 H   0  0  0  0  0  0  0  0  0  0  0  0
  121.2801  106.5009  104.0477 H   0  0  0  0  0  0  0  0  0  0  0  0
  120.2813  106.5685  102.6153 H   0  0  0  0  0  0  0  0  0  0  0  0
  1  7  2  0  0  0  0
  1  9  1  0  0  0  0
  2  5  1  0  0  0  0
  2  7  1  0  0  0  0
  2  8  2  0  0  0  0
  3  5  1  0  0  0  0
  3 11  1  0  0  0  0
  4  6  1  0  0  0  0
  4 11  1  0  0  0  0
  5  6  1  0  0  0  0
  6 10  1  0  0  0  0
  8  9  1  0  0  0  0
  1 12  1  0  0  0  0
  3 13  1  0  0  0  0
  3 14  1  0  0  0  0
  4 15  1  0  0  0  0
  4 16  1  0  0  0  0
  5 17  1  0  0  0  0
  6 18  1  0  0  0  0
  9 19  1  0  0  0  0
 10 20  1  0  0  0  0
 10 21  1  0  0  0  0
M  END
> <FRED Chemgauss4 score>
-7.287770

$$$$
C82591648	P129083677
  -OEChem-05122015313D

 26 26  0     0  0  0  0  0  0999 V2000
  125.5920  105.1365  108.3425 C   0  0  0  0  0  0  0  0  0  0  0  0
  124.2576  104.9411  106.7258 C   0  0  0  0  0  0  0  0  0  0  0  0
  124.6419  104.0110  107.8919 C   0  0  0  0  0  0  0  0  0  0  0  0
  123.7887  109.7769  110.9374 C   0  0  0  0  0  0  0  0  0  0  0  0
  124.5517  108.7340  108.9745 C   0  0  0  0  0  0  0  0  0  0  0  0
  124.4644  108.7316  107.4607 C   0  0  0  0  0  0  0  0  0  0  0  0
  124.8651  106.1066  107.4543 N   0  0  0  0  0  0  0  0  0  0  0  0
  123.5200  103.9447  108.8260 N   0  0  0  0  0  0  0  0  0  0  0  0
  125.2665  107.4761  105.3142 O   0  0  0  0  0  0  0  0  0  0  0  0
  126.8630  107.7150  107.2584 O   0  0  0  0  0  0  0  0  0  0  0  0
  123.7106  109.7429  109.5190 O   0  0  0  0  0  0  0  0  0  0  0  0
  125.5227  107.4972  106.7435 S   0  0  0  0  0  0  0  0  0  0  0  0
  125.5763  105.4260  109.3970 H   0  0  0  0  0  0  0  0  0  0  0  0
  126.6308  104.9992  108.0213 H   0  0  0  0  0  0  0  0  0  0  0  0
  124.7906  104.7297  105.7918 H   0  0  0  0  0  0  0  0  0  0  0  0
  123.1939  105.0773  106.5109 H   0  0  0  0  0  0  0  0  0  0  0  0
  125.0967  103.0532  107.6323 H   0  0  0  0  0  0  0  0  0  0  0  0
  123.1316  110.5615  111.3205 H   0  0  0  0  0  0  0  0  0  0  0  0
  124.8204  109.9701  111.2419 H   0  0  0  0  0  0  0  0  0  0  0  0
  123.4686  108.8106  111.3343 H   0  0  0  0  0  0  0  0  0  0  0  0
  124.2245  107.7706  109.3777 H   0  0  0  0  0  0  0  0  0  0  0  0
  125.5739  108.9201  109.3179 H   0  0  0  0  0  0  0  0  0  0  0  0
  124.7741  109.6906  107.0355 H   0  0  0  0  0  0  0  0  0  0  0  0
  123.4482  108.4980  107.1309 H   0  0  0  0  0  0  0  0  0  0  0  0
  123.7241  103.9025  109.8004 H   0  0  0  0  0  0  0  0  0  0  0  0
  122.6165  103.7401  108.4585 H   0  0  0  0  0  0  0  0  0  0  0  0
  1  3  1  0  0  0  0
  1  7  1  0  0  0  0
  2  3  1  0  0  0  0
  2  7  1  0  0  0  0
  3  8  1  0  0  0  0
  4 11  1  0  0  0  0
  5  6  1  0  0  0  0
  5 11  1  0  0  0  0
  6 12  1  0  0  0  0
  7 12  1  0  0  0  0
  9 12  2  0  0  0  0
 10 12  2  0  0  0  0
  1 13  1  0  0  0  0
  1 14  1  0  0  0  0
  2 15  1  0  0  0  0
  2 16  1  0  0  0  0
  3 17  1  0  0  0  0
  4 18  1  0  0  0  0
  4 19  1  0  0  0  0
  4 20  1  0  0  0  0
  5 21  1  0  0  0  0
  5 22  1  0  0  0  0
  6 23  1  0  0  0  0
  6 24  1  0  0  0  0
  8 25  1  0  0  0  0
  8 26  1  0  0  0  0
M  END
> <FRED Chemgauss4 score>
-7.280303

$$$$
C39134825	P59289426
  -OEChem-05122015313D

 20 20  0     1  0  0  0  0  0999 V2000
  125.9451  104.6439  106.9082 C   0  0  0  0  0  0  0  0  0  0  0  0
  125.3124  104.4711  108.1214 C   0  0  0  0  0  0  0  0  0  0  0  0
  125.0906  106.6523  107.1235 C   0  0  0  0  0  0  0  0  0  0  0  0
  124.4376  109.0950  109.1898 C   0  0  0  0  0  0  0  0  0  0  0  0
  124.7317  108.0959  106.8334 C   0  0  1  0  0  0  0  0  0  0  0  0
  125.2658  109.0681  107.9058 C   0  0  2  0  0  0  0  0  0  0  0  0
  125.8186  105.8939  106.3342 N   0  0  0  0  0  0  0  0  0  0  0  0
  126.6383  108.7351  108.2266 N   0  0  0  0  0  0  0  0  0  0  0  0
  125.1916  108.4722  105.5355 O   0  0  0  0  0  0  0  0  0  0  0  0
  124.5258  105.9268  108.5725 S   0  0  0  0  0  0  0  0  0  0  0  0
  126.5176  103.8835  106.3941 H   0  0  0  0  0  0  0  0  0  0  0  0
  125.2781  103.5889  108.7448 H   0  0  0  0  0  0  0  0  0  0  0  0
  124.3672  108.1019  109.6426 H   0  0  0  0  0  0  0  0  0  0  0  0
  123.4170  109.4351  108.9797 H   0  0  0  0  0  0  0  0  0  0  0  0
  124.8601  109.7833  109.9296 H   0  0  0  0  0  0  0  0  0  0  0  0
  123.6362  108.1614  106.7904 H   0  0  0  0  0  0  0  0  0  0  0  0
  125.3036  110.0845  107.4958 H   0  0  0  0  0  0  0  0  0  0  0  0
  127.0164  109.0445  109.1021 H   0  0  0  0  0  0  0  0  0  0  0  0
  127.2324  108.3889  107.4967 H   0  0  0  0  0  0  0  0  0  0  0  0
  124.9334  109.3980  105.4112 H   0  0  0  0  0  0  0  0  0  0  0  0
  1  2  2  0  0  0  0
  1  7  1  0  0  0  0
  2 10  1  0  0  0  0
  3  5  1  0  0  0  0
  3  7  2  0  0  0  0
  3 10  1  0  0  0  0
  4  6  1  0  0  0  0
  5  6  1  0  0  0  0
  5  9  1  0  0  0  0
  6  8  1  0  0  0  0
  1 11  1  0  0  0  0
  2 12  1  0  0  0  0
  4 13  1  0  0  0  0
  4 14  1  0  0  0  0
  4 15  1  0  0  0  0
  5 16  1  0  0  0  0
  6 17  1  0  0  0  0
  8 18  1  0  0  0  0
  8 19  1  0  0  0  0
  9 20  1  0  0  0  0
M  END
> <FRED Chemgauss4 score>
-7.271220

$$$$
C50194539	P75082831
  -OEChem-05122015313D

 24 25  0     1  0  0  0  0  0999 V2000
  125.0568  108.5462  107.7349 C   0  0  0  0  0  0  0  0  0  0  0  0
  125.7016  106.4861  107.4175 C   0  0  0  0  0  0  0  0  0  0  0  0
  124.3693  109.5479  108.4505 C   0  0  0  0  0  0  0  0  0  0  0  0
  124.2784  106.9679  109.4035 C   0  0  0  0  0  0  0  0  0  0  0  0
  123.7014  109.1883  109.5676 C   0  0  0  0  0  0  0  0  0  0  0  0
  122.9484  110.2039  110.3766 C   0  0  0  0  0  0  0  0  0  0  0  0
  124.5522  104.2417  107.6010 C   0  0  0  0  0  0  0  0  0  0  0  0
  125.8750  105.0360  107.6150 C   0  0  2  0  0  0  0  0  0  0  0  0
  125.7890  108.5242  106.6427 N   0  0  0  0  0  0  0  0  0  0  0  0
  126.1978  107.2167  106.4421 N   0  0  0  0  0  0  0  0  0  0  0  0
  123.6456  107.8915  110.0622 N   0  0  0  0  0  0  0  0  0  0  0  0
  124.9789  107.2808  108.2519 N   0  0  0  0  0  0  0  0  0  0  0  0
  126.6065  104.7166  108.8373 N   0  0  0  0  0  0  0  0  0  0  0  0
  124.3908  110.5713  108.0939 H   0  0  0  0  0  0  0  0  0  0  0  0
  124.2640  105.9243  109.7553 H   0  0  0  0  0  0  0  0  0  0  0  0
  121.9264  110.2713  110.0120 H   0  0  0  0  0  0  0  0  0  0  0  0
  123.4340  111.1728  110.2846 H   0  0  0  0  0  0  0  0  0  0  0  0
  122.9447  109.9036  111.4219 H   0  0  0  0  0  0  0  0  0  0  0  0
  123.8729  104.6197  108.3729 H   0  0  0  0  0  0  0  0  0  0  0  0
  124.0419  104.3156  106.6341 H   0  0  0  0  0  0  0  0  0  0  0  0
  124.7235  103.1766  107.7937 H   0  0  0  0  0  0  0  0  0  0  0  0
  126.5028  104.5958  106.8115 H   0  0  0  0  0  0  0  0  0  0  0  0
  127.3546  105.3179  109.1075 H   0  0  0  0  0  0  0  0  0  0  0  0
  126.4732  103.8150  109.2421 H   0  0  0  0  0  0  0  0  0  0  0  0
  1  3  1  0  0  0  0
  1  9  2  0  0  0  0
  1 12  1  0  0  0  0
  2  8  1  0  0  0  0
  2 10  2  0  0  0  0
  2 12  1  0  0  0  0
  3  5  2  0  0  0  0
  4 11  2  0  0  0  0
  4 12  1  0  0  0  0
  5  6  1  0  0  0  0
  5 11  1  0  0  0  0
  7  8  1  0  0  0  0
  8 13  1  0  0  0  0
  9 10  1  0  0  0  0
  3 14  1  0  0  0  0
  4 15  1  0  0  0  0
  6 16  1  0  0  0  0
  6 17  1  0  0  0  0
  6 18  1  0  0  0  0
  7 19  1  0  0  0  0
  7 20  1  0  0  0  0
  7 21  1  0  0  0  0
  8 22  1  0  0  0  0
 13 23  1  0  0  0  0
 13 24  1  0  0  0  0
M  END
> <FRED Chemgauss4 score>
-7.269526

$$$$
C05600631	P89906419
  -OEChem-05122015313D

 24 24  0     1  0  0  0  0  0999 V2000
  126.3697  105.9233  108.4280 C   0  0  0  0  0  0  0  0  0  0  0  0
  127.3118  106.6806  107.5093 C   0  0  1  0  0  0  0  0  0  0  0  0
  126.4477  107.8447  107.0600 C   0  0  1  0  0  0  0  0  0  0  0  0
  125.6995  108.2149  108.3360 C   0  0  1  0  0  0  0  0  0  0  0  0
  123.6892  109.3321  109.3567 C   0  0  0  0  0  0  0  0  0  0  0  0
  124.3743  108.9153  108.0625 C   0  0  1  0  0  0  0  0  0  0  0  0
  125.5184  106.9460  109.0613 N   0  0  0  0  0  0  0  0  0  0  0  0
  128.4345  107.1233  108.2649 O   0  0  0  0  0  0  0  0  0  0  0  0
  127.2348  108.9083  106.5616 O   0  0  0  0  0  0  0  0  0  0  0  0
  122.4473  109.9525  109.0410 O   0  0  0  0  0  0  0  0  0  0  0  0
  124.6252  110.0869  107.2891 O   0  0  0  0  0  0  0  0  0  0  0  0
  125.7345  105.2492  107.8420 H   0  0  0  0  0  0  0  0  0  0  0  0
  126.8946  105.3429  109.1923 H   0  0  0  0  0  0  0  0  0  0  0  0
  127.6765  106.0736  106.6755 H   0  0  0  0  0  0  0  0  0  0  0  0
  125.7574  107.5123  106.2741 H   0  0  0  0  0  0  0  0  0  0  0  0
  126.3149  108.8827  108.9522 H   0  0  0  0  0  0  0  0  0  0  0  0
  123.4798  108.4652  109.9920 H   0  0  0  0  0  0  0  0  0  0  0  0
  124.2978  110.0532  109.9113 H   0  0  0  0  0  0  0  0  0  0  0  0
  123.7149  108.2679  107.4755 H   0  0  0  0  0  0  0  0  0  0  0  0
  124.5458  106.6425  109.0342 H   0  0  0  0  0  0  0  0  0  0  0  0
  128.8590  106.3279  108.6231 H   0  0  0  0  0  0  0  0  0  0  0  0
  127.7390  108.5626  105.8046 H   0  0  0  0  0  0  0  0  0  0  0  0
  122.0401  110.2040  109.8849 H   0  0  0  0  0  0  0  0  0  0  0  0
  123.7640  110.5047  107.1350 H   0  0  0  0  0  0  0  0  0  0  0  0
  1  2  1  0  0  0  0
  1  7  1  0  0  0  0
  2  3  1  0  0  0  0
  2  8  1  0  0  0  0
  3  4  1  0  0  0  0
  3  9  1  0  0  0  0
  4  6  1  0  0  0  0
  4  7  1  0  0  0  0
  5  6  1  0  0  0  0
  5 10  1  0  0  0  0
  6 11  1  0  0  0  0
  1 12  1  0  0  0  0
  1 13  1  0  0  0  0
  2 14  1  0  0  0  0
  3 15  1  0  0  0  0
  4 16  1  0  0  0  0
  5 17  1  0  0  0  0
  5 18  1  0  0  0  0
  6 19  1  0  0  0  0
  7 20  1  0  0  0  0
  8 21  1  0  0  0  0
  9 22  1  0  0  0  0
 10 23  1  0  0  0  0
 11 24  1  0  0  0  0
M  END
> <FRED Chemgauss4 score>
-7.265417

$$$$
C34538857	P89695694
  -OEChem-05122015313D

 17 17  0     1  0  0  0  0  0999 V2000
  125.7631  106.3972  108.1184 C   0  0  0  0  0  0  0  0  0  0  0  0
  125.8505  108.7142  107.6984 C   0  0  1  0  0  0  0  0  0  0  0  0
  124.7724  108.0940  106.8095 C   0  0  2  0  0  0  0  0  0  0  0  0
  124.1916  105.6769  106.2622 C   0  0  0  0  0  0  0  0  0  0  0  0
  126.2339  107.6398  108.5802 N   0  0  0  0  0  0  0  0  0  0  0  0
  124.9538  106.6640  106.9980 N   0  0  0  0  0  0  0  0  0  0  0  0
  126.0137  105.3066  108.6141 O   0  0  0  0  0  0  0  0  0  0  0  0
  126.9884  109.0973  106.9440 O   0  0  0  0  0  0  0  0  0  0  0  0
  124.9024  108.4449  105.4461 O   0  0  0  0  0  0  0  0  0  0  0  0
  125.4870  109.5294  108.2885 H   0  0  0  0  0  0  0  0  0  0  0  0
  123.7477  108.3888  107.1614 H   0  0  0  0  0  0  0  0  0  0  0  0
  123.1903  105.5802  106.6898 H   0  0  0  0  0  0  0  0  0  0  0  0
  124.6891  104.7043  106.3079 H   0  0  0  0  0  0  0  0  0  0  0  0
  124.0996  105.9746  105.2143 H   0  0  0  0  0  0  0  0  0  0  0  0
  126.7780  107.7650  109.4317 H   0  0  0  0  0  0  0  0  0  0  0  0
  127.6325  109.4822  107.5650 H   0  0  0  0  0  0  0  0  0  0  0  0
  124.8342  109.4125  105.3967 H   0  0  0  0  0  0  0  0  0  0  0  0
  1  5  1  0  0  0  0
  1  6  1  0  0  0  0
  1  7  2  0  0  0  0
  2  3  1  0  0  0  0
  2  5  1  0  0  0  0
  2  8  1  0  0  0  0
  3  6  1  0  0  0  0
  3  9  1  0  0  0  0
  4  6  1  0  0  0  0
  2 10  1  0  0  0  0
  3 11  1  0  0  0  0
  4 12  1  0  0  0  0
  4 13  1  0  0  0  0
  4 14  1  0  0  0  0
  5 15  1  0  0  0  0
  8 16  1  0  0  0  0
  9 17  1  0  0  0  0
M  END
> <FRED Chemgauss4 score>
-7.260240

$$$$
C85253424	P133383802
  -OEChem-05122015313D

 26 26  0     1  0  0  0  0  0999 V2000
  124.3139  106.6997  106.2107 C   0  0  0  0  0  0  0  0  0  0  0  0
  126.0253  106.3936  107.7237 C   0  0  0  0  0  0  0  0  0  0  0  0
  125.2384  107.8639  105.9993 C   0  0  0  0  0  0  0  0  0  0  0  0
  126.3684  107.6604  106.9948 C   0  0  0  0  0  0  0  0  0  0  0  0
  122.9261  106.2935  109.1054 C   0  0  0  0  0  0  0  0  0  0  0  0
  124.2172  104.6926  107.6824 C   0  0  0  0  0  0  0  0  0  0  0  0
  121.6997  105.0461  107.2926 C   0  0  0  0  0  0  0  0  0  0  0  0
  122.8443  104.9821  108.3149 C   0  0  2  0  0  0  0  0  0  0  0  0
  124.8430  105.9059  107.2066 N   0  0  0  0  0  0  0  0  0  0  0  0
  123.2769  106.5295  105.5846 O   0  0  0  0  0  0  0  0  0  0  0  0
  126.7065  105.9135  108.6192 O   0  0  0  0  0  0  0  0  0  0  0  0
  121.8632  104.0613  106.2840 O   0  0  0  0  0  0  0  0  0  0  0  0
  122.5420  103.9522  109.2606 O   0  0  0  0  0  0  0  0  0  0  0  0
  125.6080  107.8603  104.9697 H   0  0  0  0  0  0  0  0  0  0  0  0
  124.7037  108.7992  106.1889 H   0  0  0  0  0  0  0  0  0  0  0  0
  126.4291  108.4908  107.7044 H   0  0  0  0  0  0  0  0  0  0  0  0
  127.3310  107.5459  106.4879 H   0  0  0  0  0  0  0  0  0  0  0  0
  121.9614  106.5291  109.5699 H   0  0  0  0  0  0  0  0  0  0  0  0
  123.6879  106.2518  109.8905 H   0  0  0  0  0  0  0  0  0  0  0  0
  123.1601  107.1341  108.4417 H   0  0  0  0  0  0  0  0  0  0  0  0
  124.1246  103.9901  106.8472 H   0  0  0  0  0  0  0  0  0  0  0  0
  124.8851  104.2406  108.4245 H   0  0  0  0  0  0  0  0  0  0  0  0
  121.6469  106.0326  106.8186 H   0  0  0  0  0  0  0  0  0  0  0  0
  120.7349  104.8863  107.7882 H   0  0  0  0  0  0  0  0  0  0  0  0
  121.1126  104.1545  105.6742 H   0  0  0  0  0  0  0  0  0  0  0  0
  123.2682  103.9509  109.9011 H   0  0  0  0  0  0  0  0  0  0  0  0
  1  3  1  0  0  0  0
  1  9  1  0  0  0  0
  1 10  2  0  0  0  0
  2  4  1  0  0  0  0
  2  9  1  0  0  0  0
  2 11  2  0  0  0  0
  3  4  1  0  0  0  0
  5  8  1  0  0  0  0
  6  8  1  0  0  0  0
  6  9  1  0  0  0  0
  7  8  1  0  0  0  0
  7 12  1  0  0  0  0
  8 13  1  0  0  0  0
  3 14  1  0  0  0  0
  3 15  1  0  0  0  0
  4 16  1  0  0  0  0
  4 17  1  0  0  0  0
  5 18  1  0  0  0  0
  5 19  1  0  0  0  0
  5 20  1  0  0  0  0
  6 21  1  0  0  0  0
  6 22  1  0  0  0  0
  7 23  1  0  0  0  0
  7 24  1  0  0  0  0
 12 25  1  0  0  0  0
 13 26  1  0  0  0  0
M  END
> <FRED Chemgauss4 score>
-7.259299

$$$$
C22059726	P32818286
  -OEChem-05122015313D

 24 24  0     1  0  0  0  0  0999 V2000
  125.5464  108.1903  107.6258 C   0  0  1  0  0  0  0  0  0  0  0  0
  125.3919  107.2446  108.8184 C   0  0  1  0  0  0  0  0  0  0  0  0
  125.5583  107.3936  106.3211 C   0  0  1  0  0  0  0  0  0  0  0  0
  124.2716  106.2041  108.6423 C   0  0  1  0  0  0  0  0  0  0  0  0
  124.3559  106.4500  106.1975 C   0  0  2  0  0  0  0  0  0  0  0  0
  122.8893  106.7186  109.0361 C   0  0  0  0  0  0  0  0  0  0  0  0
  123.1083  107.1293  105.8545 N   0  0  0  0  0  0  0  0  0  0  0  0
  124.2569  105.5972  107.3440 O   0  0  0  0  0  0  0  0  0  0  0  0
  124.4798  109.1338  107.6087 O   0  0  0  0  0  0  0  0  0  0  0  0
  126.6295  106.5509  109.0095 O   0  0  0  0  0  0  0  0  0  0  0  0
  125.6445  108.2779  105.2093 O   0  0  0  0  0  0  0  0  0  0  0  0
  126.4787  108.7573  107.7256 H   0  0  0  0  0  0  0  0  0  0  0  0
  125.2259  107.8396  109.7407 H   0  0  0  0  0  0  0  0  0  0  0  0
  126.5215  106.7889  106.2923 H   0  0  0  0  0  0  0  0  0  0  0  0
  124.4906  105.3502  109.3896 H   0  0  0  0  0  0  0  0  0  0  0  0
  124.5676  105.7545  105.3129 H   0  0  0  0  0  0  0  0  0  0  0  0
  122.5964  107.5354  108.3775 H   0  0  0  0  0  0  0  0  0  0  0  0
  122.9071  107.0795  110.0636 H   0  0  0  0  0  0  0  0  0  0  0  0
  122.1577  105.9157  108.9538 H   0  0  0  0  0  0  0  0  0  0  0  0
  122.2508  106.6594  106.0472 H   0  0  0  0  0  0  0  0  0  0  0  0
  123.1586  107.9311  105.2646 H   0  0  0  0  0  0  0  0  0  0  0  0
  124.5322  109.6247  108.4433 H   0  0  0  0  0  0  0  0  0  0  0  0
  127.3018  107.2284  109.1801 H   0  0  0  0  0  0  0  0  0  0  0  0
  126.4709  108.7707  105.3184 H   0  0  0  0  0  0  0  0  0  0  0  0
  1  2  1  0  0  0  0
  1  3  1  0  0  0  0
  1  9  1  0  0  0  0
  2  4  1  0  0  0  0
  2 10  1  0  0  0  0
  3  5  1  0  0  0  0
  3 11  1  0  0  0  0
  4  6  1  0  0  0  0
  4  8  1  0  0  0  0
  5  7  1  0  0  0  0
  5  8  1  0  0  0  0
  1 12  1  0  0  0  0
  2 13  1  0  0  0  0
  3 14  1  0  0  0  0
  4 15  1  0  0  0  0
  5 16  1  0  0  0  0
  6 17  1  0  0  0  0
  6 18  1  0  0  0  0
  6 19  1  0  0  0  0
  7 20  1  0  0  0  0
  7 21  1  0  0  0  0
  9 22  1  0  0  0  0
 10 23  1  0  0  0  0
 11 24  1  0  0  0  0
M  END
> <FRED Chemgauss4 score>
-7.256695

$$$$
C37751076	P56135865
  -OEChem-05122015313D

 27 27  0     1  0  0  0  0  0999 V2000
  125.2910  107.5627  106.6039 C   0  0  0  0  0  0  0  0  0  0  0  0
  126.3778  107.6076  107.6545 C   0  0  0  0  0  0  0  0  0  0  0  0
  125.0710  105.6200  107.9320 C   0  0  0  0  0  0  0  0  0  0  0  0
  125.8549  106.6521  108.7290 C   0  0  1  0  0  0  0  0  0  0  0  0
  119.5727  107.1195  105.5305 C   0  0  0  0  0  0  0  0  0  0  0  0
  123.5009  105.8974  105.9744 C   0  0  0  0  0  0  0  0  0  0  0  0
  122.1520  106.4816  106.3480 C   0  0  0  0  0  0  0  0  0  0  0  0
  124.5640  106.3933  106.8211 N   0  0  0  0  0  0  0  0  0  0  0  0
  126.9142  106.0765  109.5389 N   0  0  0  0  0  0  0  0  0  0  0  0
  125.1450  108.3913  105.7179 O   0  0  0  0  0  0  0  0  0  0  0  0
  121.3142  106.0309  103.9134 O   0  0  0  0  0  0  0  0  0  0  0  0
  120.3729  104.6460  105.8023 O   0  0  0  0  0  0  0  0  0  0  0  0
  120.8584  105.9152  105.2881 S   0  0  0  0  0  0  0  0  0  0  0  0
  127.3108  107.2593  107.1978 H   0  0  0  0  0  0  0  0  0  0  0  0
  126.5087  108.6222  108.0401 H   0  0  0  0  0  0  0  0  0  0  0  0
  125.7009  104.8197  107.5276 H   0  0  0  0  0  0  0  0  0  0  0  0
  124.2486  105.1880  108.5103 H   0  0  0  0  0  0  0  0  0  0  0  0
  125.1656  107.2026  109.3825 H   0  0  0  0  0  0  0  0  0  0  0  0
  118.7216  106.8451  104.9052 H   0  0  0  0  0  0  0  0  0  0  0  0
  119.2904  107.1144  106.5844 H   0  0  0  0  0  0  0  0  0  0  0  0
  119.9591  108.0983  105.2425 H   0  0  0  0  0  0  0  0  0  0  0  0
  123.5007  104.8056  106.0498 H   0  0  0  0  0  0  0  0  0  0  0  0
  123.7583  106.1722  104.9470 H   0  0  0  0  0  0  0  0  0  0  0  0
  122.1697  107.5714  106.2536 H   0  0  0  0  0  0  0  0  0  0  0  0
  121.8654  106.2204  107.3712 H   0  0  0  0  0  0  0  0  0  0  0  0
  126.7435  105.2034  109.9971 H   0  0  0  0  0  0  0  0  0  0  0  0
  127.6959  106.6526  109.7812 H   0  0  0  0  0  0  0  0  0  0  0  0
  1  2  1  0  0  0  0
  1  8  1  0  0  0  0
  1 10  2  0  0  0  0
  2  4  1  0  0  0  0
  3  4  1  0  0  0  0
  3  8  1  0  0  0  0
  4  9  1  0  0  0  0
  5 13  1  0  0  0  0
  6  7  1  0  0  0  0
  6  8  1  0  0  0  0
  7 13  1  0  0  0  0
 11 13  2  0  0  0  0
 12 13  2  0  0  0  0
  2 14  1  0  0  0  0
  2 15  1  0  0  0  0
  3 16  1  0  0  0  0
  3 17  1  0  0  0  0
  4 18  1  0  0  0  0
  5 19  1  0  0  0  0
  5 20  1  0  0  0  0
  5 21  1  0  0  0  0
  6 22  1  0  0  0  0
  6 23  1  0  0  0  0
  7 24  1  0  0  0  0
  7 25  1  0  0  0  0
  9 26  1  0  0  0  0
  9 27  1  0  0  0  0
M  END
> <FRED Chemgauss4 score>
-7.255179

$$$$
C01843030	P156189276
  -OEChem-05122015313D

 17 17  0     1  0  0  0  0  0999 V2000
  125.7049  107.4909  106.3843 C   0  0  0  0  0  0  0  0  0  0  0  0
  126.9772  106.6568  107.9525 C   0  0  0  0  0  0  0  0  0  0  0  0
  123.5416  104.7482  107.2181 C   0  0  0  0  0  0  0  0  0  0  0  0
  125.3865  106.0283  106.5906 C   0  0  1  0  0  0  0  0  0  0  0  0
  126.2936  105.5931  107.6806 N   0  0  0  0  0  0  0  0  0  0  0  0
  123.9858  105.9329  106.9794 N   0  0  0  0  0  0  0  0  0  0  0  0
  126.7095  107.7778  107.2591 N   0  0  0  0  0  0  0  0  0  0  0  0
  124.1602  103.5293  107.1724 N   0  0  0  0  0  0  0  0  0  0  0  0
  125.1510  108.2436  105.5997 O   0  0  0  0  0  0  0  0  0  0  0  0
  127.9411  106.7278  108.8899 O   0  0  0  0  0  0  0  0  0  0  0  0
  122.2378  104.6318  107.5832 O   0  0  0  0  0  0  0  0  0  0  0  0
  125.5889  105.4647  105.6753 H   0  0  0  0  0  0  0  0  0  0  0  0
  127.1710  108.6727  107.3674 H   0  0  0  0  0  0  0  0  0  0  0  0
  125.1369  103.4303  106.9184 H   0  0  0  0  0  0  0  0  0  0  0  0
  123.6543  102.6790  107.3952 H   0  0  0  0  0  0  0  0  0  0  0  0
  128.0649  105.8748  109.3445 H   0  0  0  0  0  0  0  0  0  0  0  0
  121.9955  103.7029  107.7417 H   0  0  0  0  0  0  0  0  0  0  0  0
  1  4  1  0  0  0  0
  1  7  1  0  0  0  0
  1  9  2  0  0  0  0
  2  5  2  0  0  0  0
  2  7  1  0  0  0  0
  2 10  1  0  0  0  0
  3  6  2  0  0  0  0
  3  8  1  0  0  0  0
  3 11  1  0  0  0  0
  4  5  1  0  0  0  0
  4  6  1  0  0  0  0
  4 12  1  0  0  0  0
  7 13  1  0  0  0  0
  8 14  1  0  0  0  0
  8 15  1  0  0  0  0
 10 16  1  0  0  0  0
 11 17  1  0  0  0  0
M  END
> <FRED Chemgauss4 score>
-7.250667

$$$$
C85169846	P133261998
  -OEChem-05122015313D

 34 34  0     1  0  0  0  0  0999 V2000
  118.6032  104.0882  104.7584 C   0  0  0  0  0  0  0  0  0  0  0  0
  119.3303  104.2054  106.7554 C   0  0  0  0  0  0  0  0  0  0  0  0
  118.6863  105.4312  105.0410 C   0  0  0  0  0  0  0  0  0  0  0  0
  115.3310  106.5482  103.6344 C   0  0  0  0  0  0  0  0  0  0  0  0
  115.2208  107.1427  106.0798 C   0  0  0  0  0  0  0  0  0  0  0  0
  119.4170  106.6816  107.0960 C   0  0  0  0  0  0  0  0  0  0  0  0
  116.9670  108.6035  104.0031 C   0  0  0  0  0  0  0  0  0  0  0  0
  119.5790  107.5731  103.9813 C   0  0  0  0  0  0  0  0  0  0  0  0
  118.3642  106.6597  104.2080 C   0  0  2  0  0  0  0  0  0  0  0  0
  116.0826  106.5837  104.9572 C   0  0  0  0  0  0  0  0  0  0  0  0
  119.0052  103.3305  105.8297 N   0  0  0  0  0  0  0  0  0  0  0  0
  119.1531  105.4905  106.3239 N   0  0  0  0  0  0  0  0  0  0  0  0
  120.7750  106.8232  103.6985 N   0  0  0  0  0  0  0  0  0  0  0  0
  117.2715  107.4226  104.8102 N   0  0  2  0  0  0  0  0  0  0  0  0
  118.2746  103.6259  103.8387 H   0  0  0  0  0  0  0  0  0  0  0  0
  119.6956  103.9702  107.7458 H   0  0  0  0  0  0  0  0  0  0  0  0
  114.9913  107.5500  103.3519 H   0  0  0  0  0  0  0  0  0  0  0  0
  115.9618  106.1612  102.8262 H   0  0  0  0  0  0  0  0  0  0  0  0
  114.4513  105.8991  103.7045 H   0  0  0  0  0  0  0  0  0  0  0  0
  114.8788  108.1552  105.8394 H   0  0  0  0  0  0  0  0  0  0  0  0
  115.7841  107.1889  107.0176 H   0  0  0  0  0  0  0  0  0  0  0  0
  114.3307  106.5257  106.2465 H   0  0  0  0  0  0  0  0  0  0  0  0
  120.4553  106.9747  106.9197 H   0  0  0  0  0  0  0  0  0  0  0  0
  118.7363  107.4776  106.7816 H   0  0  0  0  0  0  0  0  0  0  0  0
  119.2535  106.4686  108.1561 H   0  0  0  0  0  0  0  0  0  0  0  0
  116.1499  109.1692  104.4582 H   0  0  0  0  0  0  0  0  0  0  0  0
  116.6693  108.3052  102.9941 H   0  0  0  0  0  0  0  0  0  0  0  0
  117.8460  109.2499  103.9324 H   0  0  0  0  0  0  0  0  0  0  0  0
  119.4131  108.2273  103.1178 H   0  0  0  0  0  0  0  0  0  0  0  0
  119.7903  108.2121  104.8453 H   0  0  0  0  0  0  0  0  0  0  0  0
  118.0103  106.3254  103.2240 H   0  0  0  0  0  0  0  0  0  0  0  0
  116.4124  105.5725  105.2193 H   0  0  0  0  0  0  0  0  0  0  0  0
  121.6712  107.2394  103.8917 H   0  0  0  0  0  0  0  0  0  0  0  0
  120.7100  105.9932  103.1322 H   0  0  0  0  0  0  0  0  0  0  0  0
  1  3  2  0  0  0  0
  1 11  1  0  0  0  0
  2 11  2  0  0  0  0
  2 12  1  0  0  0  0
  3  9  1  0  0  0  0
  3 12  1  0  0  0  0
  4 10  1  0  0  0  0
  5 10  1  0  0  0  0
  6 12  1  0  0  0  0
  7 14  1  0  0  0  0
  8  9  1  0  0  0  0
  8 13  1  0  0  0  0
  9 14  1  0  0  0  0
 10 14  1  0  0  0  0
  1 15  1  0  0  0  0
  2 16  1  0  0  0  0
  4 17  1  0  0  0  0
  4 18  1  0  0  0  0
  4 19  1  0  0  0  0
  5 20  1  0  0  0  0
  5 21  1  0  0  0  0
  5 22  1  0  0  0  0
  6 23  1  0  0  0  0
  6 24  1  0  0  0  0
  6 25  1  0  0  0  0
  7 26  1  0  0  0  0
  7 27  1  0  0  0  0
  7 28  1  0  0  0  0
  8 29  1  0  0  0  0
  8 30  1  0  0  0  0
  9 31  1  0  0  0  0
 10 32  1  0  0  0  0
 13 33  1  0  0  0  0
 13 34  1  0  0  0  0
M  END
> <FRED Chemgauss4 score>
-7.249403

$$$$
C18140548	P112439822
  -OEChem-05122015313D

 22 22  0     0  0  0  0  0  0999 V2000
  124.4238  106.1184  108.2223 C   0  0  0  0  0  0  0  0  0  0  0  0
  125.3986  105.0095  108.1637 C   0  0  0  0  0  0  0  0  0  0  0  0
  125.0131  107.2233  108.9976 C   0  0  0  0  0  0  0  0  0  0  0  0
  123.2132  106.1199  107.6671 C   0  0  0  0  0  0  0  0  0  0  0  0
  126.6373  105.4126  108.9164 C   0  0  0  0  0  0  0  0  0  0  0  0
  121.4039  105.1217  106.3799 C   0  0  0  0  0  0  0  0  0  0  0  0
  121.4585  105.8774  105.0647 C   0  0  0  0  0  0  0  0  0  0  0  0
  126.2723  106.7518  109.3600 N   0  0  0  0  0  0  0  0  0  0  0  0
  122.7194  105.0664  106.9596 N   0  0  0  0  0  0  0  0  0  0  0  0
  125.2265  103.9434  107.5978 O   0  0  0  0  0  0  0  0  0  0  0  0
  124.4953  108.2951  109.2502 O   0  0  0  0  0  0  0  0  0  0  0  0
  121.8948  107.2095  105.3033 O   0  0  0  0  0  0  0  0  0  0  0  0
  122.5475  106.9719  107.7516 H   0  0  0  0  0  0  0  0  0  0  0  0
  126.8051  104.7802  109.7892 H   0  0  0  0  0  0  0  0  0  0  0  0
  127.5065  105.4780  108.2605 H   0  0  0  0  0  0  0  0  0  0  0  0
  120.7353  105.6141  107.0930 H   0  0  0  0  0  0  0  0  0  0  0  0
  121.0600  104.0960  106.2158 H   0  0  0  0  0  0  0  0  0  0  0  0
  120.4608  105.9236  104.6174 H   0  0  0  0  0  0  0  0  0  0  0  0
  122.1457  105.4034  104.3563 H   0  0  0  0  0  0  0  0  0  0  0  0
  126.9099  107.3181  109.9106 H   0  0  0  0  0  0  0  0  0  0  0  0
  123.3066  104.2708  106.8661 H   0  0  0  0  0  0  0  0  0  0  0  0
  121.9155  107.6554  104.4413 H   0  0  0  0  0  0  0  0  0  0  0  0
  1  2  1  0  0  0  0
  1  3  1  0  0  0  0
  1  4  2  0  0  0  0
  2  5  1  0  0  0  0
  2 10  2  0  0  0  0
  3  8  1  0  0  0  0
  3 11  2  0  0  0  0
  4  9  1  0  0  0  0
  5  8  1  0  0  0  0
  6  7  1  0  0  0  0
  6  9  1  0  0  0  0
  7 12  1  0  0  0  0
  4 13  1  0  0  0  0
  5 14  1  0  0  0  0
  5 15  1  0  0  0  0
  6 16  1  0  0  0  0
  6 17  1  0  0  0  0
  7 18  1  0  0  0  0
  7 19  1  0  0  0  0
  8 20  1  0  0  0  0
  9 21  1  0  0  0  0
 12 22  1  0  0  0  0
M  END
> <FRED Chemgauss4 score>
-7.248038

$$$$
C87375881	P136703724
  -OEChem-05122015313D

 27 27  0     0  0  0  0  0  0999 V2000
  123.5009  105.4315  107.5843 C   0  0  0  0  0  0  0  0  0  0  0  0
  124.7451  104.8631  107.4082 C   0  0  0  0  0  0  0  0  0  0  0  0
  124.7300  107.2150  107.9288 C   0  0  0  0  0  0  0  0  0  0  0  0
  122.2038  104.7314  107.4857 C   0  0  0  0  0  0  0  0  0  0  0  0
  125.1182  103.4707  107.0875 C   0  0  0  0  0  0  0  0  0  0  0  0
  125.1224  108.6328  108.2287 C   0  0  0  0  0  0  0  0  0  0  0  0
  122.6568  109.8803  110.7815 C   0  0  0  0  0  0  0  0  0  0  0  0
  123.8225  109.1057  110.1901 C   0  0  0  0  0  0  0  0  0  0  0  0
  123.4903  106.7799  107.8833 N   0  0  0  0  0  0  0  0  0  0  0  0
  122.8338  111.3027  110.6618 N   0  0  0  0  0  0  0  0  0  0  0  0
  124.0126  109.4000  108.7955 N   0  0  0  0  0  0  0  0  0  0  0  0
  125.9582  106.0565  107.6214 S   0  0  0  0  0  0  0  0  0  0  0  0
  121.8980  104.3246  108.4630 H   0  0  0  0  0  0  0  0  0  0  0  0
  121.4001  105.3996  107.1334 H   0  0  0  0  0  0  0  0  0  0  0  0
  122.2407  103.8935  106.7693 H   0  0  0  0  0  0  0  0  0  0  0  0
  125.1768  103.3167  105.9978 H   0  0  0  0  0  0  0  0  0  0  0  0
  126.0955  103.1951  107.5186 H   0  0  0  0  0  0  0  0  0  0  0  0
  124.3913  102.7451  107.4906 H   0  0  0  0  0  0  0  0  0  0  0  0
  125.9518  108.6608  108.9438 H   0  0  0  0  0  0  0  0  0  0  0  0
  125.4570  109.1480  107.3222 H   0  0  0  0  0  0  0  0  0  0  0  0
  122.5262  109.6554  111.8448 H   0  0  0  0  0  0  0  0  0  0  0  0
  121.7313  109.6265  110.2555 H   0  0  0  0  0  0  0  0  0  0  0  0
  124.7522  109.3695  110.7037 H   0  0  0  0  0  0  0  0  0  0  0  0
  123.6704  108.0254  110.2807 H   0  0  0  0  0  0  0  0  0  0  0  0
  123.7491  111.6977  110.8077 H   0  0  0  0  0  0  0  0  0  0  0  0
  122.0215  111.8983  110.6379 H   0  0  0  0  0  0  0  0  0  0  0  0
  124.2121  110.3983  108.6681 H   0  0  0  0  0  0  0  0  0  0  0  0
  1  2  2  0  0  0  0
  1  4  1  0  0  0  0
  1  9  1  0  0  0  0
  2  5  1  0  0  0  0
  2 12  1  0  0  0  0
  3  6  1  0  0  0  0
  3  9  2  0  0  0  0
  3 12  1  0  0  0  0
  6 11  1  0  0  0  0
  7  8  1  0  0  0  0
  7 10  1  0  0  0  0
  8 11  1  0  0  0  0
  4 13  1  0  0  0  0
  4 14  1  0  0  0  0
  4 15  1  0  0  0  0
  5 16  1  0  0  0  0
  5 17  1  0  0  0  0
  5 18  1  0  0  0  0
  6 19  1  0  0  0  0
  6 20  1  0  0  0  0
  7 21  1  0  0  0  0
  7 22  1  0  0  0  0
  8 23  1  0  0  0  0
  8 24  1  0  0  0  0
 10 25  1  0  0  0  0
 10 26  1  0  0  0  0
 11 27  1  0  0  0  0
M  END
> <FRED Chemgauss4 score>
-7.239748

$$$$
C26471307	P39070368
  -OEChem-05122015313D

 19 19  0     0  0  0  0  0  0999 V2000
  123.7028  107.8494  110.3865 C   0  0  0  0  0  0  0  0  0  0  0  0
  124.4753  107.8564  109.2887 C   0  0  0  0  0  0  0  0  0  0  0  0
  124.7882  109.1802  108.6803 C   0  0  0  0  0  0  0  0  0  0  0  0
  123.4453  110.0943  110.4755 C   0  0  0  0  0  0  0  0  0  0  0  0
  122.9089  111.3610  111.0766 C   0  0  0  0  0  0  0  0  0  0  0  0
  125.0344  106.6294  108.6464 C   0  0  0  0  0  0  0  0  0  0  0  0
  123.1673  108.9471  111.0111 N   0  0  0  0  0  0  0  0  0  0  0  0
  124.2244  110.2509  109.3489 N   0  0  0  0  0  0  0  0  0  0  0  0
  126.4312  106.5670  108.9723 N   0  0  0  0  0  0  0  0  0  0  0  0
  125.4857  109.2844  107.6761 O   0  0  0  0  0  0  0  0  0  0  0  0
  123.4527  106.9038  110.8586 H   0  0  0  0  0  0  0  0  0  0  0  0
  123.6147  111.7395  111.8119 H   0  0  0  0  0  0  0  0  0  0  0  0
  121.9543  111.1582  111.5565 H   0  0  0  0  0  0  0  0  0  0  0  0
  122.7653  112.1009  110.2926 H   0  0  0  0  0  0  0  0  0  0  0  0
  124.8936  106.7001  107.5674 H   0  0  0  0  0  0  0  0  0  0  0  0
  124.5088  105.7564  109.0349 H   0  0  0  0  0  0  0  0  0  0  0  0
  124.3906  111.1891  108.9966 H   0  0  0  0  0  0  0  0  0  0  0  0
  126.9616  107.4225  109.0381 H   0  0  0  0  0  0  0  0  0  0  0  0
  126.9085  105.6791  108.9308 H   0  0  0  0  0  0  0  0  0  0  0  0
  1  2  2  0  0  0  0
  1  7  1  0  0  0  0
  2  3  1  0  0  0  0
  2  6  1  0  0  0  0
  3  8  1  0  0  0  0
  3 10  2  0  0  0  0
  4  5  1  0  0  0  0
  4  7  2  0  0  0  0
  4  8  1  0  0  0  0
  6  9  1  0  0  0  0
  1 11  1  0  0  0  0
  5 12  1  0  0  0  0
  5 13  1  0  0  0  0
  5 14  1  0  0  0  0
  6 15  1  0  0  0  0
  6 16  1  0  0  0  0
  8 17  1  0  0  0  0
  9 18  1  0  0  0  0
  9 19  1  0  0  0  0
M  END
> <FRED Chemgauss4 score>
-7.230748

$$$$
C04293662	P05643503
  -OEChem-05122015313D

 26 26  0     1  0  0  0  0  0999 V2000
  124.7453  105.0906  107.2989 C   0  0  2  0  0  0  0  0  0  0  0  0
  126.0695  105.8671  107.3718 C   0  0  2  0  0  0  0  0  0  0  0  0
  125.8215  107.3780  107.3752 C   0  0  2  0  0  0  0  0  0  0  0  0
  124.8245  107.7406  108.4805 C   0  0  1  0  0  0  0  0  0  0  0  0
  123.7884  105.5915  108.3953 C   0  0  1  0  0  0  0  0  0  0  0  0
  124.9797  103.5797  107.4045 C   0  0  0  0  0  0  0  0  0  0  0  0
  124.4631  109.2211  108.4931 C   0  0  0  0  0  0  0  0  0  0  0  0
  123.6080  107.0057  108.3001 O   0  0  0  0  0  0  0  0  0  0  0  0
  126.9044  105.5130  106.2736 O   0  0  0  0  0  0  0  0  0  0  0  0
  125.3006  107.7558  106.0993 O   0  0  0  0  0  0  0  0  0  0  0  0
  122.5301  104.9394  108.2386 O   0  0  0  0  0  0  0  0  0  0  0  0
  125.6362  109.9751  108.2455 O   0  0  0  0  0  0  0  0  0  0  0  0
  124.2857  105.2678  106.3164 H   0  0  0  0  0  0  0  0  0  0  0  0
  126.6015  105.5876  108.2903 H   0  0  0  0  0  0  0  0  0  0  0  0
  126.7709  107.9098  107.5069 H   0  0  0  0  0  0  0  0  0  0  0  0
  125.2464  107.4828  109.4603 H   0  0  0  0  0  0  0  0  0  0  0  0
  124.1754  105.3415  109.3914 H   0  0  0  0  0  0  0  0  0  0  0  0
  125.4356  103.3484  108.3638 H   0  0  0  0  0  0  0  0  0  0  0  0
  125.6404  103.2573  106.6040 H   0  0  0  0  0  0  0  0  0  0  0  0
  124.0299  103.0575  107.3211 H   0  0  0  0  0  0  0  0  0  0  0  0
  124.0567  109.4981  109.4665 H   0  0  0  0  0  0  0  0  0  0  0  0
  123.7287  109.4332  107.7154 H   0  0  0  0  0  0  0  0  0  0  0  0
  127.7206  106.0284  106.3684 H   0  0  0  0  0  0  0  0  0  0  0  0
  125.1561  108.7130  106.1366 H   0  0  0  0  0  0  0  0  0  0  0  0
  121.9551  105.2773  108.9423 H   0  0  0  0  0  0  0  0  0  0  0  0
  125.3802  110.9130  108.2585 H   0  0  0  0  0  0  0  0  0  0  0  0
  1  2  1  0  0  0  0
  1  5  1  0  0  0  0
  1  6  1  0  0  0  0
  2  3  1  0  0  0  0
  2  9  1  0  0  0  0
  3  4  1  0  0  0  0
  3 10  1  0  0  0  0
  4  7  1  0  0  0  0
  4  8  1  0  0  0  0
  5  8  1  0  0  0  0
  5 11  1  0  0  0  0
  7 12  1  0  0  0  0
  1 13  1  0  0  0  0
  2 14  1  0  0  0  0
  3 15  1  0  0  0  0
  4 16  1  0  0  0  0
  5 17  1  0  0  0  0
  6 18  1  0  0  0  0
  6 19  1  0  0  0  0
  6 20  1  0  0  0  0
  7 21  1  0  0  0  0
  7 22  1  0  0  0  0
  9 23  1  0  0  0  0
 10 24  1  0  0  0  0
 11 25  1  0  0  0  0
 12 26  1  0  0  0  0
M  END
> <FRED Chemgauss4 score>
-7.229031

$$$$
C82561209	P129033956
  -OEChem-05122015313D

 28 28  0     1  0  0  0  0  0999 V2000
  123.3669  109.9505  111.0541 C   0  0  0  0  0  0  0  0  0  0  0  0
  124.2287  108.9277  109.4760 C   0  0  0  0  0  0  0  0  0  0  0  0
  123.5029  113.2220  113.2001 C   0  0  0  0  0  0  0  0  0  0  0  0
  122.1479  110.5619  113.1591 C   0  0  0  0  0  0  0  0  0  0  0  0
  123.9985  112.0687  112.3360 C   0  0  0  0  0  0  0  0  0  0  0  0
  124.1870  108.8779  106.9459 C   0  0  0  0  0  0  0  0  0  0  0  0
  122.8747  111.0978  111.9196 C   0  0  1  0  0  0  0  0  0  0  0  0
  124.8886  108.4431  108.2561 C   0  0  1  0  0  0  0  0  0  0  0  0
  123.9877  110.1568  109.8566 N   0  0  0  0  0  0  0  0  0  0  0  0
  123.2190  108.6737  111.4195 N   0  0  0  0  0  0  0  0  0  0  0  0
  126.2971  108.8357  108.1906 N   0  0  0  0  0  0  0  0  0  0  0  0
  123.8021  107.9802  110.3515 O   0  0  0  0  0  0  0  0  0  0  0  0
  124.8652  108.3474  105.8118 O   0  0  0  0  0  0  0  0  0  0  0  0
  122.9864  112.8332  114.0837 H   0  0  0  0  0  0  0  0  0  0  0  0
  124.3295  113.8491  113.5475 H   0  0  0  0  0  0  0  0  0  0  0  0
  122.7990  113.8520  112.6471 H   0  0  0  0  0  0  0  0  0  0  0  0
  122.8108  109.9667  113.7965 H   0  0  0  0  0  0  0  0  0  0  0  0
  121.7581  111.3876  113.7642 H   0  0  0  0  0  0  0  0  0  0  0  0
  121.3004  109.9284  112.8739 H   0  0  0  0  0  0  0  0  0  0  0  0
  124.5126  112.4752  111.4569 H   0  0  0  0  0  0  0  0  0  0  0  0
  124.7533  111.5159  112.9094 H   0  0  0  0  0  0  0  0  0  0  0  0
  123.1610  108.4942  106.9277 H   0  0  0  0  0  0  0  0  0  0  0  0
  124.1557  109.9686  106.8487 H   0  0  0  0  0  0  0  0  0  0  0  0
  122.1366  111.6764  111.3474 H   0  0  0  0  0  0  0  0  0  0  0  0
  124.9379  107.3316  108.2313 H   0  0  0  0  0  0  0  0  0  0  0  0
  126.7273  108.8791  107.2940 H   0  0  0  0  0  0  0  0  0  0  0  0
  126.8181  108.8442  109.0388 H   0  0  0  0  0  0  0  0  0  0  0  0
  124.3798  108.6539  105.0298 H   0  0  0  0  0  0  0  0  0  0  0  0
  1  7  1  0  0  0  0
  1  9  1  0  0  0  0
  1 10  2  0  0  0  0
  2  8  1  0  0  0  0
  2  9  2  0  0  0  0
  2 12  1  0  0  0  0
  3  5  1  0  0  0  0
  4  7  1  0  0  0  0
  5  7  1  0  0  0  0
  6  8  1  0  0  0  0
  6 13  1  0  0  0  0
  8 11  1  0  0  0  0
 10 12  1  0  0  0  0
  3 14  1  0  0  0  0
  3 15  1  0  0  0  0
  3 16  1  0  0  0  0
  4 17  1  0  0  0  0
  4 18  1  0  0  0  0
  4 19  1  0  0  0  0
  5 20  1  0  0  0  0
  5 21  1  0  0  0  0
  6 22  1  0  0  0  0
  6 23  1  0  0  0  0
  7 24  1  0  0  0  0
  8 25  1  0  0  0  0
 11 26  1  0  0  0  0
 11 27  1  0  0  0  0
 13 28  1  0  0  0  0
M  END
> <FRED Chemgauss4 score>
-7.227191

$$$$
C82632200	P129134191
  -OEChem-05122015313D

 22 22  0     0  0  0  0  0  0999 V2000
  124.6010  105.6369  107.5111 C   0  0  0  0  0  0  0  0  0  0  0  0
  125.8539  107.4319  106.7716 C   0  0  0  0  0  0  0  0  0  0  0  0
  125.8339  105.9336  106.7148 C   0  0  0  0  0  0  0  0  0  0  0  0
  124.1361  104.2439  107.7519 C   0  0  0  0  0  0  0  0  0  0  0  0
  124.3090  109.1048  107.8652 C   0  0  0  0  0  0  0  0  0  0  0  0
  123.6152  109.0918  109.2151 C   0  0  0  0  0  0  0  0  0  0  0  0
  123.9969  106.6937  107.9569 N   0  0  0  0  0  0  0  0  0  0  0  0
  124.7305  107.7687  107.5253 N   0  0  0  0  0  0  0  0  0  0  0  0
  123.4552  104.2204  109.0175 N   0  0  0  0  0  0  0  0  0  0  0  0
  126.6879  108.1577  106.2578 O   0  0  0  0  0  0  0  0  0  0  0  0
  123.2330  110.4166  109.5624 O   0  0  0  0  0  0  0  0  0  0  0  0
  126.7165  105.5122  107.1991 H   0  0  0  0  0  0  0  0  0  0  0  0
  125.7232  105.5827  105.6873 H   0  0  0  0  0  0  0  0  0  0  0  0
  125.0000  103.5758  107.7709 H   0  0  0  0  0  0  0  0  0  0  0  0
  123.4582  103.9480  106.9481 H   0  0  0  0  0  0  0  0  0  0  0  0
  123.6386  109.4637  107.0779 H   0  0  0  0  0  0  0  0  0  0  0  0
  125.1963  109.7442  107.8992 H   0  0  0  0  0  0  0  0  0  0  0  0
  124.3009  108.7251  109.9853 H   0  0  0  0  0  0  0  0  0  0  0  0
  122.7216  108.4594  109.2023 H   0  0  0  0  0  0  0  0  0  0  0  0
  123.7926  104.8017  109.7687 H   0  0  0  0  0  0  0  0  0  0  0  0
  122.7887  103.4875  109.2041 H   0  0  0  0  0  0  0  0  0  0  0  0
  122.7954  110.3636  110.4272 H   0  0  0  0  0  0  0  0  0  0  0  0
  1  3  1  0  0  0  0
  1  4  1  0  0  0  0
  1  7  2  0  0  0  0
  2  3  1  0  0  0  0
  2  8  1  0  0  0  0
  2 10  2  0  0  0  0
  4  9  1  0  0  0  0
  5  6  1  0  0  0  0
  5  8  1  0  0  0  0
  6 11  1  0  0  0  0
  7  8  1  0  0  0  0
  3 12  1  0  0  0  0
  3 13  1  0  0  0  0
  4 14  1  0  0  0  0
  4 15  1  0  0  0  0
  5 16  1  0  0  0  0
  5 17  1  0  0  0  0
  6 18  1  0  0  0  0
  6 19  1  0  0  0  0
  9 20  1  0  0  0  0
  9 21  1  0  0  0  0
 11 22  1  0  0  0  0
M  END
> <FRED Chemgauss4 score>
-7.225949

$$$$
C20443548	P30507208
  -OEChem-05122015313D

 20 20  0     1  0  0  0  0  0999 V2000
  123.4281  104.9364  107.9899 C   0  0  0  0  0  0  0  0  0  0  0  0
  124.4571  104.1586  107.5018 C   0  0  0  0  0  0  0  0  0  0  0  0
  124.8373  106.5372  107.4784 C   0  0  0  0  0  0  0  0  0  0  0  0
  124.5005  109.0536  107.7510 C   0  0  0  0  0  0  0  0  0  0  0  0
  124.4742  109.2503  109.2632 C   0  0  0  0  0  0  0  0  0  0  0  0
  125.4342  107.9178  107.3030 C   0  0  2  0  0  0  0  0  0  0  0  0
  123.6444  106.3006  107.9776 N   0  0  0  0  0  0  0  0  0  0  0  0
  125.8433  108.1167  105.9291 N   0  0  0  0  0  0  0  0  0  0  0  0
  123.5703  110.3041  109.5706 O   0  0  0  0  0  0  0  0  0  0  0  0
  125.7526  105.1656  107.0028 S   0  0  0  0  0  0  0  0  0  0  0  0
  122.4897  104.5552  108.3698 H   0  0  0  0  0  0  0  0  0  0  0  0
  124.5069  103.0825  107.4154 H   0  0  0  0  0  0  0  0  0  0  0  0
  124.8206  109.9949  107.2830 H   0  0  0  0  0  0  0  0  0  0  0  0
  123.4769  108.8956  107.3860 H   0  0  0  0  0  0  0  0  0  0  0  0
  124.1330  108.3474  109.7782 H   0  0  0  0  0  0  0  0  0  0  0  0
  125.4656  109.5234  109.6380 H   0  0  0  0  0  0  0  0  0  0  0  0
  126.3611  107.9906  107.8858 H   0  0  0  0  0  0  0  0  0  0  0  0
  126.2001  107.3334  105.4139 H   0  0  0  0  0  0  0  0  0  0  0  0
  125.9540  109.0545  105.5900 H   0  0  0  0  0  0  0  0  0  0  0  0
  123.5760  110.4044  110.5361 H   0  0  0  0  0  0  0  0  0  0  0  0
  1  2  2  0  0  0  0
  1  7  1  0  0  0  0
  2 10  1  0  0  0  0
  3  6  1  0  0  0  0
  3  7  2  0  0  0  0
  3 10  1  0  0  0  0
  4  5  1  0  0  0  0
  4  6  1  0  0  0  0
  5  9  1  0  0  0  0
  6  8  1  0  0  0  0
  1 11  1  0  0  0  0
  2 12  1  0  0  0  0
  4 13  1  0  0  0  0
  4 14  1  0  0  0  0
  5 15  1  0  0  0  0
  5 16  1  0  0  0  0
  6 17  1  0  0  0  0
  8 18  1  0  0  0  0
  8 19  1  0  0  0  0
  9 20  1  0  0  0  0
M  END
> <FRED Chemgauss4 score>
-7.220697

$$$$
C49647899	P74165113
  -OEChem-05122015313D

 25 25  0     1  0  0  0  0  0999 V2000
  125.8655  108.0926  107.2194 C   0  0  0  0  0  0  0  0  0  0  0  0
  124.7213  108.2882  109.3007 C   0  0  0  0  0  0  0  0  0  0  0  0
  125.2222  106.8667  109.1354 C   0  0  0  0  0  0  0  0  0  0  0  0
  125.5736  109.0840  108.3181 C   0  0  2  0  0  0  0  0  0  0  0  0
  122.3320  105.1542  106.3860 C   0  0  0  0  0  0  0  0  0  0  0  0
  125.8935  105.5714  107.0769 C   0  0  0  0  0  0  0  0  0  0  0  0
  124.5944  104.8032  106.9163 C   0  0  0  0  0  0  0  0  0  0  0  0
  125.6360  106.8245  107.7526 N   0  0  0  0  0  0  0  0  0  0  0  0
  124.8230  110.2172  107.7651 N   0  0  0  0  0  0  0  0  0  0  0  0
  126.2589  108.3748  106.0971 O   0  0  0  0  0  0  0  0  0  0  0  0
  123.6683  105.5907  106.1787 O   0  0  0  0  0  0  0  0  0  0  0  0
  123.6452  108.3805  109.1431 H   0  0  0  0  0  0  0  0  0  0  0  0
  124.9373  108.6332  110.3177 H   0  0  0  0  0  0  0  0  0  0  0  0
  126.0633  106.6449  109.7965 H   0  0  0  0  0  0  0  0  0  0  0  0
  124.4255  106.1314  109.2806 H   0  0  0  0  0  0  0  0  0  0  0  0
  126.5005  109.4266  108.7966 H   0  0  0  0  0  0  0  0  0  0  0  0
  121.6494  105.7799  105.8058 H   0  0  0  0  0  0  0  0  0  0  0  0
  122.0875  105.2185  107.4492 H   0  0  0  0  0  0  0  0  0  0  0  0
  122.2417  104.1168  106.0554 H   0  0  0  0  0  0  0  0  0  0  0  0
  126.6188  105.0049  107.6696 H   0  0  0  0  0  0  0  0  0  0  0  0
  126.3275  105.7947  106.0976 H   0  0  0  0  0  0  0  0  0  0  0  0
  124.1566  104.5979  107.8981 H   0  0  0  0  0  0  0  0  0  0  0  0
  124.7493  103.8561  106.3893 H   0  0  0  0  0  0  0  0  0  0  0  0
  125.0785  110.5576  106.8618 H   0  0  0  0  0  0  0  0  0  0  0  0
  124.2297  110.7354  108.3789 H   0  0  0  0  0  0  0  0  0  0  0  0
  1  4  1  0  0  0  0
  1  8  1  0  0  0  0
  1 10  2  0  0  0  0
  2  3  1  0  0  0  0
  2  4  1  0  0  0  0
  3  8  1  0  0  0  0
  4  9  1  0  0  0  0
  5 11  1  0  0  0  0
  6  7  1  0  0  0  0
  6  8  1  0  0  0  0
  7 11  1  0  0  0  0
  2 12  1  0  0  0  0
  2 13  1  0  0  0  0
  3 14  1  0  0  0  0
  3 15  1  0  0  0  0
  4 16  1  0  0  0  0
  5 17  1  0  0  0  0
  5 18  1  0  0  0  0
  5 19  1  0  0  0  0
  6 20  1  0  0  0  0
  6 21  1  0  0  0  0
  7 22  1  0  0  0  0
  7 23  1  0  0  0  0
  9 24  1  0  0  0  0
  9 25  1  0  0  0  0
M  END
> <FRED Chemgauss4 score>
-7.217754

$$$$
C02539687	P23071667
  -OEChem-05122015313D

 20 20  0     1  0  0  0  0  0999 V2000
  125.8169  105.8756  108.7518 C   0  0  0  0  0  0  0  0  0  0  0  0
  124.5501  106.2725  108.9223 C   0  0  0  0  0  0  0  0  0  0  0  0
  126.7891  106.6836  107.9527 C   0  0  1  0  0  0  0  0  0  0  0  0
  126.2418  108.0921  107.7038 C   0  0  2  0  0  0  0  0  0  0  0  0
  124.7442  108.0578  107.3640 C   0  0  1  0  0  0  0  0  0  0  0  0
  124.4202  107.4490  105.9970 C   0  0  0  0  0  0  0  0  0  0  0  0
  123.9707  107.3872  108.3752 O   0  0  0  0  0  0  0  0  0  0  0  0
  128.0263  106.7802  108.6568 O   0  0  0  0  0  0  0  0  0  0  0  0
  126.9666  108.7161  106.6496 O   0  0  0  0  0  0  0  0  0  0  0  0
  123.1255  107.8723  105.6103 O   0  0  0  0  0  0  0  0  0  0  0  0
  126.1453  104.9307  109.1678 H   0  0  0  0  0  0  0  0  0  0  0  0
  123.8330  105.7227  109.5183 H   0  0  0  0  0  0  0  0  0  0  0  0
  126.9758  106.1794  106.9953 H   0  0  0  0  0  0  0  0  0  0  0  0
  126.3897  108.7157  108.6117 H   0  0  0  0  0  0  0  0  0  0  0  0
  124.3736  109.1179  107.3444 H   0  0  0  0  0  0  0  0  0  0  0  0
  124.4395  106.3609  106.0600 H   0  0  0  0  0  0  0  0  0  0  0  0
  125.1457  107.7874  105.2571 H   0  0  0  0  0  0  0  0  0  0  0  0
  128.3490  105.8731  108.7766 H   0  0  0  0  0  0  0  0  0  0  0  0
  126.5807  109.5979  106.5360 H   0  0  0  0  0  0  0  0  0  0  0  0
  122.9425  107.4744  104.7421 H   0  0  0  0  0  0  0  0  0  0  0  0
  1  2  2  0  0  0  0
  1  3  1  0  0  0  0
  2  7  1  0  0  0  0
  3  4  1  0  0  0  0
  3  8  1  0  0  0  0
  4  5  1  0  0  0  0
  4  9  1  0  0  0  0
  5  6  1  0  0  0  0
  5  7  1  0  0  0  0
  6 10  1  0  0  0  0
  1 11  1  0  0  0  0
  2 12  1  0  0  0  0
  3 13  1  0  0  0  0
  4 14  1  0  0  0  0
  5 15  1  0  0  0  0
  6 16  1  0  0  0  0
  6 17  1  0  0  0  0
  8 18  1  0  0  0  0
  9 19  1  0  0  0  0
 10 20  1  0  0  0  0
M  END
> <FRED Chemgauss4 score>
-7.216008

$$$$
C39134860	P154331472
  -OEChem-05122015313D

 14 14  0     0  0  0  0  0  0999 V2000
  125.1170  104.7876  107.2567 C   0  0  0  0  0  0  0  0  0  0  0  0
  125.4702  104.7427  108.5891 C   0  0  0  0  0  0  0  0  0  0  0  0
  125.9267  106.8165  107.4517 C   0  0  0  0  0  0  0  0  0  0  0  0
  126.3202  108.1373  107.0935 C   0  0  0  0  0  0  0  0  0  0  0  0
  125.3776  105.9761  106.6030 N   0  0  0  0  0  0  0  0  0  0  0  0
  126.1144  108.5237  105.8323 N   0  0  0  0  0  0  0  0  0  0  0  0
  126.9134  109.0507  107.9968 N   0  0  0  0  0  0  0  0  0  0  0  0
  125.5250  107.5316  105.0423 O   0  0  0  0  0  0  0  0  0  0  0  0
  126.1593  106.2433  109.0525 S   0  0  0  0  0  0  0  0  0  0  0  0
  124.6600  103.9743  106.7088 H   0  0  0  0  0  0  0  0  0  0  0  0
  125.3603  103.9263  109.2883 H   0  0  0  0  0  0  0  0  0  0  0  0
  127.0672  108.7986  108.9664 H   0  0  0  0  0  0  0  0  0  0  0  0
  127.1673  109.9951  107.7266 H   0  0  0  0  0  0  0  0  0  0  0  0
  125.4551  107.9824  104.1838 H   0  0  0  0  0  0  0  0  0  0  0  0
  1  2  2  0  0  0  0
  1  5  1  0  0  0  0
  2  9  1  0  0  0  0
  3  4  1  0  0  0  0
  3  5  2  0  0  0  0
  3  9  1  0  0  0  0
  4  6  2  0  0  0  0
  4  7  1  0  0  0  0
  6  8  1  0  0  0  0
  1 10  1  0  0  0  0
  2 11  1  0  0  0  0
  7 12  1  0  0  0  0
  7 13  1  0  0  0  0
  8 14  1  0  0  0  0
M  END
> <FRED Chemgauss4 score>
-7.213627

$$$$
C70628890	P108955305
  -OEChem-05122015313D

 23 23  0     1  0  0  0  0  0999 V2000
  124.3126  107.9252  109.0115 C   0  0  0  0  0  0  0  0  0  0  0  0
  123.6236  107.9195  110.2072 C   0  0  0  0  0  0  0  0  0  0  0  0
  124.7095  109.1663  108.5572 C   0  0  0  0  0  0  0  0  0  0  0  0
  123.7793  110.1817  110.3657 C   0  0  0  0  0  0  0  0  0  0  0  0
  124.1761  111.4516  112.4998 C   0  0  0  0  0  0  0  0  0  0  0  0
  121.9556  111.6784  111.2474 C   0  0  0  0  0  0  0  0  0  0  0  0
  123.4778  111.4601  111.1337 C   0  0  2  0  0  0  0  0  0  0  0  0
  123.3386  109.0331  110.9135 N   0  0  0  0  0  0  0  0  0  0  0  0
  124.4587  110.3195  109.2111 N   0  0  0  0  0  0  0  0  0  0  0  0
  125.4209  109.2152  107.3333 N   0  0  0  0  0  0  0  0  0  0  0  0
  121.3218  111.8379  109.9418 N   0  0  0  0  0  0  0  0  0  0  0  0
  124.5216  107.0077  108.4761 H   0  0  0  0  0  0  0  0  0  0  0  0
  123.2719  106.9909  110.6435 H   0  0  0  0  0  0  0  0  0  0  0  0
  123.8089  110.6327  113.1266 H   0  0  0  0  0  0  0  0  0  0  0  0
  124.0146  112.3878  113.0451 H   0  0  0  0  0  0  0  0  0  0  0  0
  125.2576  111.3148  112.3854 H   0  0  0  0  0  0  0  0  0  0  0  0
  121.4784  110.8434  111.7737 H   0  0  0  0  0  0  0  0  0  0  0  0
  121.7557  112.5823  111.8354 H   0  0  0  0  0  0  0  0  0  0  0  0
  123.8963  112.3034  110.5664 H   0  0  0  0  0  0  0  0  0  0  0  0
  125.6484  108.3602  106.8738 H   0  0  0  0  0  0  0  0  0  0  0  0
  125.7593  110.0947  107.0078 H   0  0  0  0  0  0  0  0  0  0  0  0
  120.4751  112.3620  109.8920 H   0  0  0  0  0  0  0  0  0  0  0  0
  121.6361  111.2584  109.1937 H   0  0  0  0  0  0  0  0  0  0  0  0
  1  2  1  0  0  0  0
  1  3  2  0  0  0  0
  2  8  2  0  0  0  0
  3  9  1  0  0  0  0
  3 10  1  0  0  0  0
  4  7  1  0  0  0  0
  4  8  1  0  0  0  0
  4  9  2  0  0  0  0
  5  7  1  0  0  0  0
  6  7  1  0  0  0  0
  6 11  1  0  0  0  0
  1 12  1  0  0  0  0
  2 13  1  0  0  0  0
  5 14  1  0  0  0  0
  5 15  1  0  0  0  0
  5 16  1  0  0  0  0
  6 17  1  0  0  0  0
  6 18  1  0  0  0  0
  7 19  1  0  0  0  0
 10 20  1  0  0  0  0
 10 21  1  0  0  0  0
 11 22  1  0  0  0  0
 11 23  1  0  0  0  0
M  END
> <FRED Chemgauss4 score>
-7.209998

$$$$
C39223588	P59428200
  -OEChem-05122015313D

 15 16  0     1  0  0  0  0  0999 V2000
  124.3350  105.5127  108.3814 C   0  0  0  0  0  0  0  0  0  0  0  0
  124.5681  107.5118  108.8799 C   0  0  0  0  0  0  0  0  0  0  0  0
  124.3836  108.9528  109.1347 C   0  0  0  0  0  0  0  0  0  0  0  0
  126.3971  107.8738  107.2895 C   0  0  0  0  0  0  0  0  0  0  0  0
  125.8970  107.0513  108.4389 C   0  0  2  0  0  0  0  0  0  0  0  0
  125.5806  105.6700  108.0344 N   0  0  0  0  0  0  0  0  0  0  0  0
  123.6647  106.5993  108.8945 N   0  0  0  0  0  0  0  0  0  0  0  0
  125.2083  109.7328  108.3543 N   0  0  0  0  0  0  0  0  0  0  0  0
  126.0043  109.2038  107.3400 N   0  0  0  0  0  0  0  0  0  0  0  0
  123.5702  109.3131  109.9679 O   0  0  0  0  0  0  0  0  0  0  0  0
  127.1178  107.4127  106.4071 O   0  0  0  0  0  0  0  0  0  0  0  0
  123.8086  104.5565  108.2434 H   0  0  0  0  0  0  0  0  0  0  0  0
  126.6142  107.0701  109.2649 H   0  0  0  0  0  0  0  0  0  0  0  0
  125.2374  110.7326  108.5248 H   0  0  0  0  0  0  0  0  0  0  0  0
  126.2883  109.8631  106.6228 H   0  0  0  0  0  0  0  0  0  0  0  0
  1  6  2  0  0  0  0
  1  7  1  0  0  0  0
  2  3  1  0  0  0  0
  2  5  1  0  0  0  0
  2  7  2  0  0  0  0
  3  8  1  0  0  0  0
  3 10  2  0  0  0  0
  4  5  1  0  0  0  0
  4  9  1  0  0  0  0
  4 11  2  0  0  0  0
  5  6  1  0  0  0  0
  8  9  1  0  0  0  0
  1 12  1  0  0  0  0
  5 13  1  0  0  0  0
  8 14  1  0  0  0  0
  9 15  1  0  0  0  0
M  END
> <FRED Chemgauss4 score>
-7.209151

$$$$
C01391262	P05902105
  -OEChem-05122015313D

 16 16  0     0  0  0  0  0  0999 V2000
  125.2807  105.5948  107.5319 C   0  0  0  0  0  0  0  0  0  0  0  0
  123.8156  107.4116  106.6171 C   0  0  0  0  0  0  0  0  0  0  0  0
  125.5548  108.7732  107.8686 C   0  0  0  0  0  0  0  0  0  0  0  0
  123.9436  106.2779  107.6021 C   0  0  0  0  0  0  0  0  0  0  0  0
  126.5155  106.4468  107.6728 C   0  0  0  0  0  0  0  0  0  0  0  0
  124.6304  108.5220  106.8508 N   0  0  0  0  0  0  0  0  0  0  0  0
  126.2514  107.6913  108.3713 N   0  0  0  0  0  0  0  0  0  0  0  0
  125.3691  104.3955  107.2649 O   0  0  0  0  0  0  0  0  0  0  0  0
  122.9997  107.3716  105.6957 O   0  0  0  0  0  0  0  0  0  0  0  0
  125.7094  109.9098  108.3249 O   0  0  0  0  0  0  0  0  0  0  0  0
  123.1636  105.5394  107.3836 H   0  0  0  0  0  0  0  0  0  0  0  0
  123.7661  106.6373  108.6209 H   0  0  0  0  0  0  0  0  0  0  0  0
  127.2677  105.8984  108.2466 H   0  0  0  0  0  0  0  0  0  0  0  0
  126.8979  106.6831  106.6751 H   0  0  0  0  0  0  0  0  0  0  0  0
  124.5353  109.2702  106.1686 H   0  0  0  0  0  0  0  0  0  0  0  0
  126.6120  107.7745  109.3169 H   0  0  0  0  0  0  0  0  0  0  0  0
  1  4  1  0  0  0  0
  1  5  1  0  0  0  0
  1  8  2  0  0  0  0
  2  4  1  0  0  0  0
  2  6  1  0  0  0  0
  2  9  2  0  0  0  0
  3  6  1  0  0  0  0
  3  7  1  0  0  0  0
  3 10  2  0  0  0  0
  5  7  1  0  0  0  0
  4 11  1  0  0  0  0
  4 12  1  0  0  0  0
  5 13  1  0  0  0  0
  5 14  1  0  0  0  0
  6 15  1  0  0  0  0
  7 16  1  0  0  0  0
M  END
> <FRED Chemgauss4 score>
-7.206212

$$$$
C40448188	P61401681
  -OEChem-05122015313D

 16 16  0     0  0  0  0  0  0999 V2000
  124.7003  105.0508  107.3905 C   0  0  0  0  0  0  0  0  0  0  0  0
  123.5500  109.9972  110.9107 C   0  0  0  0  0  0  0  0  0  0  0  0
  123.5842  108.7368  111.4655 C   0  0  0  0  0  0  0  0  0  0  0  0
  124.5434  109.1900  109.0157 C   0  0  0  0  0  0  0  0  0  0  0  0
  124.5783  107.9297  109.5707 C   0  0  0  0  0  0  0  0  0  0  0  0
  125.1347  106.8007  108.8497 C   0  0  0  0  0  0  0  0  0  0  0  0
  125.0462  104.1302  106.7745 N   0  0  0  0  0  0  0  0  0  0  0  0
  124.0289  110.2464  109.6758 N   0  0  0  0  0  0  0  0  0  0  0  0
  124.0990  107.6805  110.8055 N   0  0  0  0  0  0  0  0  0  0  0  0
  124.2897  106.1133  108.0984 N   0  0  0  0  0  0  0  0  0  0  0  0
  126.4912  106.4511  108.9406 N   0  0  0  0  0  0  0  0  0  0  0  0
  123.1367  110.8459  111.4415 H   0  0  0  0  0  0  0  0  0  0  0  0
  123.1973  108.5371  112.4574 H   0  0  0  0  0  0  0  0  0  0  0  0
  124.9257  109.3984  108.0232 H   0  0  0  0  0  0  0  0  0  0  0  0
  127.1496  106.9506  109.5285 H   0  0  0  0  0  0  0  0  0  0  0  0
  126.8594  105.6460  108.4464 H   0  0  0  0  0  0  0  0  0  0  0  0
  1  7  3  0  0  0  0
  1 10  1  0  0  0  0
  2  3  1  0  0  0  0
  2  8  2  0  0  0  0
  3  9  2  0  0  0  0
  4  5  2  0  0  0  0
  4  8  1  0  0  0  0
  5  6  1  0  0  0  0
  5  9  1  0  0  0  0
  6 10  2  0  0  0  0
  6 11  1  0  0  0  0
  2 12  1  0  0  0  0
  3 13  1  0  0  0  0
  4 14  1  0  0  0  0
 11 15  1  0  0  0  0
 11 16  1  0  0  0  0
M  END
> <FRED Chemgauss4 score>
-7.204105

$$$$
C78677402	P122772480
  -OEChem-05122015313D

 19 19  0     1  0  0  0  0  0999 V2000
  123.3962  109.4219  109.4702 C   0  0  0  0  0  0  0  0  0  0  0  0
  122.9362  108.1360  109.2906 C   0  0  0  0  0  0  0  0  0  0  0  0
  125.2422  108.9377  108.2103 C   0  0  0  0  0  0  0  0  0  0  0  0
  124.7827  107.6515  108.0312 C   0  0  0  0  0  0  0  0  0  0  0  0
  125.4734  104.1753  107.6241 C   0  0  0  0  0  0  0  0  0  0  0  0
  124.9173  105.3003  107.1582 C   0  0  0  0  0  0  0  0  0  0  0  0
  125.5829  106.6538  107.2093 C   0  0  1  0  0  0  0  0  0  0  0  0
  124.5574  109.8459  108.9332 N   0  0  0  0  0  0  0  0  0  0  0  0
  123.6212  107.2277  108.5679 N   0  0  0  0  0  0  0  0  0  0  0  0
  125.8596  107.1491  105.8540 N   0  0  0  0  0  0  0  0  0  0  0  0
  122.8452  110.1511  110.0512 H   0  0  0  0  0  0  0  0  0  0  0  0
  122.0030  107.7961  109.7222 H   0  0  0  0  0  0  0  0  0  0  0  0
  126.1746  109.2856  107.7816 H   0  0  0  0  0  0  0  0  0  0  0  0
  124.9431  103.2317  107.5560 H   0  0  0  0  0  0  0  0  0  0  0  0
  126.4574  104.1745  108.0794 H   0  0  0  0  0  0  0  0  0  0  0  0
  123.9272  105.2348  106.7117 H   0  0  0  0  0  0  0  0  0  0  0  0
  126.5663  106.5327  107.6826 H   0  0  0  0  0  0  0  0  0  0  0  0
  126.0866  106.4797  105.1568 H   0  0  0  0  0  0  0  0  0  0  0  0
  126.0075  108.1245  105.7419 H   0  0  0  0  0  0  0  0  0  0  0  0
  1  2  2  0  0  0  0
  1  8  1  0  0  0  0
  2  9  1  0  0  0  0
  3  4  1  0  0  0  0
  3  8  2  0  0  0  0
  4  7  1  0  0  0  0
  4  9  2  0  0  0  0
  5  6  2  0  0  0  0
  6  7  1  0  0  0  0
  7 10  1  0  0  0  0
  1 11  1  0  0  0  0
  2 12  1  0  0  0  0
  3 13  1  0  0  0  0
  5 14  1  0  0  0  0
  5 15  1  0  0  0  0
  6 16  1  0  0  0  0
  7 17  1  0  0  0  0
 10 18  1  0  0  0  0
 10 19  1  0  0  0  0
M  END
> <FRED Chemgauss4 score>
-7.200681

$$$$
C01529270	P05158732
  -OEChem-05122015313D

 24 24  0     1  0  0  0  0  0999 V2000
  124.7931  109.3178  107.8097 C   0  0  1  0  0  0  0  0  0  0  0  0
  125.5900  108.1197  107.3392 C   0  0  1  0  0  0  0  0  0  0  0  0
  124.7849  109.0949  109.3178 C   0  0  1  0  0  0  0  0  0  0  0  0
  125.0549  107.0258  108.2576 C   0  0  1  0  0  0  0  0  0  0  0  0
  123.5209  109.6080  109.9856 C   0  0  0  0  0  0  0  0  0  0  0  0
  126.0006  105.8417  108.3835 C   0  0  0  0  0  0  0  0  0  0  0  0
  124.8983  107.6733  109.5339 O   0  0  0  0  0  0  0  0  0  0  0  0
  125.4320  110.5377  107.4823 O   0  0  0  0  0  0  0  0  0  0  0  0
  125.3957  107.8412  105.9669 O   0  0  0  0  0  0  0  0  0  0  0  0
  123.7845  106.5805  107.7795 O   0  0  0  0  0  0  0  0  0  0  0  0
  123.4162  111.0034  109.7558 O   0  0  0  0  0  0  0  0  0  0  0  0
  127.2370  106.2998  108.9036 O   0  0  0  0  0  0  0  0  0  0  0  0
  123.7868  109.3257  107.3743 H   0  0  0  0  0  0  0  0  0  0  0  0
  126.6649  108.3004  107.5058 H   0  0  0  0  0  0  0  0  0  0  0  0
  125.6545  109.5691  109.7900 H   0  0  0  0  0  0  0  0  0  0  0  0
  123.5608  109.4266  111.0620 H   0  0  0  0  0  0  0  0  0  0  0  0
  122.6427  109.1115  109.5667 H   0  0  0  0  0  0  0  0  0  0  0  0
  126.1704  105.3895  107.4046 H   0  0  0  0  0  0  0  0  0  0  0  0
  125.5822  105.0956  109.0616 H   0  0  0  0  0  0  0  0  0  0  0  0
  126.3001  110.5324  107.9208 H   0  0  0  0  0  0  0  0  0  0  0  0
  125.6812  108.6279  105.4704 H   0  0  0  0  0  0  0  0  0  0  0  0
  123.4887  105.8908  108.3922 H   0  0  0  0  0  0  0  0  0  0  0  0
  122.6014  111.3022  110.1930 H   0  0  0  0  0  0  0  0  0  0  0  0
  127.8202  105.5253  108.9734 H   0  0  0  0  0  0  0  0  0  0  0  0
  1  2  1  0  0  0  0
  1  3  1  0  0  0  0
  1  8  1  0  0  0  0
  2  4  1  0  0  0  0
  2  9  1  0  0  0  0
  3  5  1  0  0  0  0
  3  7  1  0  0  0  0
  4  6  1  0  0  0  0
  4  7  1  0  0  0  0
  4 10  1  0  0  0  0
  5 11  1  0  0  0  0
  6 12  1  0  0  0  0
  1 13  1  0  0  0  0
  2 14  1  0  0  0  0
  3 15  1  0  0  0  0
  5 16  1  0  0  0  0
  5 17  1  0  0  0  0
  6 18  1  0  0  0  0
  6 19  1  0  0  0  0
  8 20  1  0  0  0  0
  9 21  1  0  0  0  0
 10 22  1  0  0  0  0
 11 23  1  0  0  0  0
 12 24  1  0  0  0  0
M  END
> <FRED Chemgauss4 score>
-7.191553

$$$$
C87445867	P136802587
  -OEChem-05122015313D

 16 16  0     0  0  0  0  0  0999 V2000
  124.4432  109.3204  108.3204 C   0  0  0  0  0  0  0  0  0  0  0  0
  122.8048  106.2339  106.9661 C   0  0  0  0  0  0  0  0  0  0  0  0
  121.3346  104.7726  106.7208 C   0  0  0  0  0  0  0  0  0  0  0  0
  123.4812  107.4934  106.8921 C   0  0  0  0  0  0  0  0  0  0  0  0
  120.1411  103.9742  106.3989 C   0  0  0  0  0  0  0  0  0  0  0  0
  124.9717  110.3356  108.5093 N   0  0  0  0  0  0  0  0  0  0  0  0
  121.5655  106.0317  106.4296 N   0  0  0  0  0  0  0  0  0  0  0  0
  123.3553  105.1791  107.5710 N   0  0  0  0  0  0  0  0  0  0  0  0
  122.3948  104.2581  107.3999 N   0  0  0  0  0  0  0  0  0  0  0  0
  123.8259  108.1360  108.1019 N   0  0  0  0  0  0  0  0  0  0  0  0
  123.7505  108.0312  105.7897 O   0  0  0  0  0  0  0  0  0  0  0  0
  120.2454  103.4716  105.4216 H   0  0  0  0  0  0  0  0  0  0  0  0
  119.9449  103.1920  107.1545 H   0  0  0  0  0  0  0  0  0  0  0  0
  119.2243  104.5901  106.3587 H   0  0  0  0  0  0  0  0  0  0  0  0
  122.5338  103.3235  107.7658 H   0  0  0  0  0  0  0  0  0  0  0  0
  123.5693  107.6272  108.9433 H   0  0  0  0  0  0  0  0  0  0  0  0
  1  6  3  0  0  0  0
  1 10  1  0  0  0  0
  2  4  1  0  0  0  0
  2  7  1  0  0  0  0
  2  8  2  0  0  0  0
  3  5  1  0  0  0  0
  3  7  2  0  0  0  0
  3  9  1  0  0  0  0
  4 10  1  0  0  0  0
  4 11  2  0  0  0  0
  8  9  1  0  0  0  0
  5 12  1  0  0  0  0
  5 13  1  0  0  0  0
  5 14  1  0  0  0  0
  9 15  1  0  0  0  0
 10 16  1  0  0  0  0
M  END
> <FRED Chemgauss4 score>
-7.190701

$$$$
C00896178	P50892193
  -OEChem-05122015313D

 24 24  0     1  0  0  0  0  0999 V2000
  123.4604  108.9084  108.3051 C   0  0  0  0  0  0  0  0  0  0  0  0
  124.9526  109.2237  108.2516 C   0  0  1  0  0  0  0  0  0  0  0  0
  125.7439  107.9875  107.8191 C   0  0  1  0  0  0  0  0  0  0  0  0
  125.1798  107.3720  106.5353 C   0  0  1  0  0  0  0  0  0  0  0  0
  123.6614  107.1368  106.6606 C   0  0  1  0  0  0  0  0  0  0  0  0
  123.3297  105.9762  107.6057 C   0  0  0  0  0  0  0  0  0  0  0  0
  122.9890  108.3300  107.0846 O   0  0  0  0  0  0  0  0  0  0  0  0
  125.1681  110.2895  107.3268 O   0  0  0  0  0  0  0  0  0  0  0  0
  127.1197  108.3063  107.6391 O   0  0  0  0  0  0  0  0  0  0  0  0
  125.4278  108.2764  105.4532 O   0  0  0  0  0  0  0  0  0  0  0  0
  123.1346  106.7339  105.3898 O   0  0  0  0  0  0  0  0  0  0  0  0
  121.9234  105.8406  107.6681 O   0  0  0  0  0  0  0  0  0  0  0  0
  123.2620  108.1913  109.1131 H   0  0  0  0  0  0  0  0  0  0  0  0
  122.8649  109.7998  108.5500 H   0  0  0  0  0  0  0  0  0  0  0  0
  125.2881  109.5402  109.2302 H   0  0  0  0  0  0  0  0  0  0  0  0
  125.7355  107.2213  108.6416 H   0  0  0  0  0  0  0  0  0  0  0  0
  125.6845  106.4496  106.3407 H   0  0  0  0  0  0  0  0  0  0  0  0
  123.7191  106.1897  108.5992 H   0  0  0  0  0  0  0  0  0  0  0  0
  123.7675  105.0559  107.2242 H   0  0  0  0  0  0  0  0  0  0  0  0
  124.6624  111.0514  107.6535 H   0  0  0  0  0  0  0  0  0  0  0  0
  127.4389  108.6295  108.4947 H   0  0  0  0  0  0  0  0  0  0  0  0
  126.3903  108.3876  105.3981 H   0  0  0  0  0  0  0  0  0  0  0  0
  122.1843  106.5993  105.5197 H   0  0  0  0  0  0  0  0  0  0  0  0
  121.7326  105.1012  108.2709 H   0  0  0  0  0  0  0  0  0  0  0  0
  1  2  1  0  0  0  0
  1  7  1  0  0  0  0
  2  3  1  0  0  0  0
  2  8  1  0  0  0  0
  3  4  1  0  0  0  0
  3  9  1  0  0  0  0
  4  5  1  0  0  0  0
  4 10  1  0  0  0  0
  5  6  1  0  0  0  0
  5  7  1  0  0  0  0
  5 11  1  0  0  0  0
  6 12  1  0  0  0  0
  1 13  1  0  0  0  0
  1 14  1  0  0  0  0
  2 15  1  0  0  0  0
  3 16  1  0  0  0  0
  4 17  1  0  0  0  0
  6 18  1  0  0  0  0
  6 19  1  0  0  0  0
  8 20  1  0  0  0  0
  9 21  1  0  0  0  0
 10 22  1  0  0  0  0
 11 23  1  0  0  0  0
 12 24  1  0  0  0  0
M  END
> <FRED Chemgauss4 score>
-7.190257

$$$$
C86007953	P134727430
  -OEChem-05122015313D

 33 33  0     1  0  0  0  0  0999 V2000
  126.0890  106.2791  106.7471 C   0  0  0  0  0  0  0  0  0  0  0  0
  125.6372  107.2484  108.8959 C   0  0  0  0  0  0  0  0  0  0  0  0
  125.8838  107.6463  106.1035 C   0  0  0  0  0  0  0  0  0  0  0  0
  125.4531  108.6232  108.2412 C   0  0  2  0  0  0  0  0  0  0  0  0
  125.0461  103.7646  107.6681 C   0  0  0  0  0  0  0  0  0  0  0  0
  123.9887  109.0053  108.0301 C   0  0  0  0  0  0  0  0  0  0  0  0
  125.4516  104.8628  108.5914 C   0  0  0  0  0  0  0  0  0  0  0  0
  123.5511  109.3484  110.4907 C   0  0  0  0  0  0  0  0  0  0  0  0
  123.0991  108.6263  109.2213 C   0  0  1  0  0  0  0  0  0  0  0  0
  125.2745  106.1713  107.9644 N   0  0  2  0  0  0  0  0  0  0  0  0
  121.7227  108.9914  108.9435 N   0  0  0  0  0  0  0  0  0  0  0  0
  126.1954  108.6971  107.0181 O   0  0  0  0  0  0  0  0  0  0  0  0
  123.4730  110.7549  110.2870 O   0  0  0  0  0  0  0  0  0  0  0  0
  125.8106  105.4932  106.0318 H   0  0  0  0  0  0  0  0  0  0  0  0
  127.1516  106.1556  106.9886 H   0  0  0  0  0  0  0  0  0  0  0  0
  126.6876  107.1357  109.2071 H   0  0  0  0  0  0  0  0  0  0  0  0
  125.0177  107.1824  109.8064 H   0  0  0  0  0  0  0  0  0  0  0  0
  126.4917  107.7611  105.1938 H   0  0  0  0  0  0  0  0  0  0  0  0
  124.8335  107.7647  105.8076 H   0  0  0  0  0  0  0  0  0  0  0  0
  125.8999  109.4075  108.9378 H   0  0  0  0  0  0  0  0  0  0  0  0
  123.9907  103.8577  107.3900 H   0  0  0  0  0  0  0  0  0  0  0  0
  125.6604  103.7705  106.7612 H   0  0  0  0  0  0  0  0  0  0  0  0
  125.1811  102.7951  108.1624 H   0  0  0  0  0  0  0  0  0  0  0  0
  123.6269  108.4950  107.1288 H   0  0  0  0  0  0  0  0  0  0  0  0
  123.9254  110.0833  107.8342 H   0  0  0  0  0  0  0  0  0  0  0  0
  126.5064  104.7638  108.8651 H   0  0  0  0  0  0  0  0  0  0  0  0
  124.8478  104.8457  109.5034 H   0  0  0  0  0  0  0  0  0  0  0  0
  122.9234  109.0861  111.3493 H   0  0  0  0  0  0  0  0  0  0  0  0
  124.5921  109.1035  110.7261 H   0  0  0  0  0  0  0  0  0  0  0  0
  123.1379  107.5431  109.3867 H   0  0  0  0  0  0  0  0  0  0  0  0
  121.1017  109.1389  109.7152 H   0  0  0  0  0  0  0  0  0  0  0  0
  121.3797  108.8881  108.0082 H   0  0  0  0  0  0  0  0  0  0  0  0
  123.7670  111.1722  111.1122 H   0  0  0  0  0  0  0  0  0  0  0  0
  1  3  1  0  0  0  0
  1 10  1  0  0  0  0
  2  4  1  0  0  0  0
  2 10  1  0  0  0  0
  3 12  1  0  0  0  0
  4  6  1  0  0  0  0
  4 12  1  0  0  0  0
  5  7  1  0  0  0  0
  6  9  1  0  0  0  0
  7 10  1  0  0  0  0
  8  9  1  0  0  0  0
  8 13  1  0  0  0  0
  9 11  1  0  0  0  0
  1 14  1  0  0  0  0
  1 15  1  0  0  0  0
  2 16  1  0  0  0  0
  2 17  1  0  0  0  0
  3 18  1  0  0  0  0
  3 19  1  0  0  0  0
  4 20  1  0  0  0  0
  5 21  1  0  0  0  0
  5 22  1  0  0  0  0
  5 23  1  0  0  0  0
  6 24  1  0  0  0  0
  6 25  1  0  0  0  0
  7 26  1  0  0  0  0
  7 27  1  0  0  0  0
  8 28  1  0  0  0  0
  8 29  1  0  0  0  0
  9 30  1  0  0  0  0
 11 31  1  0  0  0  0
 11 32  1  0  0  0  0
 13 33  1  0  0  0  0
M  END
> <FRED Chemgauss4 score>
-7.189457

$$$$
C85164882	P133260509
  -OEChem-05122015313D

 29 29  0     1  0  0  0  0  0999 V2000
  125.8753  104.5432  108.3811 C   0  0  0  0  0  0  0  0  0  0  0  0
  124.4642  104.3612  107.8374 C   0  0  0  0  0  0  0  0  0  0  0  0
  124.3176  106.6220  107.1439 C   0  0  0  0  0  0  0  0  0  0  0  0
  126.1086  105.9993  108.8047 C   0  0  2  0  0  0  0  0  0  0  0  0
  125.7261  106.9447  107.6503 C   0  0  2  0  0  0  0  0  0  0  0  0
  124.0951  109.9588  109.9012 C   0  0  0  0  0  0  0  0  0  0  0  0
  122.7282  110.0433  110.5685 C   0  0  0  0  0  0  0  0  0  0  0  0
  124.1625  108.7894  108.9267 C   0  0  0  0  0  0  0  0  0  0  0  0
  127.5071  106.1611  109.2034 N   0  0  0  0  0  0  0  0  0  0  0  0
  124.2283  105.2512  106.7479 O   0  0  0  0  0  0  0  0  0  0  0  0
  121.7361  110.2080  109.5648 O   0  0  0  0  0  0  0  0  0  0  0  0
  125.7873  108.7021  108.1466 S   0  0  0  0  0  0  0  0  0  0  0  0
  126.0018  103.8987  109.2542 H   0  0  0  0  0  0  0  0  0  0  0  0
  126.6095  104.2255  107.6381 H   0  0  0  0  0  0  0  0  0  0  0  0
  124.2802  103.3309  107.5143 H   0  0  0  0  0  0  0  0  0  0  0  0
  123.7347  104.5939  108.6187 H   0  0  0  0  0  0  0  0  0  0  0  0
  123.5665  106.8007  107.9144 H   0  0  0  0  0  0  0  0  0  0  0  0
  124.0583  107.2504  106.2898 H   0  0  0  0  0  0  0  0  0  0  0  0
  125.4865  106.2078  109.6966 H   0  0  0  0  0  0  0  0  0  0  0  0
  126.4318  106.8387  106.8168 H   0  0  0  0  0  0  0  0  0  0  0  0
  124.2989  110.9067  109.3865 H   0  0  0  0  0  0  0  0  0  0  0  0
  124.8646  109.8634  110.6783 H   0  0  0  0  0  0  0  0  0  0  0  0
  122.5093  109.1282  111.1278 H   0  0  0  0  0  0  0  0  0  0  0  0
  122.6788  110.8983  111.2502 H   0  0  0  0  0  0  0  0  0  0  0  0
  123.4088  108.8996  108.1405 H   0  0  0  0  0  0  0  0  0  0  0  0
  123.9758  107.8436  109.4451 H   0  0  0  0  0  0  0  0  0  0  0  0
  127.9513  105.3914  109.6456 H   0  0  0  0  0  0  0  0  0  0  0  0
  127.8821  107.0804  109.2026 H   0  0  0  0  0  0  0  0  0  0  0  0
  120.8806  110.2582  110.0214 H   0  0  0  0  0  0  0  0  0  0  0  0
  1  2  1  0  0  0  0
  1  4  1  0  0  0  0
  2 10  1  0  0  0  0
  3  5  1  0  0  0  0
  3 10  1  0  0  0  0
  4  5  1  0  0  0  0
  4  9  1  0  0  0  0
  5 12  1  0  0  0  0
  6  7  1  0  0  0  0
  6  8  1  0  0  0  0
  7 11  1  0  0  0  0
  8 12  1  0  0  0  0
  1 13  1  0  0  0  0
  1 14  1  0  0  0  0
  2 15  1  0  0  0  0
  2 16  1  0  0  0  0
  3 17  1  0  0  0  0
  3 18  1  0  0  0  0
  4 19  1  0  0  0  0
  5 20  1  0  0  0  0
  6 21  1  0  0  0  0
  6 22  1  0  0  0  0
  7 23  1  0  0  0  0
  7 24  1  0  0  0  0
  8 25  1  0  0  0  0
  8 26  1  0  0  0  0
  9 27  1  0  0  0  0
  9 28  1  0  0  0  0
 11 29  1  0  0  0  0
M  END
> <FRED Chemgauss4 score>
-7.172660

$$$$
C40710779	P61812576
  -OEChem-05122015313D

 28 28  0     1  0  0  0  0  0999 V2000
  123.9669  109.3184  109.0925 C   0  0  0  0  0  0  0  0  0  0  0  0
  124.7864  108.1530  107.5925 C   0  0  0  0  0  0  0  0  0  0  0  0
  123.1604  110.2719  112.7456 C   0  0  0  0  0  0  0  0  0  0  0  0
  123.1608  109.7144  110.2526 C   0  0  0  0  0  0  0  0  0  0  0  0
  123.9894  109.8225  111.5528 C   0  0  0  0  0  0  0  0  0  0  0  0
  125.2335  105.6745  107.1718 C   0  0  0  0  0  0  0  0  0  0  0  0
  126.1826  105.5034  108.3534 C   0  0  0  0  0  0  0  0  0  0  0  0
  125.2296  107.1005  106.5981 C   0  0  2  0  0  0  0  0  0  0  0  0
  123.9437  108.0503  108.5890 N   0  0  0  0  0  0  0  0  0  0  0  0
  124.7707  110.1794  108.4613 N   0  0  0  0  0  0  0  0  0  0  0  0
  126.5341  107.4308  106.0656 N   0  0  0  0  0  0  0  0  0  0  0  0
  125.3262  109.3913  107.4456 O   0  0  0  0  0  0  0  0  0  0  0  0
  126.1254  104.1523  108.7928 O   0  0  0  0  0  0  0  0  0  0  0  0
  122.6918  111.2425  112.5541 H   0  0  0  0  0  0  0  0  0  0  0  0
  122.3717  109.5469  112.9705 H   0  0  0  0  0  0  0  0  0  0  0  0
  123.7943  110.3702  113.6324 H   0  0  0  0  0  0  0  0  0  0  0  0
  122.6538  110.6905  110.0874 H   0  0  0  0  0  0  0  0  0  0  0  0
  122.3264  109.0025  110.4365 H   0  0  0  0  0  0  0  0  0  0  0  0
  124.4435  108.8497  111.7775 H   0  0  0  0  0  0  0  0  0  0  0  0
  124.8140  110.5297  111.4020 H   0  0  0  0  0  0  0  0  0  0  0  0
  124.2184  105.4105  107.4996 H   0  0  0  0  0  0  0  0  0  0  0  0
  125.4773  104.9342  106.3983 H   0  0  0  0  0  0  0  0  0  0  0  0
  127.2159  105.7271  108.0721 H   0  0  0  0  0  0  0  0  0  0  0  0
  125.8897  106.1514  109.1855 H   0  0  0  0  0  0  0  0  0  0  0  0
  124.5593  107.1149  105.7294 H   0  0  0  0  0  0  0  0  0  0  0  0
  126.7694  108.3967  105.9308 H   0  0  0  0  0  0  0  0  0  0  0  0
  127.0873  106.7002  105.6573 H   0  0  0  0  0  0  0  0  0  0  0  0
  126.7376  104.0760  109.5422 H   0  0  0  0  0  0  0  0  0  0  0  0
  1  4  1  0  0  0  0
  1  9  1  0  0  0  0
  1 10  2  0  0  0  0
  2  8  1  0  0  0  0
  2  9  2  0  0  0  0
  2 12  1  0  0  0  0
  3  5  1  0  0  0  0
  4  5  1  0  0  0  0
  6  7  1  0  0  0  0
  6  8  1  0  0  0  0
  7 13  1  0  0  0  0
  8 11  1  0  0  0  0
 10 12  1  0  0  0  0
  3 14  1  0  0  0  0
  3 15  1  0  0  0  0
  3 16  1  0  0  0  0
  4 17  1  0  0  0  0
  4 18  1  0  0  0  0
  5 19  1  0  0  0  0
  5 20  1  0  0  0  0
  6 21  1  0  0  0  0
  6 22  1  0  0  0  0
  7 23  1  0  0  0  0
  7 24  1  0  0  0  0
  8 25  1  0  0  0  0
 11 26  1  0  0  0  0
 11 27  1  0  0  0  0
 13 28  1  0  0  0  0
M  END
> <FRED Chemgauss4 score>
-7.169368

$$$$
C85082709	P133149090
  -OEChem-05122015313D

 33 33  0     1  0  0  0  0  0999 V2000
  121.5290  105.5040  106.0616 C   0  0  0  0  0  0  0  0  0  0  0  0
  117.6478  104.1436  106.5953 C   0  0  0  0  0  0  0  0  0  0  0  0
  118.4895  104.3341  104.3209 C   0  0  0  0  0  0  0  0  0  0  0  0
  117.5535  103.5196  105.2080 C   0  0  2  0  0  0  0  0  0  0  0  0
  118.4707  105.4171  106.4025 C   0  0  2  0  0  0  0  0  0  0  0  0
  118.8421  108.3437  107.2899 C   0  0  0  0  0  0  0  0  0  0  0  0
  117.6804  108.8626  105.2519 C   0  0  0  0  0  0  0  0  0  0  0  0
  120.5485  104.4630  105.5844 C   0  0  0  0  0  0  0  0  0  0  0  0
  117.5821  106.6396  106.1582 C   0  0  0  0  0  0  0  0  0  0  0  0
  119.3129  105.1594  105.2188 N   0  0  1  0  0  0  0  0  0  0  0  0
  121.9582  105.3522  107.3538 N   0  0  0  0  0  0  0  0  0  0  0  0
  118.3901  107.8023  105.9936 N   0  0  0  0  0  0  0  0  0  0  0  0
  116.2181  103.6069  104.7336 O   0  0  0  0  0  0  0  0  0  0  0  0
  122.0686  106.7465  105.0833 S   0  0  0  0  0  0  0  0  0  0  0  0
  116.6485  104.3590  106.9995 H   0  0  0  0  0  0  0  0  0  0  0  0
  118.1450  103.4652  107.3002 H   0  0  0  0  0  0  0  0  0  0  0  0
  119.1289  103.6406  103.7396 H   0  0  0  0  0  0  0  0  0  0  0  0
  117.9452  104.9681  103.5960 H   0  0  0  0  0  0  0  0  0  0  0  0
  117.8425  102.4619  105.2253 H   0  0  0  0  0  0  0  0  0  0  0  0
  119.0907  105.6060  107.2874 H   0  0  0  0  0  0  0  0  0  0  0  0
  119.3711  107.5722  107.8554 H   0  0  0  0  0  0  0  0  0  0  0  0
  117.9849  108.6847  107.8768 H   0  0  0  0  0  0  0  0  0  0  0  0
  119.5171  109.1891  107.1318 H   0  0  0  0  0  0  0  0  0  0  0  0
  117.3369  108.4807  104.2870 H   0  0  0  0  0  0  0  0  0  0  0  0
  118.3461  109.7122  105.0774 H   0  0  0  0  0  0  0  0  0  0  0  0
  116.8139  109.2078  105.8224 H   0  0  0  0  0  0  0  0  0  0  0  0
  120.3151  103.7209  106.3523 H   0  0  0  0  0  0  0  0  0  0  0  0
  120.9248  103.9595  104.6891 H   0  0  0  0  0  0  0  0  0  0  0  0
  116.9308  106.7763  107.0128 H   0  0  0  0  0  0  0  0  0  0  0  0
  116.9990  106.4812  105.2597 H   0  0  0  0  0  0  0  0  0  0  0  0
  121.6374  104.5918  107.9446 H   0  0  0  0  0  0  0  0  0  0  0  0
  122.6191  106.0023  107.7660 H   0  0  0  0  0  0  0  0  0  0  0  0
  116.2063  103.1993  103.8523 H   0  0  0  0  0  0  0  0  0  0  0  0
  1  8  1  0  0  0  0
  1 11  1  0  0  0  0
  1 14  2  0  0  0  0
  2  4  1  0  0  0  0
  2  5  1  0  0  0  0
  3  4  1  0  0  0  0
  3 10  1  0  0  0  0
  4 13  1  0  0  0  0
  5  9  1  0  0  0  0
  5 10  1  0  0  0  0
  6 12  1  0  0  0  0
  7 12  1  0  0  0  0
  8 10  1  0  0  0  0
  9 12  1  0  0  0  0
  2 15  1  0  0  0  0
  2 16  1  0  0  0  0
  3 17  1  0  0  0  0
  3 18  1  0  0  0  0
  4 19  1  0  0  0  0
  5 20  1  0  0  0  0
  6 21  1  0  0  0  0
  6 22  1  0  0  0  0
  6 23  1  0  0  0  0
  7 24  1  0  0  0  0
  7 25  1  0  0  0  0
  7 26  1  0  0  0  0
  8 27  1  0  0  0  0
  8 28  1  0  0  0  0
  9 29  1  0  0  0  0
  9 30  1  0  0  0  0
 11 31  1  0  0  0  0
 11 32  1  0  0  0  0
 13 33  1  0  0  0  0
M  END
> <FRED Chemgauss4 score>
-7.163167

$$$$
C85169335	P133261678
  -OEChem-05122015313D

 28 29  0     1  0  0  0  0  0999 V2000
  119.6070  106.2353  104.4518 C   0  0  0  0  0  0  0  0  0  0  0  0
  119.2388  108.3316  104.4666 C   0  0  0  0  0  0  0  0  0  0  0  0
  118.7448  106.4495  105.5012 C   0  0  0  0  0  0  0  0  0  0  0  0
  115.7386  104.7882  105.9852 C   0  0  0  0  0  0  0  0  0  0  0  0
  116.2370  103.4273  105.5448 C   0  0  0  0  0  0  0  0  0  0  0  0
  117.7253  103.3440  105.2418 C   0  0  0  0  0  0  0  0  0  0  0  0
  118.1159  105.4926  106.5067 C   0  0  2  0  0  0  0  0  0  0  0  0
  118.5254  104.0129  106.3571 C   0  0  2  0  0  0  0  0  0  0  0  0
  117.6764  108.5365  106.4088 C   0  0  0  0  0  0  0  0  0  0  0  0
  119.9109  107.4108  103.8120 N   0  0  0  0  0  0  0  0  0  0  0  0
  118.5184  107.7971  105.4984 N   0  0  0  0  0  0  0  0  0  0  0  0
  116.6605  105.6488  106.5362 N   0  0  0  0  0  0  0  0  0  0  0  0
  119.9589  103.8403  106.1321 N   0  0  0  0  0  0  0  0  0  0  0  0
  114.5391  105.0649  105.9190 O   0  0  0  0  0  0  0  0  0  0  0  0
  120.0258  105.2952  104.1225 H   0  0  0  0  0  0  0  0  0  0  0  0
  119.2351  109.3896  104.2422 H   0  0  0  0  0  0  0  0  0  0  0  0
  115.9889  102.7250  106.3502 H   0  0  0  0  0  0  0  0  0  0  0  0
  115.6698  103.1242  104.6574 H   0  0  0  0  0  0  0  0  0  0  0  0
  118.0114  102.2902  105.1362 H   0  0  0  0  0  0  0  0  0  0  0  0
  117.9305  103.8250  104.2769 H   0  0  0  0  0  0  0  0  0  0  0  0
  118.4679  105.8431  107.5300 H   0  0  0  0  0  0  0  0  0  0  0  0
  118.2737  103.4962  107.2992 H   0  0  0  0  0  0  0  0  0  0  0  0
  116.6696  108.5712  105.9843 H   0  0  0  0  0  0  0  0  0  0  0  0
  117.6643  108.0363  107.3812 H   0  0  0  0  0  0  0  0  0  0  0  0
  118.0762  109.5470  106.5308 H   0  0  0  0  0  0  0  0  0  0  0  0
  116.2963  106.4710  107.0088 H   0  0  0  0  0  0  0  0  0  0  0  0
  120.2661  102.9960  105.7019 H   0  0  0  0  0  0  0  0  0  0  0  0
  120.5827  104.4658  106.5925 H   0  0  0  0  0  0  0  0  0  0  0  0
  1  3  2  0  0  0  0
  1 10  1  0  0  0  0
  2 10  2  0  0  0  0
  2 11  1  0  0  0  0
  3  7  1  0  0  0  0
  3 11  1  0  0  0  0
  4  5  1  0  0  0  0
  4 12  1  0  0  0  0
  4 14  2  0  0  0  0
  5  6  1  0  0  0  0
  6  8  1  0  0  0  0
  7  8  1  0  0  0  0
  7 12  1  0  0  0  0
  8 13  1  0  0  0  0
  9 11  1  0  0  0  0
  1 15  1  0  0  0  0
  2 16  1  0  0  0  0
  5 17  1  0  0  0  0
  5 18  1  0  0  0  0
  6 19  1  0  0  0  0
  6 20  1  0  0  0  0
  7 21  1  0  0  0  0
  8 22  1  0  0  0  0
  9 23  1  0  0  0  0
  9 24  1  0  0  0  0
  9 25  1  0  0  0  0
 12 26  1  0  0  0  0
 13 27  1  0  0  0  0
 13 28  1  0  0  0  0
M  END
> <FRED Chemgauss4 score>
-7.154814

$$$$
C87121135	P136358271
  -OEChem-05122015313D

 36 36  0     1  0  0  0  0  0999 V2000
  124.7317  104.4813  108.8123 C   0  0  0  0  0  0  0  0  0  0  0  0
  123.2860  104.6031  108.3368 C   0  0  0  0  0  0  0  0  0  0  0  0
  125.5092  105.7743  108.5871 C   0  0  0  0  0  0  0  0  0  0  0  0
  123.9887  106.3496  106.6511 C   0  0  0  0  0  0  0  0  0  0  0  0
  123.2081  105.0464  106.8699 C   0  0  2  0  0  0  0  0  0  0  0  0
  125.4362  106.2250  107.1289 C   0  0  1  0  0  0  0  0  0  0  0  0
  121.0718  106.2924  107.2714 C   0  0  0  0  0  0  0  0  0  0  0  0
  125.4240  108.8651  107.9992 C   0  0  0  0  0  0  0  0  0  0  0  0
  121.6868  105.5158  104.9274 C   0  0  0  0  0  0  0  0  0  0  0  0
  121.7537  105.2086  106.4321 C   0  0  1  0  0  0  0  0  0  0  0  0
  120.3434  105.7069  104.4466 N   0  0  0  0  0  0  0  0  0  0  0  0
  126.0684  108.2113  105.5518 O   0  0  0  0  0  0  0  0  0  0  0  0
  127.6391  107.5992  107.4306 O   0  0  0  0  0  0  0  0  0  0  0  0
  121.0757  103.9746  106.6863 O   0  0  0  0  0  0  0  0  0  0  0  0
  126.2938  107.7615  106.9124 S   0  0  0  0  0  0  0  0  0  0  0  0
  124.7484  104.2222  109.8769 H   0  0  0  0  0  0  0  0  0  0  0  0
  125.2243  103.6608  108.2762 H   0  0  0  0  0  0  0  0  0  0  0  0
  122.7818  103.6376  108.4630 H   0  0  0  0  0  0  0  0  0  0  0  0
  122.7565  105.3236  108.9733 H   0  0  0  0  0  0  0  0  0  0  0  0
  125.1075  106.5583  109.2420 H   0  0  0  0  0  0  0  0  0  0  0  0
  126.5549  105.6290  108.8839 H   0  0  0  0  0  0  0  0  0  0  0  0
  123.9735  106.6168  105.5869 H   0  0  0  0  0  0  0  0  0  0  0  0
  123.4931  107.1735  107.1821 H   0  0  0  0  0  0  0  0  0  0  0  0
  123.6618  104.2635  106.2475 H   0  0  0  0  0  0  0  0  0  0  0  0
  125.9672  105.5026  106.4970 H   0  0  0  0  0  0  0  0  0  0  0  0
  120.0253  106.4293  106.9773 H   0  0  0  0  0  0  0  0  0  0  0  0
  121.5580  107.2629  107.1180 H   0  0  0  0  0  0  0  0  0  0  0  0
  121.1064  106.0543  108.3395 H   0  0  0  0  0  0  0  0  0  0  0  0
  125.8877  109.8506  107.9326 H   0  0  0  0  0  0  0  0  0  0  0  0
  124.3813  108.9109  107.6812 H   0  0  0  0  0  0  0  0  0  0  0  0
  125.4972  108.4760  109.0158 H   0  0  0  0  0  0  0  0  0  0  0  0
  122.2253  106.4414  104.6965 H   0  0  0  0  0  0  0  0  0  0  0  0
  122.1282  104.7026  104.3413 H   0  0  0  0  0  0  0  0  0  0  0  0
  120.1424  105.5381  103.4745 H   0  0  0  0  0  0  0  0  0  0  0  0
  119.6803  106.1942  105.0268 H   0  0  0  0  0  0  0  0  0  0  0  0
  120.1598  104.1051  106.4007 H   0  0  0  0  0  0  0  0  0  0  0  0
  1  2  1  0  0  0  0
  1  3  1  0  0  0  0
  2  5  1  0  0  0  0
  3  6  1  0  0  0  0
  4  5  1  0  0  0  0
  4  6  1  0  0  0  0
  5 10  1  0  0  0  0
  6 15  1  0  0  0  0
  7 10  1  0  0  0  0
  8 15  1  0  0  0  0
  9 10  1  0  0  0  0
  9 11  1  0  0  0  0
 10 14  1  0  0  0  0
 12 15  2  0  0  0  0
 13 15  2  0  0  0  0
  1 16  1  0  0  0  0
  1 17  1  0  0  0  0
  2 18  1  0  0  0  0
  2 19  1  0  0  0  0
  3 20  1  0  0  0  0
  3 21  1  0  0  0  0
  4 22  1  0  0  0  0
  4 23  1  0  0  0  0
  5 24  1  0  0  0  0
  6 25  1  0  0  0  0
  7 26  1  0  0  0  0
  7 27  1  0  0  0  0
  7 28  1  0  0  0  0
  8 29  1  0  0  0  0
  8 30  1  0  0  0  0
  8 31  1  0  0  0  0
  9 32  1  0  0  0  0
  9 33  1  0  0  0  0
 11 34  1  0  0  0  0
 11 35  1  0  0  0  0
 14 36  1  0  0  0  0
M  END
> <FRED Chemgauss4 score>
-7.154500

$$$$
C38282056	P57853697
  -OEChem-05122015313D

 18 18  0     1  0  0  0  0  0999 V2000
  125.1771  105.4188  108.5486 C   0  0  0  0  0  0  0  0  0  0  0  0
  126.3873  105.9754  108.6419 C   0  0  0  0  0  0  0  0  0  0  0  0
  124.4468  105.5463  107.2707 C   0  0  0  0  0  0  0  0  0  0  0  0
  127.0807  106.6611  107.5034 C   0  0  1  0  0  0  0  0  0  0  0  0
  125.0958  106.3489  106.1555 C   0  0  1  0  0  0  0  0  0  0  0  0
  124.5257  107.7587  106.0938 C   0  0  0  0  0  0  0  0  0  0  0  0
  123.3284  105.0504  107.1509 O   0  0  0  0  0  0  0  0  0  0  0  0
  126.5116  106.3420  106.2326 O   0  0  0  0  0  0  0  0  0  0  0  0
  127.1812  108.0638  107.7306 O   0  0  0  0  0  0  0  0  0  0  0  0
  125.1704  108.4656  105.0478 O   0  0  0  0  0  0  0  0  0  0  0  0
  124.7334  104.8506  109.3603 H   0  0  0  0  0  0  0  0  0  0  0  0
  126.9087  105.9283  109.5998 H   0  0  0  0  0  0  0  0  0  0  0  0
  128.1627  106.2736  107.4882 H   0  0  0  0  0  0  0  0  0  0  0  0
  124.7935  105.8304  105.1781 H   0  0  0  0  0  0  0  0  0  0  0  0
  124.7021  108.2784  107.0375 H   0  0  0  0  0  0  0  0  0  0  0  0
  123.4532  107.7235  105.8927 H   0  0  0  0  0  0  0  0  0  0  0  0
  127.6916  108.1756  108.5476 H   0  0  0  0  0  0  0  0  0  0  0  0
  124.9913  107.9805  104.2248 H   0  0  0  0  0  0  0  0  0  0  0  0
  1  2  2  0  0  0  0
  1  3  1  0  0  0  0
  2  4  1  0  0  0  0
  3  5  1  0  0  0  0
  3  7  2  0  0  0  0
  4  8  1  0  0  0  0
  4  9  1  0  0  0  0
  5  6  1  0  0  0  0
  5  8  1  0  0  0  0
  6 10  1  0  0  0  0
  1 11  1  0  0  0  0
  2 12  1  0  0  0  0
  4 13  1  0  0  0  0
  5 14  1  0  0  0  0
  6 15  1  0  0  0  0
  6 16  1  0  0  0  0
  9 17  1  0  0  0  0
 10 18  1  0  0  0  0
M  END
> <FRED Chemgauss4 score>
-7.152246

$$$$
C00330427	P23897779
  -OEChem-05122015313D

 18 18  0     0  0  0  0  0  0999 V2000
  125.0966  104.9718  108.0295 C   0  0  0  0  0  0  0  0  0  0  0  0
  124.6881  107.3863  109.1469 C   0  0  0  0  0  0  0  0  0  0  0  0
  123.8890  105.5777  107.9876 C   0  0  0  0  0  0  0  0  0  0  0  0
  126.2477  105.6226  108.6981 C   0  0  0  0  0  0  0  0  0  0  0  0
  121.5664  105.5471  107.2940 C   0  0  0  0  0  0  0  0  0  0  0  0
  120.5792  104.6540  106.5890 C   0  0  0  0  0  0  0  0  0  0  0  0
  123.6828  106.8224  108.5649 N   0  0  0  0  0  0  0  0  0  0  0  0
  125.9472  106.8513  109.2398 N   0  0  0  0  0  0  0  0  0  0  0  0
  122.8285  104.9798  107.3715 N   0  0  0  0  0  0  0  0  0  0  0  0
  127.3478  105.0827  108.7398 O   0  0  0  0  0  0  0  0  0  0  0  0
  121.2320  106.6362  107.7547 O   0  0  0  0  0  0  0  0  0  0  0  0
  125.2671  103.9987  107.5810 H   0  0  0  0  0  0  0  0  0  0  0  0
  124.5957  108.3734  109.6246 H   0  0  0  0  0  0  0  0  0  0  0  0
  120.0898  104.0037  107.3194 H   0  0  0  0  0  0  0  0  0  0  0  0
  121.1090  104.0415  105.8545 H   0  0  0  0  0  0  0  0  0  0  0  0
  119.8095  105.2426  106.0816 H   0  0  0  0  0  0  0  0  0  0  0  0
  126.6775  107.3713  109.7171 H   0  0  0  0  0  0  0  0  0  0  0  0
  122.9720  104.0682  106.9461 H   0  0  0  0  0  0  0  0  0  0  0  0
  1  3  2  0  0  0  0
  1  4  1  0  0  0  0
  2  7  2  0  0  0  0
  2  8  1  0  0  0  0
  3  7  1  0  0  0  0
  3  9  1  0  0  0  0
  4  8  1  0  0  0  0
  4 10  2  0  0  0  0
  5  6  1  0  0  0  0
  5  9  1  0  0  0  0
  5 11  2  0  0  0  0
  1 12  1  0  0  0  0
  2 13  1  0  0  0  0
  6 14  1  0  0  0  0
  6 15  1  0  0  0  0
  6 16  1  0  0  0  0
  8 17  1  0  0  0  0
  9 18  1  0  0  0  0
M  END
> <FRED Chemgauss4 score>
-7.145354

$$$$
C82515868	P128954842
  -OEChem-05122015313D

 28 28  0     1  0  0  0  0  0999 V2000
  126.3394  107.7998  107.2594 C   0  0  0  0  0  0  0  0  0  0  0  0
  125.6822  106.5763  107.8674 C   0  0  0  0  0  0  0  0  0  0  0  0
  124.4041  106.8604  108.6431 C   0  0  0  0  0  0  0  0  0  0  0  0
  124.9984  109.2581  108.8058 C   0  0  0  0  0  0  0  0  0  0  0  0
  124.6329  108.0180  109.6105 C   0  0  1  0  0  0  0  0  0  0  0  0
  122.7841  110.0329  113.6945 C   0  0  0  0  0  0  0  0  0  0  0  0
  123.7500  109.0229  111.6024 C   0  0  0  0  0  0  0  0  0  0  0  0
  122.4837  109.2474  112.4251 C   0  0  1  0  0  0  0  0  0  0  0  0
  126.0613  109.0135  107.8475 N   0  0  0  0  0  0  0  0  0  0  0  0
  123.4303  108.2714  110.3980 N   0  0  0  0  0  0  0  0  0  0  0  0
  127.1455  107.6834  106.3345 O   0  0  0  0  0  0  0  0  0  0  0  0
  121.9469  107.9775  112.7908 O   0  0  0  0  0  0  0  0  0  0  0  0
  125.4667  105.8652  107.0622 H   0  0  0  0  0  0  0  0  0  0  0  0
  126.4219  106.1129  108.5315 H   0  0  0  0  0  0  0  0  0  0  0  0
  123.5962  107.1043  107.9405 H   0  0  0  0  0  0  0  0  0  0  0  0
  124.0993  105.9561  109.1838 H   0  0  0  0  0  0  0  0  0  0  0  0
  124.1418  109.6244  108.2268 H   0  0  0  0  0  0  0  0  0  0  0  0
  125.3280  110.0719  109.4609 H   0  0  0  0  0  0  0  0  0  0  0  0
  125.4495  107.7666  110.2926 H   0  0  0  0  0  0  0  0  0  0  0  0
  123.5368  109.5270  114.3068 H   0  0  0  0  0  0  0  0  0  0  0  0
  123.1424  111.0406  113.4565 H   0  0  0  0  0  0  0  0  0  0  0  0
  121.8751  110.1559  114.2933 H   0  0  0  0  0  0  0  0  0  0  0  0
  124.1977  109.9785  111.3090 H   0  0  0  0  0  0  0  0  0  0  0  0
  124.4908  108.4590  112.1786 H   0  0  0  0  0  0  0  0  0  0  0  0
  121.7283  109.7754  111.8318 H   0  0  0  0  0  0  0  0  0  0  0  0
  126.6475  109.8016  107.5900 H   0  0  0  0  0  0  0  0  0  0  0  0
  123.0097  107.3808  110.6566 H   0  0  0  0  0  0  0  0  0  0  0  0
  121.1381  108.1555  113.2947 H   0  0  0  0  0  0  0  0  0  0  0  0
  1  2  1  0  0  0  0
  1  9  1  0  0  0  0
  1 11  2  0  0  0  0
  2  3  1  0  0  0  0
  3  5  1  0  0  0  0
  4  5  1  0  0  0  0
  4  9  1  0  0  0  0
  5 10  1  0  0  0  0
  6  8  1  0  0  0  0
  7  8  1  0  0  0  0
  7 10  1  0  0  0  0
  8 12  1  0  0  0  0
  2 13  1  0  0  0  0
  2 14  1  0  0  0  0
  3 15  1  0  0  0  0
  3 16  1  0  0  0  0
  4 17  1  0  0  0  0
  4 18  1  0  0  0  0
  5 19  1  0  0  0  0
  6 20  1  0  0  0  0
  6 21  1  0  0  0  0
  6 22  1  0  0  0  0
  7 23  1  0  0  0  0
  7 24  1  0  0  0  0
  8 25  1  0  0  0  0
  9 26  1  0  0  0  0
 10 27  1  0  0  0  0
 12 28  1  0  0  0  0
M  END
> <FRED Chemgauss4 score>
-7.144786

$$$$
C37468781	P55706687
  -OEChem-05122015313D

 23 23  0     1  0  0  0  0  0999 V2000
  122.1916  104.9793  106.0495 C   0  0  0  0  0  0  0  0  0  0  0  0
  119.9609  104.6319  107.1137 C   0  0  0  0  0  0  0  0  0  0  0  0
  118.8955  104.0567  104.7785 C   0  0  0  0  0  0  0  0  0  0  0  0
  120.8968  104.2377  105.9794 C   0  0  1  0  0  0  0  0  0  0  0  0
  124.5135  104.8500  106.9296 C   0  0  0  0  0  0  0  0  0  0  0  0
  124.5575  105.6686  108.2069 C   0  0  0  0  0  0  0  0  0  0  0  0
  120.2533  104.6033  104.7091 N   0  0  0  0  0  0  0  0  0  0  0  0
  123.1843  104.3138  106.7430 N   0  0  0  0  0  0  0  0  0  0  0  0
  122.2890  106.0768  105.5132 O   0  0  0  0  0  0  0  0  0  0  0  0
  125.8754  106.1644  108.4048 O   0  0  0  0  0  0  0  0  0  0  0  0
  118.3224  104.1858  106.4917 S   0  0  0  0  0  0  0  0  0  0  0  0
  120.1867  104.0868  108.0349 H   0  0  0  0  0  0  0  0  0  0  0  0
  119.9845  105.7053  107.3299 H   0  0  0  0  0  0  0  0  0  0  0  0
  118.2264  104.6060  104.1108 H   0  0  0  0  0  0  0  0  0  0  0  0
  118.8906  103.0017  104.4855 H   0  0  0  0  0  0  0  0  0  0  0  0
  121.1162  103.1577  106.0001 H   0  0  0  0  0  0  0  0  0  0  0  0
  124.7619  105.4624  106.0569 H   0  0  0  0  0  0  0  0  0  0  0  0
  125.2141  104.0117  106.9901 H   0  0  0  0  0  0  0  0  0  0  0  0
  124.3012  105.0390  109.0645 H   0  0  0  0  0  0  0  0  0  0  0  0
  123.8650  106.5157  108.1662 H   0  0  0  0  0  0  0  0  0  0  0  0
  120.7570  104.1996  103.9206 H   0  0  0  0  0  0  0  0  0  0  0  0
  122.9697  103.4042  107.1406 H   0  0  0  0  0  0  0  0  0  0  0  0
  125.8597  106.6793  109.2275 H   0  0  0  0  0  0  0  0  0  0  0  0
  1  4  1  0  0  0  0
  1  8  1  0  0  0  0
  1  9  2  0  0  0  0
  2  4  1  0  0  0  0
  2 11  1  0  0  0  0
  3  7  1  0  0  0  0
  3 11  1  0  0  0  0
  4  7  1  0  0  0  0
  5  6  1  0  0  0  0
  5  8  1  0  0  0  0
  6 10  1  0  0  0  0
  2 12  1  0  0  0  0
  2 13  1  0  0  0  0
  3 14  1  0  0  0  0
  3 15  1  0  0  0  0
  4 16  1  0  0  0  0
  5 17  1  0  0  0  0
  5 18  1  0  0  0  0
  6 19  1  0  0  0  0
  6 20  1  0  0  0  0
  7 21  1  0  0  0  0
  8 22  1  0  0  0  0
 10 23  1  0  0  0  0
M  END
> <FRED Chemgauss4 score>
-7.124822

$$$$
C83947884	P131328941
  -OEChem-05122015313D

 15 15  0     1  0  0  0  0  0999 V2000
  125.2363  106.3909  105.9358 C   0  0  0  0  0  0  0  0  0  0  0  0
  125.2128  107.4436  106.5132 C   0  0  0  0  0  0  0  0  0  0  0  0
  122.9401  109.2702  109.9469 C   0  0  0  0  0  0  0  0  0  0  0  0
  124.1670  108.7573  108.3379 C   0  0  0  0  0  0  0  0  0  0  0  0
  125.1828  108.7362  107.2160 C   0  0  1  0  0  0  0  0  0  0  0  0
  123.9178  109.7701  109.1352 N   0  0  0  0  0  0  0  0  0  0  0  0
  123.3684  107.7072  108.6686 N   0  0  0  0  0  0  0  0  0  0  0  0
  122.5687  108.0118  109.7019 N   0  0  0  0  0  0  0  0  0  0  0  0
  126.5038  109.0785  107.6888 N   0  0  0  0  0  0  0  0  0  0  0  0
  125.2572  105.4573  105.4240 H   0  0  0  0  0  0  0  0  0  0  0  0
  122.4935  109.8562  110.7394 H   0  0  0  0  0  0  0  0  0  0  0  0
  124.9300  109.5166  106.4877 H   0  0  0  0  0  0  0  0  0  0  0  0
  121.8988  107.3574  110.0966 H   0  0  0  0  0  0  0  0  0  0  0  0
  126.5953  109.7569  108.4241 H   0  0  0  0  0  0  0  0  0  0  0  0
  127.3014  108.7944  107.1479 H   0  0  0  0  0  0  0  0  0  0  0  0
  1  2  3  0  0  0  0
  2  5  1  0  0  0  0
  3  6  2  0  0  0  0
  3  8  1  0  0  0  0
  4  5  1  0  0  0  0
  4  6  1  0  0  0  0
  4  7  2  0  0  0  0
  5  9  1  0  0  0  0
  7  8  1  0  0  0  0
  1 10  1  0  0  0  0
  3 11  1  0  0  0  0
  5 12  1  0  0  0  0
  8 13  1  0  0  0  0
  9 14  1  0  0  0  0
  9 15  1  0  0  0  0
M  END
> <FRED Chemgauss4 score>
-7.121856

$$$$
C50194441	P75082774
  -OEChem-05122015313D

 24 25  0     1  0  0  0  0  0999 V2000
  125.8432  107.8486  107.2935 C   0  0  0  0  0  0  0  0  0  0  0  0
  124.6269  108.8561  108.7974 C   0  0  0  0  0  0  0  0  0  0  0  0
  126.3227  106.7268  106.5872 C   0  0  0  0  0  0  0  0  0  0  0  0
  125.8627  105.5099  106.9027 C   0  0  0  0  0  0  0  0  0  0  0  0
  124.8537  105.4204  108.0018 C   0  0  0  0  0  0  0  0  0  0  0  0
  124.3382  104.0475  108.3513 C   0  0  0  0  0  0  0  0  0  0  0  0
  124.0435  108.3434  111.2034 C   0  0  0  0  0  0  0  0  0  0  0  0
  123.6648  109.0666  109.8942 C   0  0  2  0  0  0  0  0  0  0  0  0
  126.0961  109.1381  107.2176 N   0  0  0  0  0  0  0  0  0  0  0  0
  125.3259  109.7748  108.1699 N   0  0  0  0  0  0  0  0  0  0  0  0
  124.3912  106.4343  108.6739 N   0  0  0  0  0  0  0  0  0  0  0  0
  124.9143  107.6248  108.2846 N   0  0  0  0  0  0  0  0  0  0  0  0
  122.3010  108.6982  109.5266 N   0  0  0  0  0  0  0  0  0  0  0  0
  127.0553  106.8588  105.7992 H   0  0  0  0  0  0  0  0  0  0  0  0
  126.1946  104.6138  106.3951 H   0  0  0  0  0  0  0  0  0  0  0  0
  124.9721  103.6146  109.1183 H   0  0  0  0  0  0  0  0  0  0  0  0
  124.3539  103.4246  107.4625 H   0  0  0  0  0  0  0  0  0  0  0  0
  123.3197  104.1326  108.7166 H   0  0  0  0  0  0  0  0  0  0  0  0
  124.1423  107.2665  111.0288 H   0  0  0  0  0  0  0  0  0  0  0  0
  124.9922  108.7093  111.6120 H   0  0  0  0  0  0  0  0  0  0  0  0
  123.2816  108.4918  111.9769 H   0  0  0  0  0  0  0  0  0  0  0  0
  123.5846  110.1435  110.1533 H   0  0  0  0  0  0  0  0  0  0  0  0
  121.9979  108.8883  108.5957 H   0  0  0  0  0  0  0  0  0  0  0  0
  121.6647  108.4636  110.2578 H   0  0  0  0  0  0  0  0  0  0  0  0
  1  3  1  0  0  0  0
  1  9  2  0  0  0  0
  1 12  1  0  0  0  0
  2  8  1  0  0  0  0
  2 10  2  0  0  0  0
  2 12  1  0  0  0  0
  3  4  2  0  0  0  0
  4  5  1  0  0  0  0
  5  6  1  0  0  0  0
  5 11  2  0  0  0  0
  7  8  1  0  0  0  0
  8 13  1  0  0  0  0
  9 10  1  0  0  0  0
 11 12  1  0  0  0  0
  3 14  1  0  0  0  0
  4 15  1  0  0  0  0
  6 16  1  0  0  0  0
  6 17  1  0  0  0  0
  6 18  1  0  0  0  0
  7 19  1  0  0  0  0
  7 20  1  0  0  0  0
  7 21  1  0  0  0  0
  8 22  1  0  0  0  0
 13 23  1  0  0  0  0
 13 24  1  0  0  0  0
M  END
> <FRED Chemgauss4 score>
-7.121764

$$$$
C02558640	P06221219
  -OEChem-05122015313D

 23 23  0     1  0  0  0  0  0999 V2000
  124.8179  106.1411  105.9695 C   0  0  0  0  0  0  0  0  0  0  0  0
  125.3159  107.4996  106.4421 C   0  0  1  0  0  0  0  0  0  0  0  0
  126.3943  107.3350  107.5123 C   0  0  2  0  0  0  0  0  0  0  0  0
  125.9408  106.3637  108.6019 C   0  0  1  0  0  0  0  0  0  0  0  0
  125.3759  105.0736  108.0050 C   0  0  2  0  0  0  0  0  0  0  0  0
  123.5624  104.7457  109.4631 C   0  0  0  0  0  0  0  0  0  0  0  0
  124.3428  105.3689  107.0668 O   0  0  0  0  0  0  0  0  0  0  0  0
  125.8396  108.2003  105.3196 O   0  0  0  0  0  0  0  0  0  0  0  0
  126.6554  108.5989  108.1242 O   0  0  0  0  0  0  0  0  0  0  0  0
  127.0660  106.0526  109.4235 O   0  0  0  0  0  0  0  0  0  0  0  0
  124.8492  104.2903  109.0750 O   0  0  0  0  0  0  0  0  0  0  0  0
  123.9926  106.2728  105.2611 H   0  0  0  0  0  0  0  0  0  0  0  0
  125.5986  105.5884  105.4314 H   0  0  0  0  0  0  0  0  0  0  0  0
  124.4796  108.0847  106.8420 H   0  0  0  0  0  0  0  0  0  0  0  0
  127.3394  107.0042  107.0661 H   0  0  0  0  0  0  0  0  0  0  0  0
  125.1980  106.8477  109.2488 H   0  0  0  0  0  0  0  0  0  0  0  0
  126.1672  104.4849  107.5241 H   0  0  0  0  0  0  0  0  0  0  0  0
  123.1877  104.1269  110.2821 H   0  0  0  0  0  0  0  0  0  0  0  0
  122.8823  104.6897  108.6093 H   0  0  0  0  0  0  0  0  0  0  0  0
  123.6385  105.7828  109.7983 H   0  0  0  0  0  0  0  0  0  0  0  0
  125.1118  108.2920  104.6845 H   0  0  0  0  0  0  0  0  0  0  0  0
  125.8188  108.8907  108.5165 H   0  0  0  0  0  0  0  0  0  0  0  0
  127.7273  105.6491  108.8411 H   0  0  0  0  0  0  0  0  0  0  0  0
  1  2  1  0  0  0  0
  1  7  1  0  0  0  0
  2  3  1  0  0  0  0
  2  8  1  0  0  0  0
  3  4  1  0  0  0  0
  3  9  1  0  0  0  0
  4  5  1  0  0  0  0
  4 10  1  0  0  0  0
  5  7  1  0  0  0  0
  5 11  1  0  0  0  0
  6 11  1  0  0  0  0
  1 12  1  0  0  0  0
  1 13  1  0  0  0  0
  2 14  1  0  0  0  0
  3 15  1  0  0  0  0
  4 16  1  0  0  0  0
  5 17  1  0  0  0  0
  6 18  1  0  0  0  0
  6 19  1  0  0  0  0
  6 20  1  0  0  0  0
  8 21  1  0  0  0  0
  9 22  1  0  0  0  0
 10 23  1  0  0  0  0
M  END
> <FRED Chemgauss4 score>
-7.121607

$$$$
C04963500	P110855107
  -OEChem-05122015313D

 20 21  0     1  0  0  0  0  0999 V2000
  124.0927  108.4145  107.2019 C   0  0  0  0  0  0  0  0  0  0  0  0
  124.3260  104.5166  107.8989 C   0  0  0  0  0  0  0  0  0  0  0  0
  125.1632  107.4398  106.7976 C   0  0  2  0  0  0  0  0  0  0  0  0
  125.7436  104.8315  108.2870 C   0  0  1  0  0  0  0  0  0  0  0  0
  126.3948  107.2140  107.6669 C   0  0  2  0  0  0  0  0  0  0  0  0
  126.1336  106.2126  108.8006 C   0  0  2  0  0  0  0  0  0  0  0  0
  125.0797  108.7427  106.2112 O   0  0  0  0  0  0  0  0  0  0  0  0
  124.8768  104.0962  109.1569 O   0  0  0  0  0  0  0  0  0  0  0  0
  126.7979  108.4653  108.2199 O   0  0  0  0  0  0  0  0  0  0  0  0
  127.2924  106.0773  109.6212 O   0  0  0  0  0  0  0  0  0  0  0  0
  123.0826  108.2344  106.8578 H   0  0  0  0  0  0  0  0  0  0  0  0
  124.1677  108.9039  108.1640 H   0  0  0  0  0  0  0  0  0  0  0  0
  123.5909  105.3106  107.9147 H   0  0  0  0  0  0  0  0  0  0  0  0
  124.1599  103.7547  107.1485 H   0  0  0  0  0  0  0  0  0  0  0  0
  124.8959  106.5868  106.1901 H   0  0  0  0  0  0  0  0  0  0  0  0
  126.5516  104.3022  107.8023 H   0  0  0  0  0  0  0  0  0  0  0  0
  127.2182  106.8468  107.0435 H   0  0  0  0  0  0  0  0  0  0  0  0
  125.3297  106.5925  109.4409 H   0  0  0  0  0  0  0  0  0  0  0  0
  126.0498  108.7877  108.7455 H   0  0  0  0  0  0  0  0  0  0  0  0
  127.9856  105.7001  109.0582 H   0  0  0  0  0  0  0  0  0  0  0  0
  1  3  1  0  0  0  0
  1  7  1  0  0  0  0
  2  4  1  0  0  0  0
  2  8  1  0  0  0  0
  3  5  1  0  0  0  0
  3  7  1  0  0  0  0
  4  6  1  0  0  0  0
  4  8  1  0  0  0  0
  5  6  1  0  0  0  0
  5  9  1  0  0  0  0
  6 10  1  0  0  0  0
  1 11  1  0  0  0  0
  1 12  1  0  0  0  0
  2 13  1  0  0  0  0
  2 14  1  0  0  0  0
  3 15  1  0  0  0  0
  4 16  1  0  0  0  0
  5 17  1  0  0  0  0
  6 18  1  0  0  0  0
  9 19  1  0  0  0  0
 10 20  1  0  0  0  0
M  END
> <FRED Chemgauss4 score>
-7.118244

$$$$
C01532575	P57081966
  -OEChem-05122015313D

 20 20  0     1  0  0  0  0  0999 V2000
  125.5123  105.3225  107.8555 C   0  0  0  0  0  0  0  0  0  0  0  0
  126.2852  106.5781  108.2383 C   0  0  1  0  0  0  0  0  0  0  0  0
  126.2504  107.5909  107.0950 C   0  0  1  0  0  0  0  0  0  0  0  0
  124.8197  107.8359  106.6183 C   0  0  2  0  0  0  0  0  0  0  0  0
  124.1079  106.5090  106.3417 C   0  0  1  0  0  0  0  0  0  0  0  0
  124.1724  105.6520  107.4800 O   0  0  0  0  0  0  0  0  0  0  0  0
  125.6695  107.1306  109.4029 O   0  0  0  0  0  0  0  0  0  0  0  0
  126.8243  108.8252  107.5163 O   0  0  0  0  0  0  0  0  0  0  0  0
  124.8701  108.6043  105.4164 O   0  0  0  0  0  0  0  0  0  0  0  0
  122.7457  106.8011  106.0329 O   0  0  0  0  0  0  0  0  0  0  0  0
  125.9980  104.7861  107.0324 H   0  0  0  0  0  0  0  0  0  0  0  0
  125.4432  104.6437  108.7119 H   0  0  0  0  0  0  0  0  0  0  0  0
  127.3182  106.3315  108.5066 H   0  0  0  0  0  0  0  0  0  0  0  0
  126.8580  107.2257  106.2579 H   0  0  0  0  0  0  0  0  0  0  0  0
  124.2690  108.4318  107.3563 H   0  0  0  0  0  0  0  0  0  0  0  0
  124.5431  106.0068  105.4684 H   0  0  0  0  0  0  0  0  0  0  0  0
  125.7261  106.4501  110.0902 H   0  0  0  0  0  0  0  0  0  0  0  0
  127.7393  108.6315  107.7731 H   0  0  0  0  0  0  0  0  0  0  0  0
  125.3719  108.0783  104.7754 H   0  0  0  0  0  0  0  0  0  0  0  0
  122.3145  105.9500  105.8617 H   0  0  0  0  0  0  0  0  0  0  0  0
  1  2  1  0  0  0  0
  1  6  1  0  0  0  0
  2  3  1  0  0  0  0
  2  7  1  0  0  0  0
  3  4  1  0  0  0  0
  3  8  1  0  0  0  0
  4  5  1  0  0  0  0
  4  9  1  0  0  0  0
  5  6  1  0  0  0  0
  5 10  1  0  0  0  0
  1 11  1  0  0  0  0
  1 12  1  0  0  0  0
  2 13  1  0  0  0  0
  3 14  1  0  0  0  0
  4 15  1  0  0  0  0
  5 16  1  0  0  0  0
  7 17  1  0  0  0  0
  8 18  1  0  0  0  0
  9 19  1  0  0  0  0
 10 20  1  0  0  0  0
M  END
> <FRED Chemgauss4 score>
-7.114786

$$$$
C00039527	P77070026
  -OEChem-05122015313D

 20 20  0     1  0  0  0  0  0999 V2000
  125.2566  107.8504  106.4491 C   0  0  0  0  0  0  0  0  0  0  0  0
  126.2544  106.0542  108.4606 C   0  0  0  0  0  0  0  0  0  0  0  0
  126.6678  108.0186  106.9957 C   0  0  1  0  0  0  0  0  0  0  0  0
  125.5244  105.5098  107.2403 C   0  0  1  0  0  0  0  0  0  0  0  0
  127.0605  109.4823  107.1145 C   0  0  0  0  0  0  0  0  0  0  0  0
  124.6647  104.3040  107.5835 C   0  0  0  0  0  0  0  0  0  0  0  0
  126.6991  107.3565  108.2916 N   0  0  0  0  0  0  0  0  0  0  0  0
  124.7181  106.5997  106.7108 N   0  0  0  0  0  0  0  0  0  0  0  0
  124.6969  108.6909  105.7493 O   0  0  0  0  0  0  0  0  0  0  0  0
  126.5240  105.3740  109.4476 O   0  0  0  0  0  0  0  0  0  0  0  0
  127.3625  107.4933  106.3300 H   0  0  0  0  0  0  0  0  0  0  0  0
  126.2690  105.2400  106.4825 H   0  0  0  0  0  0  0  0  0  0  0  0
  126.3688  110.0048  107.7772 H   0  0  0  0  0  0  0  0  0  0  0  0
  127.0347  109.9594  106.1335 H   0  0  0  0  0  0  0  0  0  0  0  0
  128.0695  109.5693  107.5209 H   0  0  0  0  0  0  0  0  0  0  0  0
  123.9235  104.5728  108.3379 H   0  0  0  0  0  0  0  0  0  0  0  0
  125.2869  103.4974  107.9745 H   0  0  0  0  0  0  0  0  0  0  0  0
  124.1453  103.9466  106.6928 H   0  0  0  0  0  0  0  0  0  0  0  0
  127.0573  107.8635  109.0957 H   0  0  0  0  0  0  0  0  0  0  0  0
  123.7319  106.4395  106.5276 H   0  0  0  0  0  0  0  0  0  0  0  0
  1  3  1  0  0  0  0
  1  8  1  0  0  0  0
  1  9  2  0  0  0  0
  2  4  1  0  0  0  0
  2  7  1  0  0  0  0
  2 10  2  0  0  0  0
  3  5  1  0  0  0  0
  3  7  1  0  0  0  0
  4  6  1  0  0  0  0
  4  8  1  0  0  0  0
  3 11  1  0  0  0  0
  4 12  1  0  0  0  0
  5 13  1  0  0  0  0
  5 14  1  0  0  0  0
  5 15  1  0  0  0  0
  6 16  1  0  0  0  0
  6 17  1  0  0  0  0
  6 18  1  0  0  0  0
  7 19  1  0  0  0  0
  8 20  1  0  0  0  0
M  END
> <FRED Chemgauss4 score>
-7.114752

$$$$
C84328183	P131958380
  -OEChem-05122015313D

 21 21  0     1  0  0  0  0  0999 V2000
  124.2700  109.3172  109.5013 C   0  0  0  0  0  0  0  0  0  0  0  0
  126.0446  105.2186  108.8171 C   0  0  0  0  0  0  0  0  0  0  0  0
  125.7986  106.6117  108.8622 C   0  0  0  0  0  0  0  0  0  0  0  0
  125.3414  104.7414  107.7355 C   0  0  0  0  0  0  0  0  0  0  0  0
  124.9628  106.8864  107.8048 C   0  0  0  0  0  0  0  0  0  0  0  0
  125.1791  103.4019  107.1527 C   0  0  0  0  0  0  0  0  0  0  0  0
  124.7065  109.4148  108.0995 C   0  0  0  0  0  0  0  0  0  0  0  0
  124.3269  108.1632  107.2901 C   0  0  1  0  0  0  0  0  0  0  0  0
  123.9247  109.2417  110.6065 N   0  0  0  0  0  0  0  0  0  0  0  0
  124.7046  108.3645  105.9034 N   0  0  0  0  0  0  0  0  0  0  0  0
  124.6794  105.7517  107.1131 O   0  0  0  0  0  0  0  0  0  0  0  0
  126.6584  104.6372  109.4901 H   0  0  0  0  0  0  0  0  0  0  0  0
  126.1843  107.3238  109.5776 H   0  0  0  0  0  0  0  0  0  0  0  0
  124.3180  102.8706  107.5958 H   0  0  0  0  0  0  0  0  0  0  0  0
  125.0183  103.4362  106.0592 H   0  0  0  0  0  0  0  0  0  0  0  0
  126.0718  102.7670  107.3041 H   0  0  0  0  0  0  0  0  0  0  0  0
  124.2890  110.3221  107.6466 H   0  0  0  0  0  0  0  0  0  0  0  0
  125.7967  109.5415  108.0809 H   0  0  0  0  0  0  0  0  0  0  0  0
  123.2348  108.0544  107.3140 H   0  0  0  0  0  0  0  0  0  0  0  0
  124.6465  109.2881  105.5212 H   0  0  0  0  0  0  0  0  0  0  0  0
  124.8140  107.5607  105.3163 H   0  0  0  0  0  0  0  0  0  0  0  0
  1  7  1  0  0  0  0
  1  9  3  0  0  0  0
  2  3  1  0  0  0  0
  2  4  2  0  0  0  0
  3  5  2  0  0  0  0
  4  6  1  0  0  0  0
  4 11  1  0  0  0  0
  5  8  1  0  0  0  0
  5 11  1  0  0  0  0
  7  8  1  0  0  0  0
  8 10  1  0  0  0  0
  2 12  1  0  0  0  0
  3 13  1  0  0  0  0
  6 14  1  0  0  0  0
  6 15  1  0  0  0  0
  6 16  1  0  0  0  0
  7 17  1  0  0  0  0
  7 18  1  0  0  0  0
  8 19  1  0  0  0  0
 10 20  1  0  0  0  0
 10 21  1  0  0  0  0
M  END
> <FRED Chemgauss4 score>
-7.114357

$$$$
C82471531	P128883666
  -OEChem-05122015313D

 23 23  0     1  0  0  0  0  0999 V2000
  124.1977  104.2991  107.9230 C   0  0  0  0  0  0  0  0  0  0  0  0
  125.4654  104.6996  107.9638 C   0  0  0  0  0  0  0  0  0  0  0  0
  123.1964  105.2996  108.2945 C   0  0  0  0  0  0  0  0  0  0  0  0
  125.8034  106.0845  108.3667 C   0  0  0  0  0  0  0  0  0  0  0  0
  123.8886  108.6741  110.0973 C   0  0  0  0  0  0  0  0  0  0  0  0
  124.9672  109.2274  107.9016 C   0  0  0  0  0  0  0  0  0  0  0  0
  124.9712  108.2880  109.0977 C   0  0  2  0  0  0  0  0  0  0  0  0
  123.4289  106.5167  108.6525 N   0  0  0  0  0  0  0  0  0  0  0  0
  124.7396  106.9263  108.6939 N   0  0  0  0  0  0  0  0  0  0  0  0
  123.5729  109.4050  112.3438 N   0  0  0  0  0  0  0  0  0  0  0  0
  124.4203  108.9911  111.3366 N   0  0  0  0  0  0  0  0  0  0  0  0
  126.9867  106.4225  108.3928 O   0  0  0  0  0  0  0  0  0  0  0  0
  122.6958  108.7291  109.8034 O   0  0  0  0  0  0  0  0  0  0  0  0
  123.8929  103.3025  107.6370 H   0  0  0  0  0  0  0  0  0  0  0  0
  126.2768  104.0292  107.7056 H   0  0  0  0  0  0  0  0  0  0  0  0
  122.1512  104.9519  108.2558 H   0  0  0  0  0  0  0  0  0  0  0  0
  123.9971  109.2197  107.3940 H   0  0  0  0  0  0  0  0  0  0  0  0
  125.1812  110.2556  108.2126 H   0  0  0  0  0  0  0  0  0  0  0  0
  125.7269  108.9374  107.1667 H   0  0  0  0  0  0  0  0  0  0  0  0
  125.9490  108.3100  109.5912 H   0  0  0  0  0  0  0  0  0  0  0  0
  123.9640  109.0595  113.2193 H   0  0  0  0  0  0  0  0  0  0  0  0
  122.6932  108.9072  112.2132 H   0  0  0  0  0  0  0  0  0  0  0  0
  125.4131  108.9306  111.5395 H   0  0  0  0  0  0  0  0  0  0  0  0
  1  2  2  0  0  0  0
  1  3  1  0  0  0  0
  2  4  1  0  0  0  0
  3  8  2  0  0  0  0
  4  9  1  0  0  0  0
  4 12  2  0  0  0  0
  5  7  1  0  0  0  0
  5 11  1  0  0  0  0
  5 13  2  0  0  0  0
  6  7  1  0  0  0  0
  7  9  1  0  0  0  0
  8  9  1  0  0  0  0
 10 11  1  0  0  0  0
  1 14  1  0  0  0  0
  2 15  1  0  0  0  0
  3 16  1  0  0  0  0
  6 17  1  0  0  0  0
  6 18  1  0  0  0  0
  6 19  1  0  0  0  0
  7 20  1  0  0  0  0
 10 21  1  0  0  0  0
 10 22  1  0  0  0  0
 11 23  1  0  0  0  0
M  END
> <FRED Chemgauss4 score>
-7.111532

$$$$
C84117862	P131638256
  -OEChem-05122015313D

 24 24  0     1  0  0  0  0  0999 V2000
  123.7884  105.9601  107.1706 C   0  0  0  0  0  0  0  0  0  0  0  0
  122.2647  106.1103  105.3754 C   0  0  0  0  0  0  0  0  0  0  0  0
  125.5962  106.6511  108.7647 C   0  0  0  0  0  0  0  0  0  0  0  0
  118.9846  104.6579  103.8746 C   0  0  0  0  0  0  0  0  0  0  0  0
  124.5267  105.6156  108.4025 C   0  0  0  0  0  0  0  0  0  0  0  0
  120.1470  104.8392  104.8431 C   0  0  0  0  0  0  0  0  0  0  0  0
  121.1190  105.9451  104.3976 C   0  0  1  0  0  0  0  0  0  0  0  0
  124.1435  106.8862  106.3057 N   0  0  0  0  0  0  0  0  0  0  0  0
  123.2492  106.9750  105.2533 N   0  0  0  0  0  0  0  0  0  0  0  0
  120.4376  107.2044  104.1965 N   0  0  0  0  0  0  0  0  0  0  0  0
  122.3448  105.1226  106.7752 S   0  0  0  0  0  0  0  0  0  0  0  0
  126.3006  106.7876  107.9371 H   0  0  0  0  0  0  0  0  0  0  0  0
  126.1653  106.3413  109.6468 H   0  0  0  0  0  0  0  0  0  0  0  0
  125.1387  107.6226  108.9802 H   0  0  0  0  0  0  0  0  0  0  0  0
  119.3461  104.4388  102.8648 H   0  0  0  0  0  0  0  0  0  0  0  0
  118.3537  103.8232  104.1965 H   0  0  0  0  0  0  0  0  0  0  0  0
  118.3580  105.5541  103.8303 H   0  0  0  0  0  0  0  0  0  0  0  0
  123.8384  105.5087  109.2630 H   0  0  0  0  0  0  0  0  0  0  0  0
  125.0152  104.6263  108.3109 H   0  0  0  0  0  0  0  0  0  0  0  0
  119.7419  105.0563  105.8395 H   0  0  0  0  0  0  0  0  0  0  0  0
  120.6836  103.8849  104.9201 H   0  0  0  0  0  0  0  0  0  0  0  0
  121.5245  105.6752  103.4145 H   0  0  0  0  0  0  0  0  0  0  0  0
  119.4981  107.1948  103.8433 H   0  0  0  0  0  0  0  0  0  0  0  0
  120.9740  108.0528  104.2166 H   0  0  0  0  0  0  0  0  0  0  0  0
  1  5  1  0  0  0  0
  1  8  2  0  0  0  0
  1 11  1  0  0  0  0
  2  7  1  0  0  0  0
  2  9  2  0  0  0  0
  2 11  1  0  0  0  0
  3  5  1  0  0  0  0
  4  6  1  0  0  0  0
  6  7  1  0  0  0  0
  7 10  1  0  0  0  0
  8  9  1  0  0  0  0
  3 12  1  0  0  0  0
  3 13  1  0  0  0  0
  3 14  1  0  0  0  0
  4 15  1  0  0  0  0
  4 16  1  0  0  0  0
  4 17  1  0  0  0  0
  5 18  1  0  0  0  0
  5 19  1  0  0  0  0
  6 20  1  0  0  0  0
  6 21  1  0  0  0  0
  7 22  1  0  0  0  0
 10 23  1  0  0  0  0
 10 24  1  0  0  0  0
M  END
> <FRED Chemgauss4 score>
-7.105984

$$$$
C05501770	P85200389
  -OEChem-05122015313D

 17 16  0     0  0  0  0  0  0999 V2000
  124.9393  106.4807  107.9038 C   0  0  0  0  0  0  0  0  0  0  0  0
  125.2078  107.9188  107.6163 C   0  0  0  0  0  0  0  0  0  0  0  0
  124.1139  108.5999  109.7776 C   0  0  0  0  0  0  0  0  0  0  0  0
  123.8067  109.9124  110.4751 C   0  0  0  0  0  0  0  0  0  0  0  0
  125.9232  105.8282  108.5952 N   0  0  0  0  0  0  0  0  0  0  0  0
  124.7992  108.8621  108.5288 N   0  0  0  0  0  0  0  0  0  0  0  0
  123.0072  110.7236  109.6239 O   0  0  0  0  0  0  0  0  0  0  0  0
  123.5183  105.8066  107.3674 S   0  0  0  0  0  0  0  0  0  0  0  0
  125.9488  108.2801  106.1669 S   0  0  0  0  0  0  0  0  0  0  0  0
  124.7565  107.9636  110.3944 H   0  0  0  0  0  0  0  0  0  0  0  0
  123.1879  108.0625  109.5522 H   0  0  0  0  0  0  0  0  0  0  0  0
  124.7355  110.4530  110.6823 H   0  0  0  0  0  0  0  0  0  0  0  0
  123.2694  109.7523  111.4155 H   0  0  0  0  0  0  0  0  0  0  0  0
  126.7756  106.2939  108.8894 H   0  0  0  0  0  0  0  0  0  0  0  0
  125.8318  104.8472  108.8369 H   0  0  0  0  0  0  0  0  0  0  0  0
  124.9958  109.8332  108.3061 H   0  0  0  0  0  0  0  0  0  0  0  0
  122.8346  111.5486  110.1055 H   0  0  0  0  0  0  0  0  0  0  0  0
  1  2  1  0  0  0  0
  1  5  1  0  0  0  0
  1  8  2  0  0  0  0
  2  6  1  0  0  0  0
  2  9  2  0  0  0  0
  3  4  1  0  0  0  0
  3  6  1  0  0  0  0
  4  7  1  0  0  0  0
  3 10  1  0  0  0  0
  3 11  1  0  0  0  0
  4 12  1  0  0  0  0
  4 13  1  0  0  0  0
  5 14  1  0  0  0  0
  5 15  1  0  0  0  0
  6 16  1  0  0  0  0
  7 17  1  0  0  0  0
M  END
> <FRED Chemgauss4 score>
-7.104548

$$$$
C41059448	P62324462
  -OEChem-05122015313D

 20 21  0     1  0  0  0  0  0999 V2000
  124.6081  104.5274  107.3105 C   0  0  0  0  0  0  0  0  0  0  0  0
  125.5955  104.2964  108.2453 C   0  0  0  0  0  0  0  0  0  0  0  0
  125.1921  106.6063  107.6938 C   0  0  0  0  0  0  0  0  0  0  0  0
  124.4981  108.5089  110.0777 C   0  0  0  0  0  0  0  0  0  0  0  0
  123.2849  108.0375  109.3258 C   0  0  0  0  0  0  0  0  0  0  0  0
  124.3585  108.8109  108.6114 C   0  0  0  0  0  0  0  0  0  0  0  0
  125.2376  108.1322  107.6190 C   0  0  1  0  0  0  0  0  0  0  0  0
  124.3751  105.8514  106.9933 N   0  0  0  0  0  0  0  0  0  0  0  0
  126.6176  108.5935  107.7242 N   0  0  0  0  0  0  0  0  0  0  0  0
  126.2677  105.7903  108.7531 S   0  0  0  0  0  0  0  0  0  0  0  0
  124.0228  103.7583  106.8247 H   0  0  0  0  0  0  0  0  0  0  0  0
  125.9441  103.3523  108.6391 H   0  0  0  0  0  0  0  0  0  0  0  0
  124.3677  109.3155  110.7886 H   0  0  0  0  0  0  0  0  0  0  0  0
  125.2292  107.7657  110.3716 H   0  0  0  0  0  0  0  0  0  0  0  0
  123.2023  106.9782  109.1159 H   0  0  0  0  0  0  0  0  0  0  0  0
  122.3422  108.5287  109.5330 H   0  0  0  0  0  0  0  0  0  0  0  0
  124.1374  109.8326  108.3272 H   0  0  0  0  0  0  0  0  0  0  0  0
  124.9349  108.4239  106.5927 H   0  0  0  0  0  0  0  0  0  0  0  0
  126.7776  109.5487  107.9637 H   0  0  0  0  0  0  0  0  0  0  0  0
  127.3385  108.0076  107.3602 H   0  0  0  0  0  0  0  0  0  0  0  0
  1  2  2  0  0  0  0
  1  8  1  0  0  0  0
  2 10  1  0  0  0  0
  3  7  1  0  0  0  0
  3  8  2  0  0  0  0
  3 10  1  0  0  0  0
  4  5  1  0  0  0  0
  4  6  1  0  0  0  0
  5  6  1  0  0  0  0
  6  7  1  0  0  0  0
  7  9  1  0  0  0  0
  1 11  1  0  0  0  0
  2 12  1  0  0  0  0
  4 13  1  0  0  0  0
  4 14  1  0  0  0  0
  5 15  1  0  0  0  0
  5 16  1  0  0  0  0
  6 17  1  0  0  0  0
  7 18  1  0  0  0  0
  9 19  1  0  0  0  0
  9 20  1  0  0  0  0
M  END
> <FRED Chemgauss4 score>
-7.103001

$$$$
C82915348	P129630587
  -OEChem-05122015313D

 36 36  0     1  0  0  0  0  0999 V2000
  117.6334  104.5156  104.5251 C   0  0  0  0  0  0  0  0  0  0  0  0
  117.9399  106.3790  106.0064 C   0  0  0  0  0  0  0  0  0  0  0  0
  117.3460  105.4885  103.3767 C   0  0  1  0  0  0  0  0  0  0  0  0
  117.6226  107.3482  104.8613 C   0  0  1  0  0  0  0  0  0  0  0  0
  116.3327  104.8971  102.4043 C   0  0  0  0  0  0  0  0  0  0  0  0
  118.8665  107.9696  104.2277 C   0  0  0  0  0  0  0  0  0  0  0  0
  120.1549  104.6287  107.2746 C   0  0  0  0  0  0  0  0  0  0  0  0
  118.8484  104.2219  106.5880 C   0  0  0  0  0  0  0  0  0  0  0  0
  121.3800  105.9359  105.5001 C   0  0  0  0  0  0  0  0  0  0  0  0
  121.3417  104.6305  106.3009 C   0  0  1  0  0  0  0  0  0  0  0  0
  118.5444  105.1419  105.4934 N   0  0  0  0  0  0  0  0  0  0  0  0
  122.7085  106.1680  104.9388 N   0  0  0  0  0  0  0  0  0  0  0  0
  116.7963  106.7104  103.8804 O   0  0  0  0  0  0  0  0  0  0  0  0
  122.5427  104.5006  107.0595 O   0  0  0  0  0  0  0  0  0  0  0  0
  116.6947  104.2305  105.0197 H   0  0  0  0  0  0  0  0  0  0  0  0
  118.0873  103.6040  104.1180 H   0  0  0  0  0  0  0  0  0  0  0  0
  118.6162  106.8677  106.7180 H   0  0  0  0  0  0  0  0  0  0  0  0
  117.0096  106.1448  106.5415 H   0  0  0  0  0  0  0  0  0  0  0  0
  118.2636  105.7066  102.8176 H   0  0  0  0  0  0  0  0  0  0  0  0
  117.0221  108.1696  105.2701 H   0  0  0  0  0  0  0  0  0  0  0  0
  115.4047  104.6672  102.9277 H   0  0  0  0  0  0  0  0  0  0  0  0
  116.7281  103.9810  101.9659 H   0  0  0  0  0  0  0  0  0  0  0  0
  116.1223  105.6095  101.6067 H   0  0  0  0  0  0  0  0  0  0  0  0
  119.4953  107.1872  103.8067 H   0  0  0  0  0  0  0  0  0  0  0  0
  119.4310  108.5143  104.9823 H   0  0  0  0  0  0  0  0  0  0  0  0
  118.5725  108.6565  103.4361 H   0  0  0  0  0  0  0  0  0  0  0  0
  120.3580  103.9276  108.0949 H   0  0  0  0  0  0  0  0  0  0  0  0
  120.0414  105.6276  107.7145 H   0  0  0  0  0  0  0  0  0  0  0  0
  118.0182  104.2283  107.3024 H   0  0  0  0  0  0  0  0  0  0  0  0
  118.9359  103.2069  106.1860 H   0  0  0  0  0  0  0  0  0  0  0  0
  120.6599  105.8949  104.6760 H   0  0  0  0  0  0  0  0  0  0  0  0
  121.1192  106.7853  106.1415 H   0  0  0  0  0  0  0  0  0  0  0  0
  121.2636  103.7671  105.6290 H   0  0  0  0  0  0  0  0  0  0  0  0
  122.9713  107.1063  104.7289 H   0  0  0  0  0  0  0  0  0  0  0  0
  123.2177  105.3811  104.5994 H   0  0  0  0  0  0  0  0  0  0  0  0
  122.5734  105.2624  107.6584 H   0  0  0  0  0  0  0  0  0  0  0  0
  1  3  1  0  0  0  0
  1 11  1  0  0  0  0
  2  4  1  0  0  0  0
  2 11  1  0  0  0  0
  3  5  1  0  0  0  0
  3 13  1  0  0  0  0
  4  6  1  0  0  0  0
  4 13  1  0  0  0  0
  7  8  1  0  0  0  0
  7 10  1  0  0  0  0
  8 11  1  0  0  0  0
  9 10  1  0  0  0  0
  9 12  1  0  0  0  0
 10 14  1  0  0  0  0
  1 15  1  0  0  0  0
  1 16  1  0  0  0  0
  2 17  1  0  0  0  0
  2 18  1  0  0  0  0
  3 19  1  0  0  0  0
  4 20  1  0  0  0  0
  5 21  1  0  0  0  0
  5 22  1  0  0  0  0
  5 23  1  0  0  0  0
  6 24  1  0  0  0  0
  6 25  1  0  0  0  0
  6 26  1  0  0  0  0
  7 27  1  0  0  0  0
  7 28  1  0  0  0  0
  8 29  1  0  0  0  0
  8 30  1  0  0  0  0
  9 31  1  0  0  0  0
  9 32  1  0  0  0  0
 10 33  1  0  0  0  0
 12 34  1  0  0  0  0
 12 35  1  0  0  0  0
 14 36  1  0  0  0  0
M  END
> <FRED Chemgauss4 score>
-7.098516

$$$$
C01532676	P04873483
  -OEChem-05122015313D

 23 23  0     1  0  0  0  0  0999 V2000
  124.9394  107.2141  108.7593 C   0  0  1  0  0  0  0  0  0  0  0  0
  125.8458  105.9833  108.8276 C   0  0  1  0  0  0  0  0  0  0  0  0
  125.3148  108.1007  107.5705 C   0  0  1  0  0  0  0  0  0  0  0  0
  126.0212  105.2805  107.4700 C   0  0  1  0  0  0  0  0  0  0  0  0
  125.4019  107.2903  106.2778 C   0  0  2  0  0  0  0  0  0  0  0  0
  124.8465  104.3898  107.0730 C   0  0  0  0  0  0  0  0  0  0  0  0
  126.3270  106.2152  106.4288 O   0  0  0  0  0  0  0  0  0  0  0  0
  123.5806  106.8004  108.6270 O   0  0  0  0  0  0  0  0  0  0  0  0
  127.1340  106.3926  109.2963 O   0  0  0  0  0  0  0  0  0  0  0  0
  124.3501  109.1410  107.4392 O   0  0  0  0  0  0  0  0  0  0  0  0
  125.8588  108.1684  105.2476 O   0  0  0  0  0  0  0  0  0  0  0  0
  125.0111  107.7797  109.6933 H   0  0  0  0  0  0  0  0  0  0  0  0
  125.4499  105.2750  109.5832 H   0  0  0  0  0  0  0  0  0  0  0  0
  126.2866  108.5888  107.7917 H   0  0  0  0  0  0  0  0  0  0  0  0
  126.9185  104.5845  107.5596 H   0  0  0  0  0  0  0  0  0  0  0  0
  124.4559  106.8908  106.0046 H   0  0  0  0  0  0  0  0  0  0  0  0
  123.9448  104.9916  106.9678 H   0  0  0  0  0  0  0  0  0  0  0  0
  124.6814  103.6323  107.8379 H   0  0  0  0  0  0  0  0  0  0  0  0
  125.0589  103.8980  106.1247 H   0  0  0  0  0  0  0  0  0  0  0  0
  123.3779  106.2651  109.4096 H   0  0  0  0  0  0  0  0  0  0  0  0
  126.9977  106.7797  110.1748 H   0  0  0  0  0  0  0  0  0  0  0  0
  124.3734  109.6406  108.2688 H   0  0  0  0  0  0  0  0  0  0  0  0
  125.9089  107.6407  104.4350 H   0  0  0  0  0  0  0  0  0  0  0  0
  1  2  1  0  0  0  0
  1  3  1  0  0  0  0
  1  8  1  0  0  0  0
  2  4  1  0  0  0  0
  2  9  1  0  0  0  0
  3  5  1  0  0  0  0
  3 10  1  0  0  0  0
  4  6  1  0  0  0  0
  4  7  1  0  0  0  0
  5  7  1  0  0  0  0
  5 11  1  0  0  0  0
  1 12  1  0  0  0  0
  2 13  1  0  0  0  0
  3 14  1  0  0  0  0
  4 15  1  0  0  0  0
  5 16  1  0  0  0  0
  6 17  1  0  0  0  0
  6 18  1  0  0  0  0
  6 19  1  0  0  0  0
  8 20  1  0  0  0  0
  9 21  1  0  0  0  0
 10 22  1  0  0  0  0
 11 23  1  0  0  0  0
M  END
> <FRED Chemgauss4 score>
-7.096166

$$$$
C19264076	P28486446
  -OEChem-05122015313D

 29 29  0     1  0  0  0  0  0999 V2000
  119.6794  103.9276  105.6481 C   0  0  0  0  0  0  0  0  0  0  0  0
  120.0707  104.6058  104.3589 C   0  0  0  0  0  0  0  0  0  0  0  0
  119.3961  105.1090  106.5475 C   0  0  0  0  0  0  0  0  0  0  0  0
  120.8126  105.8430  104.8417 C   0  0  2  0  0  0  0  0  0  0  0  0
  122.3140  105.6231  104.9682 C   0  0  0  0  0  0  0  0  0  0  0  0
  125.8953  107.7774  107.4736 C   0  0  0  0  0  0  0  0  0  0  0  0
  124.2010  106.5910  105.9806 C   0  0  0  0  0  0  0  0  0  0  0  0
  124.7996  107.9245  106.4177 C   0  0  2  0  0  0  0  0  0  0  0  0
  126.4296  109.0638  107.8581 N   0  0  0  0  0  0  0  0  0  0  0  0
  120.2898  106.1555  106.1450 O   0  0  0  0  0  0  0  0  0  0  0  0
  125.3276  108.5843  105.2666 O   0  0  0  0  0  0  0  0  0  0  0  0
  122.9195  106.8273  105.4113 O   0  0  0  0  0  0  0  0  0  0  0  0
  118.7643  103.3426  105.4972 H   0  0  0  0  0  0  0  0  0  0  0  0
  120.4491  103.2612  106.0460 H   0  0  0  0  0  0  0  0  0  0  0  0
  120.7387  103.9456  103.7838 H   0  0  0  0  0  0  0  0  0  0  0  0
  119.2122  104.8495  103.7182 H   0  0  0  0  0  0  0  0  0  0  0  0
  118.3628  105.4566  106.4725 H   0  0  0  0  0  0  0  0  0  0  0  0
  119.6117  104.8714  107.5939 H   0  0  0  0  0  0  0  0  0  0  0  0
  120.6178  106.6928  104.1942 H   0  0  0  0  0  0  0  0  0  0  0  0
  122.7416  105.3467  104.0008 H   0  0  0  0  0  0  0  0  0  0  0  0
  122.5240  104.8331  105.6941 H   0  0  0  0  0  0  0  0  0  0  0  0
  125.4896  107.2941  108.3688 H   0  0  0  0  0  0  0  0  0  0  0  0
  126.7077  107.1500  107.0924 H   0  0  0  0  0  0  0  0  0  0  0  0
  124.0740  105.9182  106.8343 H   0  0  0  0  0  0  0  0  0  0  0  0
  124.8170  106.1051  105.2172 H   0  0  0  0  0  0  0  0  0  0  0  0
  124.0032  108.5682  106.8095 H   0  0  0  0  0  0  0  0  0  0  0  0
  127.3582  109.1087  108.2376 H   0  0  0  0  0  0  0  0  0  0  0  0
  125.8037  109.8459  107.9310 H   0  0  0  0  0  0  0  0  0  0  0  0
  125.6372  109.4520  105.5668 H   0  0  0  0  0  0  0  0  0  0  0  0
  1  2  1  0  0  0  0
  1  3  1  0  0  0  0
  2  4  1  0  0  0  0
  3 10  1  0  0  0  0
  4  5  1  0  0  0  0
  4 10  1  0  0  0  0
  5 12  1  0  0  0  0
  6  8  1  0  0  0  0
  6  9  1  0  0  0  0
  7  8  1  0  0  0  0
  7 12  1  0  0  0  0
  8 11  1  0  0  0  0
  1 13  1  0  0  0  0
  1 14  1  0  0  0  0
  2 15  1  0  0  0  0
  2 16  1  0  0  0  0
  3 17  1  0  0  0  0
  3 18  1  0  0  0  0
  4 19  1  0  0  0  0
  5 20  1  0  0  0  0
  5 21  1  0  0  0  0
  6 22  1  0  0  0  0
  6 23  1  0  0  0  0
  7 24  1  0  0  0  0
  7 25  1  0  0  0  0
  8 26  1  0  0  0  0
  9 27  1  0  0  0  0
  9 28  1  0  0  0  0
 11 29  1  0  0  0  0
M  END
> <FRED Chemgauss4 score>
-7.093294

$$$$
C54404494	P81861931
  -OEChem-05122015313D

 17 17  0     0  0  0  0  0  0999 V2000
  123.8356  108.2039  106.5195 C   0  0  0  0  0  0  0  0  0  0  0  0
  125.7028  108.5510  107.3857 C   0  0  0  0  0  0  0  0  0  0  0  0
  125.4984  106.8070  109.2266 C   0  0  0  0  0  0  0  0  0  0  0  0
  126.4939  105.7139  108.8621 C   0  0  0  0  0  0  0  0  0  0  0  0
  124.9538  108.9779  106.3957 N   0  0  0  0  0  0  0  0  0  0  0  0
  123.8457  107.3250  107.5239 N   0  0  0  0  0  0  0  0  0  0  0  0
  125.0507  107.5675  108.0618 N   0  0  0  0  0  0  0  0  0  0  0  0
  126.9372  108.9445  107.7711 N   0  0  0  0  0  0  0  0  0  0  0  0
  127.6575  106.2971  108.2901 O   0  0  0  0  0  0  0  0  0  0  0  0
  122.9869  108.2828  105.8569 H   0  0  0  0  0  0  0  0  0  0  0  0
  125.9345  107.5181  109.9378 H   0  0  0  0  0  0  0  0  0  0  0  0
  124.6050  106.3730  109.6902 H   0  0  0  0  0  0  0  0  0  0  0  0
  126.7984  105.1744  109.7645 H   0  0  0  0  0  0  0  0  0  0  0  0
  126.0714  104.9992  108.1484 H   0  0  0  0  0  0  0  0  0  0  0  0
  127.4730  109.6525  107.2493 H   0  0  0  0  0  0  0  0  0  0  0  0
  127.4383  108.4892  108.5471 H   0  0  0  0  0  0  0  0  0  0  0  0
  128.2596  105.5666  108.0751 H   0  0  0  0  0  0  0  0  0  0  0  0
  1  5  1  0  0  0  0
  1  6  2  0  0  0  0
  2  5  2  0  0  0  0
  2  7  1  0  0  0  0
  2  8  1  0  0  0  0
  3  4  1  0  0  0  0
  3  7  1  0  0  0  0
  4  9  1  0  0  0  0
  6  7  1  0  0  0  0
  1 10  1  0  0  0  0
  3 11  1  0  0  0  0
  3 12  1  0  0  0  0
  4 13  1  0  0  0  0
  4 14  1  0  0  0  0
  8 15  1  0  0  0  0
  8 16  1  0  0  0  0
  9 17  1  0  0  0  0
M  END
> <FRED Chemgauss4 score>
-7.093139

$$$$
C01561259	P07945582
  -OEChem-05122015313D

 18 18  0     0  0  0  0  0  0999 V2000
  125.4791  107.5735  106.5509 C   0  0  0  0  0  0  0  0  0  0  0  0
  126.2796  106.2481  108.2165 C   0  0  0  0  0  0  0  0  0  0  0  0
  126.3098  108.4744  107.4374 C   0  0  0  0  0  0  0  0  0  0  0  0
  124.8279  105.1588  106.4899 C   0  0  0  0  0  0  0  0  0  0  0  0
  123.4185  105.0726  107.0465 C   0  0  0  0  0  0  0  0  0  0  0  0
  126.7559  107.5430  108.4358 N   0  0  0  0  0  0  0  0  0  0  0  0
  125.5108  106.2979  107.0700 N   0  0  0  0  0  0  0  0  0  0  0  0
  124.8929  107.9582  105.5478 O   0  0  0  0  0  0  0  0  0  0  0  0
  126.5150  105.2747  108.9204 O   0  0  0  0  0  0  0  0  0  0  0  0
  122.7407  103.9751  106.4482 O   0  0  0  0  0  0  0  0  0  0  0  0
  127.1694  108.8800  106.9016 H   0  0  0  0  0  0  0  0  0  0  0  0
  125.7001  109.2504  107.9030 H   0  0  0  0  0  0  0  0  0  0  0  0
  125.4032  104.2577  106.7251 H   0  0  0  0  0  0  0  0  0  0  0  0
  124.8011  105.2936  105.4044 H   0  0  0  0  0  0  0  0  0  0  0  0
  122.8637  105.9846  106.8049 H   0  0  0  0  0  0  0  0  0  0  0  0
  123.4223  104.9343  108.1326 H   0  0  0  0  0  0  0  0  0  0  0  0
  127.3527  107.7981  109.2164 H   0  0  0  0  0  0  0  0  0  0  0  0
  121.8484  103.9561  106.8297 H   0  0  0  0  0  0  0  0  0  0  0  0
  1  3  1  0  0  0  0
  1  7  1  0  0  0  0
  1  8  2  0  0  0  0
  2  6  1  0  0  0  0
  2  7  1  0  0  0  0
  2  9  2  0  0  0  0
  3  6  1  0  0  0  0
  4  5  1  0  0  0  0
  4  7  1  0  0  0  0
  5 10  1  0  0  0  0
  3 11  1  0  0  0  0
  3 12  1  0  0  0  0
  4 13  1  0  0  0  0
  4 14  1  0  0  0  0
  5 15  1  0  0  0  0
  5 16  1  0  0  0  0
  6 17  1  0  0  0  0
 10 18  1  0  0  0  0
M  END
> <FRED Chemgauss4 score>
-7.090789

$$$$
C84991571	P133024477
  -OEChem-05122015313D

 28 28  0     1  0  0  0  0  0999 V2000
  121.0479  104.5531  106.8974 C   0  0  0  0  0  0  0  0  0  0  0  0
  122.3784  104.6320  106.1918 C   0  0  0  0  0  0  0  0  0  0  0  0
  121.1445  105.7036  107.8770 C   0  0  0  0  0  0  0  0  0  0  0  0
  123.3040  105.0158  107.3334 C   0  0  1  0  0  0  0  0  0  0  0  0
  124.5503  105.7515  106.8808 C   0  0  0  0  0  0  0  0  0  0  0  0
  125.4313  106.1443  108.0707 C   0  0  0  0  0  0  0  0  0  0  0  0
  126.4439  108.3490  107.3818 C   0  0  0  0  0  0  0  0  0  0  0  0
  126.7121  106.8638  107.6306 C   0  0  1  0  0  0  0  0  0  0  0  0
  125.8461  108.5403  106.0791 N   0  0  0  0  0  0  0  0  0  0  0  0
  122.5327  105.8549  108.2095 O   0  0  0  0  0  0  0  0  0  0  0  0
  127.6821  106.7297  108.6685 O   0  0  0  0  0  0  0  0  0  0  0  0
  120.1881  104.6339  106.2273 H   0  0  0  0  0  0  0  0  0  0  0  0
  120.9707  103.6041  107.4411 H   0  0  0  0  0  0  0  0  0  0  0  0
  122.6683  103.6967  105.7052 H   0  0  0  0  0  0  0  0  0  0  0  0
  122.3442  105.4203  105.4299 H   0  0  0  0  0  0  0  0  0  0  0  0
  120.8078  106.6409  107.4213 H   0  0  0  0  0  0  0  0  0  0  0  0
  120.5640  105.5298  108.7873 H   0  0  0  0  0  0  0  0  0  0  0  0
  123.5870  104.1245  107.9069 H   0  0  0  0  0  0  0  0  0  0  0  0
  125.1166  105.1100  106.1958 H   0  0  0  0  0  0  0  0  0  0  0  0
  124.2516  106.6436  106.3187 H   0  0  0  0  0  0  0  0  0  0  0  0
  124.8518  106.7993  108.7339 H   0  0  0  0  0  0  0  0  0  0  0  0
  125.6921  105.2443  108.6405 H   0  0  0  0  0  0  0  0  0  0  0  0
  125.7651  108.7540  108.1397 H   0  0  0  0  0  0  0  0  0  0  0  0
  127.3785  108.9184  107.4167 H   0  0  0  0  0  0  0  0  0  0  0  0
  127.1127  106.3858  106.7284 H   0  0  0  0  0  0  0  0  0  0  0  0
  125.9562  109.4272  105.6223 H   0  0  0  0  0  0  0  0  0  0  0  0
  125.1734  107.8703  105.7531 H   0  0  0  0  0  0  0  0  0  0  0  0
  127.8311  105.7790  108.7838 H   0  0  0  0  0  0  0  0  0  0  0  0
  1  2  1  0  0  0  0
  1  3  1  0  0  0  0
  2  4  1  0  0  0  0
  3 10  1  0  0  0  0
  4  5  1  0  0  0  0
  4 10  1  0  0  0  0
  5  6  1  0  0  0  0
  6  8  1  0  0  0  0
  7  8  1  0  0  0  0
  7  9  1  0  0  0  0
  8 11  1  0  0  0  0
  1 12  1  0  0  0  0
  1 13  1  0  0  0  0
  2 14  1  0  0  0  0
  2 15  1  0  0  0  0
  3 16  1  0  0  0  0
  3 17  1  0  0  0  0
  4 18  1  0  0  0  0
  5 19  1  0  0  0  0
  5 20  1  0  0  0  0
  6 21  1  0  0  0  0
  6 22  1  0  0  0  0
  7 23  1  0  0  0  0
  7 24  1  0  0  0  0
  8 25  1  0  0  0  0
  9 26  1  0  0  0  0
  9 27  1  0  0  0  0
 11 28  1  0  0  0  0
M  END
> <FRED Chemgauss4 score>
-7.089628

$$$$
C39060929	P59181285
  -OEChem-05122015313D

 17 17  0     0  0  0  0  0  0999 V2000
  125.1367  106.5506  108.1956 C   0  0  0  0  0  0  0  0  0  0  0  0
  124.6791  107.3557  105.6618 C   0  0  0  0  0  0  0  0  0  0  0  0
  123.8143  106.5018  106.3226 C   0  0  0  0  0  0  0  0  0  0  0  0
  126.0278  107.4055  107.5719 C   0  0  0  0  0  0  0  0  0  0  0  0
  122.5916  106.0024  105.6331 C   0  0  0  0  0  0  0  0  0  0  0  0
  124.0235  106.0865  107.5898 N   0  0  0  0  0  0  0  0  0  0  0  0
  125.7692  107.7852  106.3128 N   0  3  0  0  0  0  0  0  0  0  0  0
  127.1737  107.8611  108.2466 N   0  0  0  0  0  0  0  0  0  0  0  0
  126.5743  108.5784  105.7017 O   0  5  0  0  0  0  0  0  0  0  0  0
  121.6217  107.0419  105.5763 O   0  0  0  0  0  0  0  0  0  0  0  0
  125.2876  106.2059  109.2129 H   0  0  0  0  0  0  0  0  0  0  0  0
  124.5475  107.7099  104.6515 H   0  0  0  0  0  0  0  0  0  0  0  0
  122.8135  105.6745  104.6077 H   0  0  0  0  0  0  0  0  0  0  0  0
  122.1570  105.1442  106.1647 H   0  0  0  0  0  0  0  0  0  0  0  0
  127.3188  107.5997  109.2032 H   0  0  0  0  0  0  0  0  0  0  0  0
  127.7827  108.5169  107.7952 H   0  0  0  0  0  0  0  0  0  0  0  0
  120.8465  106.6751  105.1220 H   0  0  0  0  0  0  0  0  0  0  0  0
  1  4  1  0  0  0  0
  1  6  2  0  0  0  0
  2  3  2  0  0  0  0
  2  7  1  0  0  0  0
  3  5  1  0  0  0  0
  3  6  1  0  0  0  0
  4  7  2  0  0  0  0
  4  8  1  0  0  0  0
  5 10  1  0  0  0  0
  7  9  1  0  0  0  0
  1 11  1  0  0  0  0
  2 12  1  0  0  0  0
  5 13  1  0  0  0  0
  5 14  1  0  0  0  0
  8 15  1  0  0  0  0
  8 16  1  0  0  0  0
 10 17  1  0  0  0  0
M  CHG  2   7   1   9  -1
M  END
> <FRED Chemgauss4 score>
-7.083956

$$$$
C49330080	P73697318
  -OEChem-05122015313D

 27 27  0     0  0  0  0  0  0999 V2000
  123.2187  109.0448  109.0314 C   0  0  0  0  0  0  0  0  0  0  0  0
  123.3356  107.6748  109.0388 C   0  0  0  0  0  0  0  0  0  0  0  0
  125.1565  108.6349  108.2520 C   0  0  0  0  0  0  0  0  0  0  0  0
  126.5175  108.7458  107.6887 C   0  0  0  0  0  0  0  0  0  0  0  0
  125.1755  106.1071  108.3463 C   0  0  0  0  0  0  0  0  0  0  0  0
  124.6267  105.3746  107.1267 C   0  0  0  0  0  0  0  0  0  0  0  0
  122.7235  104.4448  105.9980 C   0  0  0  0  0  0  0  0  0  0  0  0
  121.2160  104.2801  106.0609 C   0  0  0  0  0  0  0  0  0  0  0  0
  124.3554  109.6366  108.5402 N   0  0  0  0  0  0  0  0  0  0  0  0
  124.5820  107.4273  108.5364 N   0  0  0  0  0  0  0  0  0  0  0  0
  123.1931  105.1807  107.1941 N   0  0  0  0  0  0  0  0  0  0  0  0
  120.8716  103.5209  107.2127 O   0  0  0  0  0  0  0  0  0  0  0  0
  122.3737  109.6351  109.3546 H   0  0  0  0  0  0  0  0  0  0  0  0
  122.6643  106.8853  109.3466 H   0  0  0  0  0  0  0  0  0  0  0  0
  127.2728  108.8142  108.4881 H   0  0  0  0  0  0  0  0  0  0  0  0
  126.7745  107.8790  107.0569 H   0  0  0  0  0  0  0  0  0  0  0  0
  126.6269  109.6355  107.0459 H   0  0  0  0  0  0  0  0  0  0  0  0
  124.9713  105.5303  109.2563 H   0  0  0  0  0  0  0  0  0  0  0  0
  126.2629  106.2311  108.2787 H   0  0  0  0  0  0  0  0  0  0  0  0
  124.8255  105.9553  106.2207 H   0  0  0  0  0  0  0  0  0  0  0  0
  125.0864  104.3879  107.0103 H   0  0  0  0  0  0  0  0  0  0  0  0
  123.2281  103.4737  105.9728 H   0  0  0  0  0  0  0  0  0  0  0  0
  123.0073  105.0190  105.1109 H   0  0  0  0  0  0  0  0  0  0  0  0
  120.8614  103.7367  105.1796 H   0  0  0  0  0  0  0  0  0  0  0  0
  120.7071  105.2481  106.1121 H   0  0  0  0  0  0  0  0  0  0  0  0
  122.9504  104.6347  108.0107 H   0  0  0  0  0  0  0  0  0  0  0  0
  119.9043  103.4395  107.2148 H   0  0  0  0  0  0  0  0  0  0  0  0
  1  2  2  0  0  0  0
  1  9  1  0  0  0  0
  2 10  1  0  0  0  0
  3  4  1  0  0  0  0
  3  9  2  0  0  0  0
  3 10  1  0  0  0  0
  5  6  1  0  0  0  0
  5 10  1  0  0  0  0
  6 11  1  0  0  0  0
  7  8  1  0  0  0  0
  7 11  1  0  0  0  0
  8 12  1  0  0  0  0
  1 13  1  0  0  0  0
  2 14  1  0  0  0  0
  4 15  1  0  0  0  0
  4 16  1  0  0  0  0
  4 17  1  0  0  0  0
  5 18  1  0  0  0  0
  5 19  1  0  0  0  0
  6 20  1  0  0  0  0
  6 21  1  0  0  0  0
  7 22  1  0  0  0  0
  7 23  1  0  0  0  0
  8 24  1  0  0  0  0
  8 25  1  0  0  0  0
 11 26  1  0  0  0  0
 12 27  1  0  0  0  0
M  END
> <FRED Chemgauss4 score>
-7.081115

$$$$
C13510329	P20803174
  -OEChem-05122015313D

 17 17  0     1  0  0  0  0  0999 V2000
  125.2157  107.1390  106.5212 C   0  0  0  0  0  0  0  0  0  0  0  0
  126.1338  107.4448  107.6671 C   0  0  1  0  0  0  0  0  0  0  0  0
  125.7367  106.3884  108.6730 C   0  0  1  0  0  0  0  0  0  0  0  0
  125.3548  105.2321  107.7740 C   0  0  1  0  0  0  0  0  0  0  0  0
  124.3766  104.2688  108.4233 C   0  0  0  0  0  0  0  0  0  0  0  0
  124.9661  107.8892  105.5909 O   0  0  0  0  0  0  0  0  0  0  0  0
  124.7384  105.8605  106.6416 O   0  0  0  0  0  0  0  0  0  0  0  0
  126.7927  106.0391  109.5421 O   0  0  0  0  0  0  0  0  0  0  0  0
  123.1983  104.9785  108.7640 O   0  0  0  0  0  0  0  0  0  0  0  0
  127.4271  107.2839  107.2921 F   0  0  0  0  0  0  0  0  0  0  0  0
  125.9664  108.4478  108.0031 H   0  0  0  0  0  0  0  0  0  0  0  0
  124.8794  106.7323  109.3138 H   0  0  0  0  0  0  0  0  0  0  0  0
  126.2403  104.6882  107.4191 H   0  0  0  0  0  0  0  0  0  0  0  0
  124.8129  103.8438  109.3288 H   0  0  0  0  0  0  0  0  0  0  0  0
  124.1228  103.4660  107.7290 H   0  0  0  0  0  0  0  0  0  0  0  0
  126.4427  105.3632  110.1424 H   0  0  0  0  0  0  0  0  0  0  0  0
  122.5915  104.3407  109.1762 H   0  0  0  0  0  0  0  0  0  0  0  0
  1  2  1  0  0  0  0
  1  6  2  0  0  0  0
  1  7  1  0  0  0  0
  2  3  1  0  0  0  0
  2 10  1  0  0  0  0
  3  4  1  0  0  0  0
  3  8  1  0  0  0  0
  4  5  1  0  0  0  0
  4  7  1  0  0  0  0
  5  9  1  0  0  0  0
  2 11  1  0  0  0  0
  3 12  1  0  0  0  0
  4 13  1  0  0  0  0
  5 14  1  0  0  0  0
  5 15  1  0  0  0  0
  8 16  1  0  0  0  0
  9 17  1  0  0  0  0
M  END
> <FRED Chemgauss4 score>
-7.076172

$$$$
C95923249	P151026232
  -OEChem-05122015313D

 25 25  0     1  0  0  0  0  0999 V2000
  125.1728  103.9844  107.3080 C   0  0  0  0  0  0  0  0  0  0  0  0
  125.9376  104.2744  108.5951 C   0  0  0  0  0  0  0  0  0  0  0  0
  124.0481  104.9908  107.1164 C   0  0  0  0  0  0  0  0  0  0  0  0
  126.3760  105.7439  108.6398 C   0  0  1  0  0  0  0  0  0  0  0  0
  125.1718  106.6676  108.3773 C   0  0  1  0  0  0  0  0  0  0  0  0
  125.5722  108.1375  108.2835 C   0  0  0  0  0  0  0  0  0  0  0  0
  126.5245  108.3835  107.1273 C   0  0  0  0  0  0  0  0  0  0  0  0
  127.0119  106.0405  109.9220 N   0  0  0  0  0  0  0  0  0  0  0  0
  124.5570  106.3233  107.1275 O   0  0  0  0  0  0  0  0  0  0  0  0
  125.8722  108.0203  105.9184 O   0  0  0  0  0  0  0  0  0  0  0  0
  125.8686  104.0555  106.4630 H   0  0  0  0  0  0  0  0  0  0  0  0
  124.7737  102.9648  107.3242 H   0  0  0  0  0  0  0  0  0  0  0  0
  125.2916  104.0446  109.4530 H   0  0  0  0  0  0  0  0  0  0  0  0
  126.8082  103.6109  108.6635 H   0  0  0  0  0  0  0  0  0  0  0  0
  123.5635  104.8275  106.1486 H   0  0  0  0  0  0  0  0  0  0  0  0
  123.2807  104.8860  107.8923 H   0  0  0  0  0  0  0  0  0  0  0  0
  127.1154  105.8985  107.8434 H   0  0  0  0  0  0  0  0  0  0  0  0
  124.4232  106.5634  109.1725 H   0  0  0  0  0  0  0  0  0  0  0  0
  126.0372  108.4490  109.2233 H   0  0  0  0  0  0  0  0  0  0  0  0
  124.6752  108.7526  108.1661 H   0  0  0  0  0  0  0  0  0  0  0  0
  126.8062  109.4397  107.0675 H   0  0  0  0  0  0  0  0  0  0  0  0
  127.4312  107.7786  107.2292 H   0  0  0  0  0  0  0  0  0  0  0  0
  127.0540  106.9922  110.2144 H   0  0  0  0  0  0  0  0  0  0  0  0
  127.5525  105.3230  110.3532 H   0  0  0  0  0  0  0  0  0  0  0  0
  126.5021  108.1874  105.1985 H   0  0  0  0  0  0  0  0  0  0  0  0
  1  2  1  0  0  0  0
  1  3  1  0  0  0  0
  2  4  1  0  0  0  0
  3  9  1  0  0  0  0
  4  5  1  0  0  0  0
  4  8  1  0  0  0  0
  5  6  1  0  0  0  0
  5  9  1  0  0  0  0
  6  7  1  0  0  0  0
  7 10  1  0  0  0  0
  1 11  1  0  0  0  0
  1 12  1  0  0  0  0
  2 13  1  0  0  0  0
  2 14  1  0  0  0  0
  3 15  1  0  0  0  0
  3 16  1  0  0  0  0
  4 17  1  0  0  0  0
  5 18  1  0  0  0  0
  6 19  1  0  0  0  0
  6 20  1  0  0  0  0
  7 21  1  0  0  0  0
  7 22  1  0  0  0  0
  8 23  1  0  0  0  0
  8 24  1  0  0  0  0
 10 25  1  0  0  0  0
M  END
> <FRED Chemgauss4 score>
-7.075204

$$$$
C20438719	P129507092
  -OEChem-05122015313D

 20 20  0     1  0  0  0  0  0999 V2000
  122.5398  104.9537  106.5847 C   0  0  0  0  0  0  0  0  0  0  0  0
  122.3496  105.8636  105.5659 C   0  0  0  0  0  0  0  0  0  0  0  0
  124.2017  106.6880  106.4026 C   0  0  0  0  0  0  0  0  0  0  0  0
  121.2320  105.8567  104.6013 C   0  0  0  0  0  0  0  0  0  0  0  0
  126.6067  106.7999  107.1431 C   0  0  0  0  0  0  0  0  0  0  0  0
  125.4033  107.5812  106.6096 C   0  0  1  0  0  0  0  0  0  0  0  0
  123.3013  106.8591  105.4602 N   0  0  0  0  0  0  0  0  0  0  0  0
  126.4662  106.5983  108.5677 N   0  0  0  0  0  0  0  0  0  0  0  0
  125.7361  108.1867  105.3600 O   0  0  0  0  0  0  0  0  0  0  0  0
  123.9662  105.3497  107.4507 S   0  0  0  0  0  0  0  0  0  0  0  0
  121.9319  104.1019  106.8552 H   0  0  0  0  0  0  0  0  0  0  0  0
  120.3810  106.4489  104.9753 H   0  0  0  0  0  0  0  0  0  0  0  0
  121.5270  106.2740  103.6235 H   0  0  0  0  0  0  0  0  0  0  0  0
  120.8667  104.8353  104.3991 H   0  0  0  0  0  0  0  0  0  0  0  0
  127.5387  107.3453  106.9588 H   0  0  0  0  0  0  0  0  0  0  0  0
  126.6866  105.8195  106.6608 H   0  0  0  0  0  0  0  0  0  0  0  0
  125.1441  108.3961  107.2969 H   0  0  0  0  0  0  0  0  0  0  0  0
  126.0776  107.3375  109.1248 H   0  0  0  0  0  0  0  0  0  0  0  0
  126.9385  105.8224  108.9952 H   0  0  0  0  0  0  0  0  0  0  0  0
  126.5065  108.7504  105.5258 H   0  0  0  0  0  0  0  0  0  0  0  0
  1  2  2  0  0  0  0
  1 10  1  0  0  0  0
  2  4  1  0  0  0  0
  2  7  1  0  0  0  0
  3  6  1  0  0  0  0
  3  7  2  0  0  0  0
  3 10  1  0  0  0  0
  5  6  1  0  0  0  0
  5  8  1  0  0  0  0
  6  9  1  0  0  0  0
  1 11  1  0  0  0  0
  4 12  1  0  0  0  0
  4 13  1  0  0  0  0
  4 14  1  0  0  0  0
  5 15  1  0  0  0  0
  5 16  1  0  0  0  0
  6 17  1  0  0  0  0
  8 18  1  0  0  0  0
  8 19  1  0  0  0  0
  9 20  1  0  0  0  0
M  END
> <FRED Chemgauss4 score>
-7.073594

$$$$
C26574468	P151033270
  -OEChem-05122015313D

 23 23  0     1  0  0  0  0  0999 V2000
  125.6480  105.5185  107.1387 C   0  0  2  0  0  0  0  0  0  0  0  0
  126.1620  106.5996  108.1282 C   0  0  1  0  0  0  0  0  0  0  0  0
  124.5348  106.2237  106.3553 C   0  0  2  0  0  0  0  0  0  0  0  0
  125.8342  107.9459  107.4394 C   0  0  2  0  0  0  0  0  0  0  0  0
  125.1766  107.5846  106.1035 C   0  0  2  0  0  0  0  0  0  0  0  0
  125.2520  104.1827  107.7544 C   0  0  0  0  0  0  0  0  0  0  0  0
  125.5104  106.5770  109.4380 N   0  0  0  0  0  0  0  0  0  0  0  0
  123.3568  106.3728  107.1375 O   0  0  0  0  0  0  0  0  0  0  0  0
  127.0335  108.6770  107.2140 O   0  0  0  0  0  0  0  0  0  0  0  0
  124.2179  108.5484  105.7079 O   0  0  0  0  0  0  0  0  0  0  0  0
  126.4736  105.3146  106.4339 H   0  0  0  0  0  0  0  0  0  0  0  0
  127.2401  106.4796  108.2844 H   0  0  0  0  0  0  0  0  0  0  0  0
  124.2719  105.7106  105.4253 H   0  0  0  0  0  0  0  0  0  0  0  0
  125.1782  108.5821  108.0462 H   0  0  0  0  0  0  0  0  0  0  0  0
  125.9300  107.5119  105.3070 H   0  0  0  0  0  0  0  0  0  0  0  0
  124.4358  104.3259  108.4625 H   0  0  0  0  0  0  0  0  0  0  0  0
  126.1027  103.7471  108.2785 H   0  0  0  0  0  0  0  0  0  0  0  0
  124.9269  103.4944  106.9741 H   0  0  0  0  0  0  0  0  0  0  0  0
  125.4824  107.4247  109.9591 H   0  0  0  0  0  0  0  0  0  0  0  0
  125.3064  105.6901  109.8416 H   0  0  0  0  0  0  0  0  0  0  0  0
  123.0700  105.4788  107.3842 H   0  0  0  0  0  0  0  0  0  0  0  0
  127.5923  108.1268  106.6422 H   0  0  0  0  0  0  0  0  0  0  0  0
  123.8081  108.2236  104.8880 H   0  0  0  0  0  0  0  0  0  0  0  0
  1  2  1  0  0  0  0
  1  3  1  0  0  0  0
  1  6  1  0  0  0  0
  2  4  1  0  0  0  0
  2  7  1  0  0  0  0
  3  5  1  0  0  0  0
  3  8  1  0  0  0  0
  4  5  1  0  0  0  0
  4  9  1  0  0  0  0
  5 10  1  0  0  0  0
  1 11  1  0  0  0  0
  2 12  1  0  0  0  0
  3 13  1  0  0  0  0
  4 14  1  0  0  0  0
  5 15  1  0  0  0  0
  6 16  1  0  0  0  0
  6 17  1  0  0  0  0
  6 18  1  0  0  0  0
  7 19  1  0  0  0  0
  7 20  1  0  0  0  0
  8 21  1  0  0  0  0
  9 22  1  0  0  0  0
 10 23  1  0  0  0  0
M  END
> <FRED Chemgauss4 score>
-7.072499

$$$$
C36850793	P90345064
  -OEChem-05122015313D

 25 25  0     1  0  0  0  0  0999 V2000
  125.4886  105.5020  107.5763 C   0  0  0  0  0  0  0  0  0  0  0  0
  124.6268  107.1776  106.2419 C   0  0  0  0  0  0  0  0  0  0  0  0
  124.4194  104.8359  106.7560 C   0  0  0  0  0  0  0  0  0  0  0  0
  123.7716  105.9675  105.9719 C   0  0  1  0  0  0  0  0  0  0  0  0
  126.5403  107.7458  107.7334 C   0  0  0  0  0  0  0  0  0  0  0  0
  121.1277  105.8619  104.3884 C   0  0  0  0  0  0  0  0  0  0  0  0
  121.4585  105.4208  105.8043 C   0  0  0  0  0  0  0  0  0  0  0  0
  125.5750  106.8177  107.1762 N   0  0  0  0  0  0  0  0  0  0  0  0
  120.6135  107.2044  104.3444 N   0  0  0  0  0  0  0  0  0  0  0  0
  122.4487  106.2877  106.4285 N   0  0  0  0  0  0  0  0  0  0  0  0
  126.1565  104.9289  108.4260 O   0  0  0  0  0  0  0  0  0  0  0  0
  124.4364  108.2839  105.7546 O   0  0  0  0  0  0  0  0  0  0  0  0
  124.8895  104.1122  106.0822 H   0  0  0  0  0  0  0  0  0  0  0  0
  123.7214  104.3041  107.4102 H   0  0  0  0  0  0  0  0  0  0  0  0
  123.7710  105.7580  104.9001 H   0  0  0  0  0  0  0  0  0  0  0  0
  127.4650  107.7208  107.1510 H   0  0  0  0  0  0  0  0  0  0  0  0
  126.7689  107.4772  108.7684 H   0  0  0  0  0  0  0  0  0  0  0  0
  126.1404  108.7632  107.7155 H   0  0  0  0  0  0  0  0  0  0  0  0
  120.3770  105.2090  103.9318 H   0  0  0  0  0  0  0  0  0  0  0  0
  122.0294  105.8429  103.7684 H   0  0  0  0  0  0  0  0  0  0  0  0
  120.5619  105.4541  106.4307 H   0  0  0  0  0  0  0  0  0  0  0  0
  121.8564  104.4010  105.8216 H   0  0  0  0  0  0  0  0  0  0  0  0
  119.9794  107.5113  105.0646 H   0  0  0  0  0  0  0  0  0  0  0  0
  120.7259  107.7458  103.5021 H   0  0  0  0  0  0  0  0  0  0  0  0
  122.4060  106.1716  107.4405 H   0  0  0  0  0  0  0  0  0  0  0  0
  1  3  1  0  0  0  0
  1  8  1  0  0  0  0
  1 11  2  0  0  0  0
  2  4  1  0  0  0  0
  2  8  1  0  0  0  0
  2 12  2  0  0  0  0
  3  4  1  0  0  0  0
  4 10  1  0  0  0  0
  5  8  1  0  0  0  0
  6  7  1  0  0  0  0
  6  9  1  0  0  0  0
  7 10  1  0  0  0  0
  3 13  1  0  0  0  0
  3 14  1  0  0  0  0
  4 15  1  0  0  0  0
  5 16  1  0  0  0  0
  5 17  1  0  0  0  0
  5 18  1  0  0  0  0
  6 19  1  0  0  0  0
  6 20  1  0  0  0  0
  7 21  1  0  0  0  0
  7 22  1  0  0  0  0
  9 23  1  0  0  0  0
  9 24  1  0  0  0  0
 10 25  1  0  0  0  0
M  END
> <FRED Chemgauss4 score>
-7.065687

$$$$
C74241079	P115716858
  -OEChem-05122015313D

 34 34  0     1  0  0  0  0  0999 V2000
  119.0908  104.8336  106.1476 C   0  0  0  0  0  0  0  0  0  0  0  0
  117.6751  103.3115  105.6900 C   0  0  0  0  0  0  0  0  0  0  0  0
  118.2437  105.3874  105.2168 C   0  0  0  0  0  0  0  0  0  0  0  0
  116.8662  108.8971  103.2672 C   0  0  0  0  0  0  0  0  0  0  0  0
  116.8292  108.6288  107.4951 C   0  0  0  0  0  0  0  0  0  0  0  0
  116.2366  104.4760  104.0079 C   0  0  0  0  0  0  0  0  0  0  0  0
  117.3010  108.9834  104.6907 C   0  0  0  0  0  0  0  0  0  0  0  0
  117.7553  107.7635  106.7100 C   0  0  0  0  0  0  0  0  0  0  0  0
  119.6035  107.3974  104.4304 C   0  0  0  0  0  0  0  0  0  0  0  0
  118.2113  106.7630  104.5737 C   0  0  2  0  0  0  0  0  0  0  0  0
  118.7316  103.5412  106.4377 N   0  0  0  0  0  0  0  0  0  0  0  0
  117.3425  104.4003  104.9329 N   0  0  0  0  0  0  0  0  0  0  0  0
  120.4715  106.6144  103.5899 N   0  0  0  0  0  0  0  0  0  0  0  0
  117.3272  107.6614  105.3155 N   0  0  0  0  0  0  0  0  0  0  0  0
  119.9417  105.2979  106.6250 H   0  0  0  0  0  0  0  0  0  0  0  0
  117.1157  102.3866  105.6548 H   0  0  0  0  0  0  0  0  0  0  0  0
  117.5518  108.2705  102.6865 H   0  0  0  0  0  0  0  0  0  0  0  0
  115.8526  108.4881  103.1929 H   0  0  0  0  0  0  0  0  0  0  0  0
  116.8613  109.8979  102.8191 H   0  0  0  0  0  0  0  0  0  0  0  0
  116.7992  109.6434  107.0834 H   0  0  0  0  0  0  0  0  0  0  0  0
  115.8164  108.2115  107.5012 H   0  0  0  0  0  0  0  0  0  0  0  0
  117.1744  108.6956  108.5338 H   0  0  0  0  0  0  0  0  0  0  0  0
  115.3624  104.8371  104.5560 H   0  0  0  0  0  0  0  0  0  0  0  0
  116.4884  105.1626  103.1948 H   0  0  0  0  0  0  0  0  0  0  0  0
  116.0450  103.4831  103.5916 H   0  0  0  0  0  0  0  0  0  0  0  0
  116.6121  109.6103  105.2647 H   0  0  0  0  0  0  0  0  0  0  0  0
  118.3071  109.4066  104.7640 H   0  0  0  0  0  0  0  0  0  0  0  0
  117.7805  106.7520  107.1264 H   0  0  0  0  0  0  0  0  0  0  0  0
  118.7696  108.1732  106.7181 H   0  0  0  0  0  0  0  0  0  0  0  0
  119.5300  108.3859  103.9628 H   0  0  0  0  0  0  0  0  0  0  0  0
  120.1081  107.5235  105.3942 H   0  0  0  0  0  0  0  0  0  0  0  0
  117.7855  106.6623  103.5667 H   0  0  0  0  0  0  0  0  0  0  0  0
  121.4684  106.6981  103.7026 H   0  0  0  0  0  0  0  0  0  0  0  0
  120.0868  106.1584  102.7788 H   0  0  0  0  0  0  0  0  0  0  0  0
  1  3  2  0  0  0  0
  1 11  1  0  0  0  0
  2 11  2  0  0  0  0
  2 12  1  0  0  0  0
  3 10  1  0  0  0  0
  3 12  1  0  0  0  0
  4  7  1  0  0  0  0
  5  8  1  0  0  0  0
  6 12  1  0  0  0  0
  7 14  1  0  0  0  0
  8 14  1  0  0  0  0
  9 10  1  0  0  0  0
  9 13  1  0  0  0  0
 10 14  1  0  0  0  0
  1 15  1  0  0  0  0
  2 16  1  0  0  0  0
  4 17  1  0  0  0  0
  4 18  1  0  0  0  0
  4 19  1  0  0  0  0
  5 20  1  0  0  0  0
  5 21  1  0  0  0  0
  5 22  1  0  0  0  0
  6 23  1  0  0  0  0
  6 24  1  0  0  0  0
  6 25  1  0  0  0  0
  7 26  1  0  0  0  0
  7 27  1  0  0  0  0
  8 28  1  0  0  0  0
  8 29  1  0  0  0  0
  9 30  1  0  0  0  0
  9 31  1  0  0  0  0
 10 32  1  0  0  0  0
 13 33  1  0  0  0  0
 13 34  1  0  0  0  0
M  END
> <FRED Chemgauss4 score>
-7.063527

$$$$
C39113937	P59254497
  -OEChem-05122015313D

 22 22  0     1  0  0  0  0  0999 V2000
  124.5284  107.6372  106.4232 C   0  0  0  0  0  0  0  0  0  0  0  0
  124.6515  105.0629  107.7131 C   0  0  0  0  0  0  0  0  0  0  0  0
  123.2718  106.8036  106.6292 C   0  0  2  0  0  0  0  0  0  0  0  0
  125.3158  106.2829  108.3348 C   0  0  2  0  0  0  0  0  0  0  0  0
  122.9184  104.3667  106.0839 C   0  0  0  0  0  0  0  0  0  0  0  0
  126.8521  107.9483  107.2270 C   0  0  0  0  0  0  0  0  0  0  0  0
  123.6868  105.4049  106.7567 N   0  0  0  0  0  0  0  0  0  0  0  0
  125.5809  107.2381  107.2569 N   0  0  0  0  0  0  0  0  0  0  0  0
  124.5535  108.6014  105.6607 O   0  0  0  0  0  0  0  0  0  0  0  0
  124.8988  103.9206  108.0946 O   0  0  0  0  0  0  0  0  0  0  0  0
  122.3941  106.9923  105.5363 O   0  0  0  0  0  0  0  0  0  0  0  0
  126.5052  105.8910  108.9920 O   0  0  0  0  0  0  0  0  0  0  0  0
  122.7690  107.1074  107.5540 H   0  0  0  0  0  0  0  0  0  0  0  0
  124.6386  106.7488  109.0592 H   0  0  0  0  0  0  0  0  0  0  0  0
  122.0073  104.1488  106.6473 H   0  0  0  0  0  0  0  0  0  0  0  0
  123.5100  103.4507  106.0036 H   0  0  0  0  0  0  0  0  0  0  0  0
  122.6406  104.6937  105.0783 H   0  0  0  0  0  0  0  0  0  0  0  0
  126.8419  108.7676  107.9506 H   0  0  0  0  0  0  0  0  0  0  0  0
  127.0310  108.3612  106.2304 H   0  0  0  0  0  0  0  0  0  0  0  0
  127.6709  107.2683  107.4767 H   0  0  0  0  0  0  0  0  0  0  0  0
  122.1746  107.9396  105.5047 H   0  0  0  0  0  0  0  0  0  0  0  0
  126.2553  105.2501  109.6800 H   0  0  0  0  0  0  0  0  0  0  0  0
  1  3  1  0  0  0  0
  1  8  1  0  0  0  0
  1  9  2  0  0  0  0
  2  4  1  0  0  0  0
  2  7  1  0  0  0  0
  2 10  2  0  0  0  0
  3  7  1  0  0  0  0
  3 11  1  0  0  0  0
  4  8  1  0  0  0  0
  4 12  1  0  0  0  0
  5  7  1  0  0  0  0
  6  8  1  0  0  0  0
  3 13  1  0  0  0  0
  4 14  1  0  0  0  0
  5 15  1  0  0  0  0
  5 16  1  0  0  0  0
  5 17  1  0  0  0  0
  6 18  1  0  0  0  0
  6 19  1  0  0  0  0
  6 20  1  0  0  0  0
 11 21  1  0  0  0  0
 12 22  1  0  0  0  0
M  END
> <FRED Chemgauss4 score>
-7.063199

$$$$
C83691805	P130926493
  -OEChem-05122015313D

 29 29  0     1  0  0  0  0  0999 V2000
  123.5849  104.7050  106.8413 C   0  0  0  0  0  0  0  0  0  0  0  0
  123.0500  105.3012  108.1413 C   0  0  0  0  0  0  0  0  0  0  0  0
  124.9883  104.1504  107.0442 C   0  0  0  0  0  0  0  0  0  0  0  0
  125.4433  105.6206  108.8499 C   0  0  0  0  0  0  0  0  0  0  0  0
  124.0520  106.2589  108.7947 C   0  0  1  0  0  0  0  0  0  0  0  0
  125.1891  109.7117  108.0027 C   0  0  0  0  0  0  0  0  0  0  0  0
  123.5823  109.1061  109.8441 C   0  0  0  0  0  0  0  0  0  0  0  0
  124.6502  108.5868  108.8835 C   0  0  0  0  0  0  0  0  0  0  0  0
  124.1059  107.5225  108.0533 N   0  0  0  0  0  0  0  0  0  0  0  0
  125.8594  105.1530  107.5653 O   0  0  0  0  0  0  0  0  0  0  0  0
  126.2026  109.1967  107.1464 O   0  0  0  0  0  0  0  0  0  0  0  0
  124.1466  110.1110  110.6790 O   0  0  0  0  0  0  0  0  0  0  0  0
  122.9183  103.8926  106.5286 H   0  0  0  0  0  0  0  0  0  0  0  0
  123.5836  105.4596  106.0484 H   0  0  0  0  0  0  0  0  0  0  0  0
  122.1034  105.8315  107.9261 H   0  0  0  0  0  0  0  0  0  0  0  0
  122.7864  104.4866  108.8399 H   0  0  0  0  0  0  0  0  0  0  0  0
  124.9618  103.3250  107.7631 H   0  0  0  0  0  0  0  0  0  0  0  0
  125.4017  103.7590  106.1069 H   0  0  0  0  0  0  0  0  0  0  0  0
  126.1993  106.3216  109.2386 H   0  0  0  0  0  0  0  0  0  0  0  0
  125.4373  104.7531  109.5259 H   0  0  0  0  0  0  0  0  0  0  0  0
  123.7185  106.4654  109.8125 H   0  0  0  0  0  0  0  0  0  0  0  0
  125.6386  110.5017  108.6133 H   0  0  0  0  0  0  0  0  0  0  0  0
  124.3991  110.1489  107.3824 H   0  0  0  0  0  0  0  0  0  0  0  0
  123.1898  108.3053  110.4803 H   0  0  0  0  0  0  0  0  0  0  0  0
  122.7520  109.5590  109.2926 H   0  0  0  0  0  0  0  0  0  0  0  0
  125.4682  108.1226  109.4471 H   0  0  0  0  0  0  0  0  0  0  0  0
  124.6950  107.4006  107.2313 H   0  0  0  0  0  0  0  0  0  0  0  0
  126.5157  109.9402  106.6074 H   0  0  0  0  0  0  0  0  0  0  0  0
  123.4383  110.4116  111.2702 H   0  0  0  0  0  0  0  0  0  0  0  0
  1  2  1  0  0  0  0
  1  3  1  0  0  0  0
  2  5  1  0  0  0  0
  3 10  1  0  0  0  0
  4  5  1  0  0  0  0
  4 10  1  0  0  0  0
  5  9  1  0  0  0  0
  6  8  1  0  0  0  0
  6 11  1  0  0  0  0
  7  8  1  0  0  0  0
  7 12  1  0  0  0  0
  8  9  1  0  0  0  0
  1 13  1  0  0  0  0
  1 14  1  0  0  0  0
  2 15  1  0  0  0  0
  2 16  1  0  0  0  0
  3 17  1  0  0  0  0
  3 18  1  0  0  0  0
  4 19  1  0  0  0  0
  4 20  1  0  0  0  0
  5 21  1  0  0  0  0
  6 22  1  0  0  0  0
  6 23  1  0  0  0  0
  7 24  1  0  0  0  0
  7 25  1  0  0  0  0
  8 26  1  0  0  0  0
  9 27  1  0  0  0  0
 11 28  1  0  0  0  0
 12 29  1  0  0  0  0
M  END
> <FRED Chemgauss4 score>
-7.058440

$$$$
C36305538	P53957599
  -OEChem-05122015313D

 24 25  0     1  0  0  0  0  0999 V2000
  123.1973  109.7466  110.0798 C   0  0  0  0  0  0  0  0  0  0  0  0
  124.8144  109.0077  108.9861 C   0  0  0  0  0  0  0  0  0  0  0  0
  125.5249  104.8613  107.7803 C   0  0  0  0  0  0  0  0  0  0  0  0
  124.3362  104.8048  106.8194 C   0  0  0  0  0  0  0  0  0  0  0  0
  123.0805  105.8004  108.5727 C   0  0  0  0  0  0  0  0  0  0  0  0
  124.2846  106.4856  109.2529 C   0  0  1  0  0  0  0  0  0  0  0  0
  125.5968  106.2232  108.4715 C   0  0  1  0  0  0  0  0  0  0  0  0
  124.2922  110.1493  109.3701 N   0  0  0  0  0  0  0  0  0  0  0  0
  123.0092  108.4276  110.1592 N   0  0  0  0  0  0  0  0  0  0  0  0
  124.0569  107.9784  109.4516 N   0  0  0  0  0  0  0  0  0  0  0  0
  126.7525  106.2921  109.3676 N   0  0  0  0  0  0  0  0  0  0  0  0
  123.2815  105.7041  107.1654 O   0  0  0  0  0  0  0  0  0  0  0  0
  122.5139  110.4358  110.5528 H   0  0  0  0  0  0  0  0  0  0  0  0
  125.7056  108.8737  108.3894 H   0  0  0  0  0  0  0  0  0  0  0  0
  125.3987  104.0715  108.5330 H   0  0  0  0  0  0  0  0  0  0  0  0
  126.4517  104.6514  107.2334 H   0  0  0  0  0  0  0  0  0  0  0  0
  124.6582  105.0045  105.7782 H   0  0  0  0  0  0  0  0  0  0  0  0
  123.9128  103.7837  106.8168 H   0  0  0  0  0  0  0  0  0  0  0  0
  122.9588  104.7838  108.9629 H   0  0  0  0  0  0  0  0  0  0  0  0
  122.1445  106.3360  108.7752 H   0  0  0  0  0  0  0  0  0  0  0  0
  124.3941  106.0992  110.2875 H   0  0  0  0  0  0  0  0  0  0  0  0
  125.7178  107.0075  107.7118 H   0  0  0  0  0  0  0  0  0  0  0  0
  126.7270  106.9547  110.1096 H   0  0  0  0  0  0  0  0  0  0  0  0
  127.5878  105.8302  109.0858 H   0  0  0  0  0  0  0  0  0  0  0  0
  1  8  1  0  0  0  0
  1  9  2  0  0  0  0
  2  8  2  0  0  0  0
  2 10  1  0  0  0  0
  3  4  1  0  0  0  0
  3  7  1  0  0  0  0
  4 12  1  0  0  0  0
  5  6  1  0  0  0  0
  5 12  1  0  0  0  0
  6  7  1  0  0  0  0
  6 10  1  0  0  0  0
  7 11  1  0  0  0  0
  9 10  1  0  0  0  0
  1 13  1  0  0  0  0
  2 14  1  0  0  0  0
  3 15  1  0  0  0  0
  3 16  1  0  0  0  0
  4 17  1  0  0  0  0
  4 18  1  0  0  0  0
  5 19  1  0  0  0  0
  5 20  1  0  0  0  0
  6 21  1  0  0  0  0
  7 22  1  0  0  0  0
 11 23  1  0  0  0  0
 11 24  1  0  0  0  0
M  END
> <FRED Chemgauss4 score>
-7.057559

$$$$
C40545286	P61562841
  -OEChem-05122015313D

 24 24  0     1  0  0  0  0  0999 V2000
  125.0104  107.3244  108.5915 C   0  0  0  0  0  0  0  0  0  0  0  0
  125.4221  108.1330  107.3638 C   0  0  2  0  0  0  0  0  0  0  0  0
  125.2518  107.3003  106.0911 C   0  0  1  0  0  0  0  0  0  0  0  0
  123.8552  106.6804  106.0351 C   0  0  1  0  0  0  0  0  0  0  0  0
  123.5694  105.9213  107.3323 C   0  0  1  0  0  0  0  0  0  0  0  0
  122.2143  104.1748  106.4982 C   0  0  0  0  0  0  0  0  0  0  0  0
  123.6905  106.8022  108.4530 O   0  0  0  0  0  0  0  0  0  0  0  0
  126.7777  108.5460  107.4987 O   0  0  0  0  0  0  0  0  0  0  0  0
  125.4514  108.1157  104.9404 O   0  0  0  0  0  0  0  0  0  0  0  0
  122.8753  107.7148  105.8990 O   0  0  0  0  0  0  0  0  0  0  0  0
  121.0193  103.4325  106.6934 O   0  0  0  0  0  0  0  0  0  0  0  0
  122.2560  105.3746  107.2620 O   0  0  0  0  0  0  0  0  0  0  0  0
  125.7134  106.5043  108.7847 H   0  0  0  0  0  0  0  0  0  0  0  0
  125.0332  107.9625  109.4816 H   0  0  0  0  0  0  0  0  0  0  0  0
  124.8060  109.0448  107.2939 H   0  0  0  0  0  0  0  0  0  0  0  0
  126.0126  106.5111  106.0609 H   0  0  0  0  0  0  0  0  0  0  0  0
  123.7460  106.0295  105.1610 H   0  0  0  0  0  0  0  0  0  0  0  0
  124.2739  105.0872  107.4481 H   0  0  0  0  0  0  0  0  0  0  0  0
  123.0886  103.5443  106.6978 H   0  0  0  0  0  0  0  0  0  0  0  0
  122.2474  104.4642  105.4439 H   0  0  0  0  0  0  0  0  0  0  0  0
  126.8241  109.0892  108.3013 H   0  0  0  0  0  0  0  0  0  0  0  0
  125.3322  107.5400  104.1690 H   0  0  0  0  0  0  0  0  0  0  0  0
  122.9721  108.2826  106.6771 H   0  0  0  0  0  0  0  0  0  0  0  0
  121.0801  102.6377  106.1369 H   0  0  0  0  0  0  0  0  0  0  0  0
  1  2  1  0  0  0  0
  1  7  1  0  0  0  0
  2  3  1  0  0  0  0
  2  8  1  0  0  0  0
  3  4  1  0  0  0  0
  3  9  1  0  0  0  0
  4  5  1  0  0  0  0
  4 10  1  0  0  0  0
  5  7  1  0  0  0  0
  5 12  1  0  0  0  0
  6 11  1  0  0  0  0
  6 12  1  0  0  0  0
  1 13  1  0  0  0  0
  1 14  1  0  0  0  0
  2 15  1  0  0  0  0
  3 16  1  0  0  0  0
  4 17  1  0  0  0  0
  5 18  1  0  0  0  0
  6 19  1  0  0  0  0
  6 20  1  0  0  0  0
  8 21  1  0  0  0  0
  9 22  1  0  0  0  0
 10 23  1  0  0  0  0
 11 24  1  0  0  0  0
M  END
> <FRED Chemgauss4 score>
-7.057424

$$$$
C88067605	P137750906
  -OEChem-05122015313D

 27 27  0     1  0  0  0  0  0999 V2000
  119.5026  107.2502  103.9811 C   0  0  0  0  0  0  0  0  0  0  0  0
  121.0333  106.3498  105.0782 C   0  0  0  0  0  0  0  0  0  0  0  0
  125.4226  105.7328  106.7733 C   0  0  0  0  0  0  0  0  0  0  0  0
  119.5642  104.7534  106.3658 C   0  0  0  0  0  0  0  0  0  0  0  0
  122.3332  105.9192  105.6932 C   0  0  0  0  0  0  0  0  0  0  0  0
  124.6561  106.9687  108.8709 C   0  0  0  0  0  0  0  0  0  0  0  0
  124.2358  106.2270  107.5968 C   0  0  1  0  0  0  0  0  0  0  0  0
  120.8551  107.2782  104.1673 N   0  0  0  0  0  0  0  0  0  0  0  0
  118.8327  106.3629  104.7196 N   0  0  0  0  0  0  0  0  0  0  0  0
  119.8348  105.8004  105.4122 N   0  0  0  0  0  0  0  0  0  0  0  0
  123.5647  107.0412  109.8368 N   0  0  0  0  0  0  0  0  0  0  0  0
  124.0976  107.9480  105.5547 O   0  0  0  0  0  0  0  0  0  0  0  0
  123.1920  107.3451  106.5756 S   0  0  1  0  0  0  0  0  0  0  0  0
  118.9893  107.8966  103.2854 H   0  0  0  0  0  0  0  0  0  0  0  0
  126.0896  106.5569  106.4967 H   0  0  0  0  0  0  0  0  0  0  0  0
  126.0101  104.9942  107.3280 H   0  0  0  0  0  0  0  0  0  0  0  0
  125.0871  105.2540  105.8467 H   0  0  0  0  0  0  0  0  0  0  0  0
  119.3830  105.2206  107.3374 H   0  0  0  0  0  0  0  0  0  0  0  0
  118.6861  104.1863  106.0446 H   0  0  0  0  0  0  0  0  0  0  0  0
  120.4251  104.0811  106.4183 H   0  0  0  0  0  0  0  0  0  0  0  0
  122.1685  105.1217  106.4255 H   0  0  0  0  0  0  0  0  0  0  0  0
  123.0163  105.5266  104.9325 H   0  0  0  0  0  0  0  0  0  0  0  0
  125.5121  106.4698  109.3403 H   0  0  0  0  0  0  0  0  0  0  0  0
  124.9753  107.9888  108.6265 H   0  0  0  0  0  0  0  0  0  0  0  0
  123.5934  105.3766  107.8536 H   0  0  0  0  0  0  0  0  0  0  0  0
  123.5693  107.7896  110.4961 H   0  0  0  0  0  0  0  0  0  0  0  0
  122.9739  106.2440  109.9391 H   0  0  0  0  0  0  0  0  0  0  0  0
  1  8  1  0  0  0  0
  1  9  2  0  0  0  0
  2  5  1  0  0  0  0
  2  8  2  0  0  0  0
  2 10  1  0  0  0  0
  3  7  1  0  0  0  0
  4 10  1  0  0  0  0
  5 13  1  0  0  0  0
  6  7  1  0  0  0  0
  6 11  1  0  0  0  0
  7 13  1  0  0  0  0
  9 10  1  0  0  0  0
 12 13  2  0  0  0  0
  1 14  1  0  0  0  0
  3 15  1  0  0  0  0
  3 16  1  0  0  0  0
  3 17  1  0  0  0  0
  4 18  1  0  0  0  0
  4 19  1  0  0  0  0
  4 20  1  0  0  0  0
  5 21  1  0  0  0  0
  5 22  1  0  0  0  0
  6 23  1  0  0  0  0
  6 24  1  0  0  0  0
  7 25  1  0  0  0  0
 11 26  1  0  0  0  0
 11 27  1  0  0  0  0
M  END
> <FRED Chemgauss4 score>
-7.055465

$$$$
C82987404	P129754672
  -OEChem-05122015313D

 33 33  0     1  0  0  0  0  0999 V2000
  126.0198  105.0159  108.2946 C   0  0  0  0  0  0  0  0  0  0  0  0
  125.0523  106.1308  108.7050 C   0  0  0  0  0  0  0  0  0  0  0  0
  123.9480  105.9784  106.4766 C   0  0  0  0  0  0  0  0  0  0  0  0
  125.3160  103.6858  108.0359 C   0  0  0  0  0  0  0  0  0  0  0  0
  123.4605  104.5740  106.8194 C   0  0  0  0  0  0  0  0  0  0  0  0
  123.2220  109.2058  108.6821 C   0  0  0  0  0  0  0  0  0  0  0  0
  126.4856  107.7357  107.0572 C   0  0  0  0  0  0  0  0  0  0  0  0
  124.9840  108.0234  107.1947 C   0  0  2  0  0  0  0  0  0  0  0  0
  124.6523  109.2068  108.1378 C   0  0  1  0  0  0  0  0  0  0  0  0
  124.3087  106.8018  107.6349 N   0  0  2  0  0  0  0  0  0  0  0  0
  124.8843  110.4773  107.4424 N   0  0  0  0  0  0  0  0  0  0  0  0
  124.5548  103.6632  106.8368 O   0  0  0  0  0  0  0  0  0  0  0  0
  127.1499  108.8976  106.5694 O   0  0  0  0  0  0  0  0  0  0  0  0
  126.5503  105.3052  107.3917 H   0  0  0  0  0  0  0  0  0  0  0  0
  126.7707  104.8860  109.0697 H   0  0  0  0  0  0  0  0  0  0  0  0
  124.3136  105.6479  109.3919 H   0  0  0  0  0  0  0  0  0  0  0  0
  125.5746  106.8755  109.3618 H   0  0  0  0  0  0  0  0  0  0  0  0
  124.8004  105.9084  105.7815 H   0  0  0  0  0  0  0  0  0  0  0  0
  123.1308  106.4806  105.9360 H   0  0  0  0  0  0  0  0  0  0  0  0
  126.0614  102.8996  107.9440 H   0  0  0  0  0  0  0  0  0  0  0  0
  124.6714  103.4328  108.8739 H   0  0  0  0  0  0  0  0  0  0  0  0
  122.8747  104.5347  107.7499 H   0  0  0  0  0  0  0  0  0  0  0  0
  122.7910  104.2360  106.0168 H   0  0  0  0  0  0  0  0  0  0  0  0
  122.4866  109.2371  107.8723 H   0  0  0  0  0  0  0  0  0  0  0  0
  123.0459  110.0881  109.3087 H   0  0  0  0  0  0  0  0  0  0  0  0
  123.0172  108.3215  109.2947 H   0  0  0  0  0  0  0  0  0  0  0  0
  126.9300  107.4882  108.0261 H   0  0  0  0  0  0  0  0  0  0  0  0
  126.6821  106.9101  106.3646 H   0  0  0  0  0  0  0  0  0  0  0  0
  124.5847  108.2469  106.1966 H   0  0  0  0  0  0  0  0  0  0  0  0
  125.3387  109.1746  108.9939 H   0  0  0  0  0  0  0  0  0  0  0  0
  125.6350  110.5184  106.7923 H   0  0  0  0  0  0  0  0  0  0  0  0
  124.4245  111.2864  107.7917 H   0  0  0  0  0  0  0  0  0  0  0  0
  128.0901  108.6699  106.4990 H   0  0  0  0  0  0  0  0  0  0  0  0
  1  2  1  0  0  0  0
  1  4  1  0  0  0  0
  2 10  1  0  0  0  0
  3  5  1  0  0  0  0
  3 10  1  0  0  0  0
  4 12  1  0  0  0  0
  5 12  1  0  0  0  0
  6  9  1  0  0  0  0
  7  8  1  0  0  0  0
  7 13  1  0  0  0  0
  8  9  1  0  0  0  0
  8 10  1  0  0  0  0
  9 11  1  0  0  0  0
  1 14  1  0  0  0  0
  1 15  1  0  0  0  0
  2 16  1  0  0  0  0
  2 17  1  0  0  0  0
  3 18  1  0  0  0  0
  3 19  1  0  0  0  0
  4 20  1  0  0  0  0
  4 21  1  0  0  0  0
  5 22  1  0  0  0  0
  5 23  1  0  0  0  0
  6 24  1  0  0  0  0
  6 25  1  0  0  0  0
  6 26  1  0  0  0  0
  7 27  1  0  0  0  0
  7 28  1  0  0  0  0
  8 29  1  0  0  0  0
  9 30  1  0  0  0  0
 11 31  1  0  0  0  0
 11 32  1  0  0  0  0
 13 33  1  0  0  0  0
M  END
> <FRED Chemgauss4 score>
-7.055402

$$$$
C82510425	P128945533
  -OEChem-05122015313D

 24 25  0     1  0  0  0  0  0999 V2000
  126.1803  108.6382  107.6103 C   0  0  0  0  0  0  0  0  0  0  0  0
  125.8627  107.3005  107.6278 C   0  0  0  0  0  0  0  0  0  0  0  0
  124.4062  108.4899  108.7770 C   0  0  0  0  0  0  0  0  0  0  0  0
  124.0714  104.7540  107.7887 C   0  0  0  0  0  0  0  0  0  0  0  0
  122.7938  105.5311  107.8503 C   0  0  0  0  0  0  0  0  0  0  0  0
  123.9684  105.9536  108.7013 C   0  0  0  0  0  0  0  0  0  0  0  0
  123.4018  109.9987  110.5416 C   0  0  0  0  0  0  0  0  0  0  0  0
  123.1952  108.7872  109.6348 C   0  0  1  0  0  0  0  0  0  0  0  0
  125.2699  109.3731  108.3277 N   0  0  0  0  0  0  0  0  0  0  0  0
  124.7243  107.2210  108.3794 N   0  0  0  0  0  0  0  0  0  0  0  0
  122.0086  108.9660  108.8299 N   0  0  0  0  0  0  0  0  0  0  0  0
  127.0176  109.1103  107.1171 H   0  0  0  0  0  0  0  0  0  0  0  0
  126.3308  106.4321  107.1855 H   0  0  0  0  0  0  0  0  0  0  0  0
  124.0884  103.7726  108.2465 H   0  0  0  0  0  0  0  0  0  0  0  0
  124.6694  104.8397  106.8894 H   0  0  0  0  0  0  0  0  0  0  0  0
  122.5322  106.1386  106.9925 H   0  0  0  0  0  0  0  0  0  0  0  0
  121.9488  105.0748  108.3511 H   0  0  0  0  0  0  0  0  0  0  0  0
  123.9191  105.7884  109.7557 H   0  0  0  0  0  0  0  0  0  0  0  0
  123.6146  110.8990  109.9548 H   0  0  0  0  0  0  0  0  0  0  0  0
  122.5035  110.1881  111.1399 H   0  0  0  0  0  0  0  0  0  0  0  0
  124.2301  109.8491  111.2433 H   0  0  0  0  0  0  0  0  0  0  0  0
  122.9870  107.9213  110.2753 H   0  0  0  0  0  0  0  0  0  0  0  0
  121.2340  109.4759  109.2154 H   0  0  0  0  0  0  0  0  0  0  0  0
  121.9004  108.4147  107.9974 H   0  0  0  0  0  0  0  0  0  0  0  0
  1  2  2  0  0  0  0
  1  9  1  0  0  0  0
  2 10  1  0  0  0  0
  3  8  1  0  0  0  0
  3  9  2  0  0  0  0
  3 10  1  0  0  0  0
  4  5  1  0  0  0  0
  4  6  1  0  0  0  0
  5  6  1  0  0  0  0
  6 10  1  0  0  0  0
  7  8  1  0  0  0  0
  8 11  1  0  0  0  0
  1 12  1  0  0  0  0
  2 13  1  0  0  0  0
  4 14  1  0  0  0  0
  4 15  1  0  0  0  0
  5 16  1  0  0  0  0
  5 17  1  0  0  0  0
  6 18  1  0  0  0  0
  7 19  1  0  0  0  0
  7 20  1  0  0  0  0
  7 21  1  0  0  0  0
  8 22  1  0  0  0  0
 11 23  1  0  0  0  0
 11 24  1  0  0  0  0
M  END
> <FRED Chemgauss4 score>
-7.050534

$$$$
C05190256	P07671255
  -OEChem-05122015313D

 16 16  0     0  0  0  0  0  0999 V2000
  125.9235  107.8526  107.4918 C   0  0  0  0  0  0  0  0  0  0  0  0
  125.8447  105.8262  108.6935 C   0  0  0  0  0  0  0  0  0  0  0  0
  125.0457  105.6613  107.4095 C   0  0  0  0  0  0  0  0  0  0  0  0
  124.6637  107.1546  105.4007 C   0  0  0  0  0  0  0  0  0  0  0  0
  126.2611  107.2055  108.6917 N   0  0  0  0  0  0  0  0  0  0  0  0
  125.2278  106.9165  106.7109 N   0  0  0  0  0  0  0  0  0  0  0  0
  126.1917  109.0113  107.2027 O   0  0  0  0  0  0  0  0  0  0  0  0
  123.3325  107.6098  105.5474 O   0  0  0  0  0  0  0  0  0  0  0  0
  125.2507  105.6233  109.5886 H   0  0  0  0  0  0  0  0  0  0  0  0
  126.7396  105.1969  108.7024 H   0  0  0  0  0  0  0  0  0  0  0  0
  125.4134  104.8332  106.7965 H   0  0  0  0  0  0  0  0  0  0  0  0
  123.9790  105.5222  107.6122 H   0  0  0  0  0  0  0  0  0  0  0  0
  124.6770  106.2178  104.8382 H   0  0  0  0  0  0  0  0  0  0  0  0
  125.2641  107.9156  104.8963 H   0  0  0  0  0  0  0  0  0  0  0  0
  126.7790  107.6477  109.4444 H   0  0  0  0  0  0  0  0  0  0  0  0
  122.9821  107.7604  104.6529 H   0  0  0  0  0  0  0  0  0  0  0  0
  1  5  1  0  0  0  0
  1  6  1  0  0  0  0
  1  7  2  0  0  0  0
  2  3  1  0  0  0  0
  2  5  1  0  0  0  0
  3  6  1  0  0  0  0
  4  6  1  0  0  0  0
  4  8  1  0  0  0  0
  2  9  1  0  0  0  0
  2 10  1  0  0  0  0
  3 11  1  0  0  0  0
  3 12  1  0  0  0  0
  4 13  1  0  0  0  0
  4 14  1  0  0  0  0
  5 15  1  0  0  0  0
  8 16  1  0  0  0  0
M  END
> <FRED Chemgauss4 score>
-7.049983

$$$$
C78724846	P122853911
  -OEChem-05122015313D

 20 20  0     1  0  0  0  0  0999 V2000
  125.8899  108.8885  107.8243 C   0  0  0  0  0  0  0  0  0  0  0  0
  123.8684  108.9843  108.3355 C   0  0  0  0  0  0  0  0  0  0  0  0
  124.7474  104.5798  108.2773 C   0  0  0  0  0  0  0  0  0  0  0  0
  126.1816  106.3868  107.2768 C   0  0  0  0  0  0  0  0  0  0  0  0
  126.0922  105.2903  108.3421 C   0  0  1  0  0  0  0  0  0  0  0  0
  124.9205  109.7619  108.2269 N   0  0  0  0  0  0  0  0  0  0  0  0
  124.2070  107.7079  108.0099 N   0  0  0  0  0  0  0  0  0  0  0  0
  125.5037  107.6194  107.6769 N   0  0  0  0  0  0  0  0  0  0  0  0
  122.6616  109.4591  108.7203 N   0  0  0  0  0  0  0  0  0  0  0  0
  126.2078  105.8646  109.6422 O   0  0  0  0  0  0  0  0  0  0  0  0
  126.9072  109.2082  107.6368 H   0  0  0  0  0  0  0  0  0  0  0  0
  123.9185  105.2852  108.3898 H   0  0  0  0  0  0  0  0  0  0  0  0
  124.6353  104.0606  107.3192 H   0  0  0  0  0  0  0  0  0  0  0  0
  124.6683  103.8163  109.0593 H   0  0  0  0  0  0  0  0  0  0  0  0
  127.2251  106.6569  107.0737 H   0  0  0  0  0  0  0  0  0  0  0  0
  125.7330  106.0566  106.3321 H   0  0  0  0  0  0  0  0  0  0  0  0
  126.8938  104.5522  108.2258 H   0  0  0  0  0  0  0  0  0  0  0  0
  122.5233  110.4424  108.9912 H   0  0  0  0  0  0  0  0  0  0  0  0
  121.8488  108.8411  108.8508 H   0  0  0  0  0  0  0  0  0  0  0  0
  126.1562  105.1303  110.2732 H   0  0  0  0  0  0  0  0  0  0  0  0
  1  6  2  0  0  0  0
  1  8  1  0  0  0  0
  2  6  1  0  0  0  0
  2  7  2  0  0  0  0
  2  9  1  0  0  0  0
  3  5  1  0  0  0  0
  4  5  1  0  0  0  0
  4  8  1  0  0  0  0
  5 10  1  0  0  0  0
  7  8  1  0  0  0  0
  1 11  1  0  0  0  0
  3 12  1  0  0  0  0
  3 13  1  0  0  0  0
  3 14  1  0  0  0  0
  4 15  1  0  0  0  0
  4 16  1  0  0  0  0
  5 17  1  0  0  0  0
  9 18  1  0  0  0  0
  9 19  1  0  0  0  0
 10 20  1  0  0  0  0
M  END
> <FRED Chemgauss4 score>
-7.049505

$$$$
C96333752	P151988969
  -OEChem-05122015313D

 23 23  0     1  0  0  0  0  0999 V2000
  124.9225  107.7006  109.7902 C   0  0  0  0  0  0  0  0  0  0  0  0
  126.4938  107.6670  107.3366 C   0  0  0  0  0  0  0  0  0  0  0  0
  124.7688  108.7992  108.7571 C   0  0  2  0  0  0  0  0  0  0  0  0
  126.1595  106.3774  108.0596 C   0  0  2  0  0  0  0  0  0  0  0  0
  123.4211  108.7544  108.0561 C   0  0  0  0  0  0  0  0  0  0  0  0
  125.1806  105.5120  107.2834 C   0  0  0  0  0  0  0  0  0  0  0  0
  125.8819  108.7986  107.8262 N   0  0  0  0  0  0  0  0  0  0  0  0
  125.7169  106.6404  109.4164 N   0  0  0  0  0  0  0  0  0  0  0  0
  124.0588  103.4845  107.3713 N   0  0  0  0  0  0  0  0  0  0  0  0
  124.3190  107.7379  110.8626 O   0  0  0  0  0  0  0  0  0  0  0  0
  127.2159  107.6761  106.3395 O   0  0  0  0  0  0  0  0  0  0  0  0
  125.2811  104.1776  107.7514 O   0  0  0  0  0  0  0  0  0  0  0  0
  124.8258  109.7861  109.3192 H   0  0  0  0  0  0  0  0  0  0  0  0
  127.1308  105.7932  108.1500 H   0  0  0  0  0  0  0  0  0  0  0  0
  123.3173  107.8215  107.4997 H   0  0  0  0  0  0  0  0  0  0  0  0
  123.3312  109.5900  107.3602 H   0  0  0  0  0  0  0  0  0  0  0  0
  122.6141  108.8185  108.7879 H   0  0  0  0  0  0  0  0  0  0  0  0
  125.4188  105.5352  106.2181 H   0  0  0  0  0  0  0  0  0  0  0  0
  124.1594  105.8674  107.4355 H   0  0  0  0  0  0  0  0  0  0  0  0
  126.2417  109.7189  107.5072 H   0  0  0  0  0  0  0  0  0  0  0  0
  126.0221  105.9806  110.1577 H   0  0  0  0  0  0  0  0  0  0  0  0
  124.0500  103.6584  106.3673 H   0  0  0  0  0  0  0  0  0  0  0  0
  123.3590  104.1022  107.7795 H   0  0  0  0  0  0  0  0  0  0  0  0
  1  3  1  0  0  0  0
  1  8  1  0  0  0  0
  1 10  2  0  0  0  0
  2  4  1  0  0  0  0
  2  7  1  0  0  0  0
  2 11  2  0  0  0  0
  3  5  1  0  0  0  0
  3  7  1  0  0  0  0
  4  6  1  0  0  0  0
  4  8  1  0  0  0  0
  6 12  1  0  0  0  0
  9 12  1  0  0  0  0
  3 13  1  0  0  0  0
  4 14  1  0  0  0  0
  5 15  1  0  0  0  0
  5 16  1  0  0  0  0
  5 17  1  0  0  0  0
  6 18  1  0  0  0  0
  6 19  1  0  0  0  0
  7 20  1  0  0  0  0
  8 21  1  0  0  0  0
  9 22  1  0  0  0  0
  9 23  1  0  0  0  0
M  END
> <FRED Chemgauss4 score>
-7.049467

$$$$
C44464318	P129259292
  -OEChem-05122015313D

 20 20  0     1  0  0  0  0  0999 V2000
  123.6366  105.3906  107.0538 C   0  0  0  0  0  0  0  0  0  0  0  0
  124.8542  104.7518  107.1613 C   0  0  0  0  0  0  0  0  0  0  0  0
  124.5225  106.6323  108.6297 C   0  0  0  0  0  0  0  0  0  0  0  0
  124.6915  107.7134  109.6709 C   0  0  0  0  0  0  0  0  0  0  0  0
  123.7699  109.8899  110.5476 C   0  0  0  0  0  0  0  0  0  0  0  0
  123.9707  109.0204  109.3051 C   0  0  1  0  0  0  0  0  0  0  0  0
  123.4445  106.4690  107.8953 N   0  0  0  0  0  0  0  0  0  0  0  0
  124.7172  109.7583  108.3073 N   0  0  0  0  0  0  0  0  0  0  0  0
  123.1316  111.1063  110.1757 O   0  0  0  0  0  0  0  0  0  0  0  0
  125.8058  105.5252  108.3603 S   0  0  0  0  0  0  0  0  0  0  0  0
  122.8467  105.1079  106.3710 H   0  0  0  0  0  0  0  0  0  0  0  0
  125.2187  103.8972  106.6092 H   0  0  0  0  0  0  0  0  0  0  0  0
  124.3384  107.3455  110.6435 H   0  0  0  0  0  0  0  0  0  0  0  0
  125.7668  107.8991  109.7933 H   0  0  0  0  0  0  0  0  0  0  0  0
  124.7330  110.1447  111.0019 H   0  0  0  0  0  0  0  0  0  0  0  0
  123.1479  109.3850  111.2947 H   0  0  0  0  0  0  0  0  0  0  0  0
  122.9937  108.8117  108.8529 H   0  0  0  0  0  0  0  0  0  0  0  0
  124.5753  110.7483  108.2348 H   0  0  0  0  0  0  0  0  0  0  0  0
  125.1950  109.2475  107.5887 H   0  0  0  0  0  0  0  0  0  0  0  0
  123.0243  111.6242  110.9892 H   0  0  0  0  0  0  0  0  0  0  0  0
  1  2  2  0  0  0  0
  1  7  1  0  0  0  0
  2 10  1  0  0  0  0
  3  4  1  0  0  0  0
  3  7  2  0  0  0  0
  3 10  1  0  0  0  0
  4  6  1  0  0  0  0
  5  6  1  0  0  0  0
  5  9  1  0  0  0  0
  6  8  1  0  0  0  0
  1 11  1  0  0  0  0
  2 12  1  0  0  0  0
  4 13  1  0  0  0  0
  4 14  1  0  0  0  0
  5 15  1  0  0  0  0
  5 16  1  0  0  0  0
  6 17  1  0  0  0  0
  8 18  1  0  0  0  0
  8 19  1  0  0  0  0
  9 20  1  0  0  0  0
M  END
> <FRED Chemgauss4 score>
-7.049130

$$$$
C39094985	P59234643
  -OEChem-05122015313D

 19 19  0     1  0  0  0  0  0999 V2000
  125.4550  108.4866  108.2256 C   0  0  0  0  0  0  0  0  0  0  0  0
  126.7624  106.4970  107.8618 C   0  0  0  0  0  0  0  0  0  0  0  0
  126.6542  107.9787  107.4457 C   0  0  1  0  0  0  0  0  0  0  0  0
  125.3623  106.0987  108.3331 C   0  0  2  0  0  0  0  0  0  0  0  0
  124.5211  105.4649  107.2328 C   0  0  0  0  0  0  0  0  0  0  0  0
  124.8465  107.3801  108.7506 N   0  0  0  0  0  0  0  0  0  0  0  0
  126.3522  108.1448  106.0319 N   0  0  0  0  0  0  0  0  0  0  0  0
  125.1091  109.6546  108.3137 O   0  0  0  0  0  0  0  0  0  0  0  0
  123.6309  107.4372  109.4126 O   0  0  0  0  0  0  0  0  0  0  0  0
  127.1584  105.8492  107.0725 H   0  0  0  0  0  0  0  0  0  0  0  0
  127.4585  106.4286  108.7087 H   0  0  0  0  0  0  0  0  0  0  0  0
  127.5442  108.5285  107.7152 H   0  0  0  0  0  0  0  0  0  0  0  0
  125.4155  105.4313  109.1886 H   0  0  0  0  0  0  0  0  0  0  0  0
  124.4655  106.1324  106.3721 H   0  0  0  0  0  0  0  0  0  0  0  0
  123.5107  105.2743  107.5965 H   0  0  0  0  0  0  0  0  0  0  0  0
  124.9663  104.5202  106.9179 H   0  0  0  0  0  0  0  0  0  0  0  0
  126.8249  107.5597  105.3732 H   0  0  0  0  0  0  0  0  0  0  0  0
  125.8472  108.9592  105.7466 H   0  0  0  0  0  0  0  0  0  0  0  0
  123.3999  108.3940  109.3770 H   0  0  0  0  0  0  0  0  0  0  0  0
  1  3  1  0  0  0  0
  1  6  1  0  0  0  0
  1  8  2  0  0  0  0
  2  3  1  0  0  0  0
  2  4  1  0  0  0  0
  3  7  1  0  0  0  0
  4  5  1  0  0  0  0
  4  6  1  0  0  0  0
  6  9  1  0  0  0  0
  2 10  1  0  0  0  0
  2 11  1  0  0  0  0
  3 12  1  0  0  0  0
  4 13  1  0  0  0  0
  5 14  1  0  0  0  0
  5 15  1  0  0  0  0
  5 16  1  0  0  0  0
  7 17  1  0  0  0  0
  7 18  1  0  0  0  0
  9 19  1  0  0  0  0
M  END
> <FRED Chemgauss4 score>
-7.039559

$$$$
C22061920	P32822128
  -OEChem-05122015313D

 21 21  0     1  0  0  0  0  0999 V2000
  124.0555  106.3894  108.4645 C   0  0  0  0  0  0  0  0  0  0  0  0
  125.2352  107.3473  108.5944 C   0  0  2  0  0  0  0  0  0  0  0  0
  125.3279  108.2635  107.3739 C   0  0  2  0  0  0  0  0  0  0  0  0
  125.3123  107.4384  106.0870 C   0  0  1  0  0  0  0  0  0  0  0  0
  124.1185  106.4716  106.0546 C   0  0  2  0  0  0  0  0  0  0  0  0
  122.8401  107.1455  105.8126 N   0  0  0  0  0  0  0  0  0  0  0  0
  124.1046  105.6565  107.2344 O   0  0  0  0  0  0  0  0  0  0  0  0
  126.4357  106.5774  108.6947 O   0  0  0  0  0  0  0  0  0  0  0  0
  126.5302  109.0278  107.4264 O   0  0  0  0  0  0  0  0  0  0  0  0
  125.2776  108.2913  104.9463 O   0  0  0  0  0  0  0  0  0  0  0  0
  123.9991  105.6894  109.3124 H   0  0  0  0  0  0  0  0  0  0  0  0
  123.1125  106.9537  108.4809 H   0  0  0  0  0  0  0  0  0  0  0  0
  125.1306  107.9367  109.4916 H   0  0  0  0  0  0  0  0  0  0  0  0
  124.4860  108.9760  107.3941 H   0  0  0  0  0  0  0  0  0  0  0  0
  126.2537  106.8400  106.0197 H   0  0  0  0  0  0  0  0  0  0  0  0
  124.2647  105.7688  105.1883 H   0  0  0  0  0  0  0  0  0  0  0  0
  122.0049  106.6777  106.0890 H   0  0  0  0  0  0  0  0  0  0  0  0
  122.8359  107.9372  105.2075 H   0  0  0  0  0  0  0  0  0  0  0  0
  126.3466  106.0199  109.4848 H   0  0  0  0  0  0  0  0  0  0  0  0
  126.4883  109.5479  108.2429 H   0  0  0  0  0  0  0  0  0  0  0  0
  125.2693  107.7108  104.1702 H   0  0  0  0  0  0  0  0  0  0  0  0
  1  2  1  0  0  0  0
  1  7  1  0  0  0  0
  2  3  1  0  0  0  0
  2  8  1  0  0  0  0
  3  4  1  0  0  0  0
  3  9  1  0  0  0  0
  4  5  1  0  0  0  0
  4 10  1  0  0  0  0
  5  6  1  0  0  0  0
  5  7  1  0  0  0  0
  1 11  1  0  0  0  0
  1 12  1  0  0  0  0
  2 13  1  0  0  0  0
  3 14  1  0  0  0  0
  4 15  1  0  0  0  0
  5 16  1  0  0  0  0
  6 17  1  0  0  0  0
  6 18  1  0  0  0  0
  8 19  1  0  0  0  0
  9 20  1  0  0  0  0
 10 21  1  0  0  0  0
M  END
> <FRED Chemgauss4 score>
-7.038816

$$$$
C20974560	P101623439
  -OEChem-05122015313D

 21 22  0     1  0  0  0  0  0999 V2000
  125.1552  104.2193  107.6096 C   0  0  0  0  0  0  0  0  0  0  0  0
  124.5261  105.0964  108.4831 C   0  0  0  0  0  0  0  0  0  0  0  0
  125.9210  104.7600  106.5928 C   0  0  0  0  0  0  0  0  0  0  0  0
  124.6787  106.4705  108.3122 C   0  0  0  0  0  0  0  0  0  0  0  0
  125.4923  106.9292  107.2770 C   0  0  0  0  0  0  0  0  0  0  0  0
  125.2938  109.1805  108.3207 C   0  0  0  0  0  0  0  0  0  0  0  0
  123.9558  108.6558  108.8197 C   0  0  0  0  0  0  0  0  0  0  0  0
  125.6875  108.4107  107.0585 C   0  0  1  0  0  0  0  0  0  0  0  0
  126.1003  106.0865  106.4036 N   0  0  0  0  0  0  0  0  0  0  0  0
  127.0586  108.7659  106.6910 N   0  0  0  0  0  0  0  0  0  0  0  0
  124.0332  107.2799  109.2053 O   0  0  0  0  0  0  0  0  0  0  0  0
  125.0460  103.1465  107.7194 H   0  0  0  0  0  0  0  0  0  0  0  0
  123.9126  104.7047  109.2899 H   0  0  0  0  0  0  0  0  0  0  0  0
  126.4293  104.1197  105.8791 H   0  0  0  0  0  0  0  0  0  0  0  0
  125.2291  110.2549  108.1124 H   0  0  0  0  0  0  0  0  0  0  0  0
  126.0474  109.0372  109.1070 H   0  0  0  0  0  0  0  0  0  0  0  0
  123.6460  109.2221  109.7043 H   0  0  0  0  0  0  0  0  0  0  0  0
  123.1681  108.7729  108.0650 H   0  0  0  0  0  0  0  0  0  0  0  0
  125.0239  108.7084  106.2388 H   0  0  0  0  0  0  0  0  0  0  0  0
  127.3568  109.7014  106.8540 H   0  0  0  0  0  0  0  0  0  0  0  0
  127.5653  108.1315  106.1152 H   0  0  0  0  0  0  0  0  0  0  0  0
  1  2  1  0  0  0  0
  1  3  2  0  0  0  0
  2  4  2  0  0  0  0
  3  9  1  0  0  0  0
  4  5  1  0  0  0  0
  4 11  1  0  0  0  0
  5  8  1  0  0  0  0
  5  9  2  0  0  0  0
  6  7  1  0  0  0  0
  6  8  1  0  0  0  0
  7 11  1  0  0  0  0
  8 10  1  0  0  0  0
  1 12  1  0  0  0  0
  2 13  1  0  0  0  0
  3 14  1  0  0  0  0
  6 15  1  0  0  0  0
  6 16  1  0  0  0  0
  7 17  1  0  0  0  0
  7 18  1  0  0  0  0
  8 19  1  0  0  0  0
 10 20  1  0  0  0  0
 10 21  1  0  0  0  0
M  END
> <FRED Chemgauss4 score>
-7.036632

$$$$
C08466527	P151295409
  -OEChem-05122015313D

 18 18  0     0  0  0  0  0  0999 V2000
  124.1484  109.1501  108.1976 C   0  0  0  0  0  0  0  0  0  0  0  0
  122.8996  108.2778  110.4285 C   0  0  0  0  0  0  0  0  0  0  0  0
  123.0249  107.4939  109.3275 C   0  0  0  0  0  0  0  0  0  0  0  0
  123.4575  109.6619  110.4334 C   0  0  0  0  0  0  0  0  0  0  0  0
  122.6340  105.3838  108.1779 C   0  0  0  0  0  0  0  0  0  0  0  0
  123.6693  107.9529  108.1854 N   0  0  0  0  0  0  0  0  0  0  0  0
  124.0731  110.0157  109.2549 N   0  0  0  0  0  0  0  0  0  0  0  0
  122.2837  107.9175  111.5970 N   0  0  0  0  0  0  0  0  0  0  0  0
  122.5056  106.2165  109.3331 N   0  0  0  0  0  0  0  0  0  0  0  0
  123.3665  110.4031  111.4078 O   0  0  0  0  0  0  0  0  0  0  0  0
  124.6693  109.5699  107.3236 H   0  0  0  0  0  0  0  0  0  0  0  0
  123.1677  105.9176  107.3873 H   0  0  0  0  0  0  0  0  0  0  0  0
  121.6462  105.0993  107.8054 H   0  0  0  0  0  0  0  0  0  0  0  0
  123.1897  104.4756  108.4265 H   0  0  0  0  0  0  0  0  0  0  0  0
  124.4809  110.9421  109.1720 H   0  0  0  0  0  0  0  0  0  0  0  0
  121.8890  107.0071  111.6617 H   0  0  0  0  0  0  0  0  0  0  0  0
  122.2534  108.5793  112.3387 H   0  0  0  0  0  0  0  0  0  0  0  0
  122.0571  105.9341  110.1641 H   0  0  0  0  0  0  0  0  0  0  0  0
  1  6  2  0  0  0  0
  1  7  1  0  0  0  0
  2  3  2  0  0  0  0
  2  4  1  0  0  0  0
  2  8  1  0  0  0  0
  3  6  1  0  0  0  0
  3  9  1  0  0  0  0
  4  7  1  0  0  0  0
  4 10  2  0  0  0  0
  5  9  1  0  0  0  0
  1 11  1  0  0  0  0
  5 12  1  0  0  0  0
  5 13  1  0  0  0  0
  5 14  1  0  0  0  0
  7 15  1  0  0  0  0
  8 16  1  0  0  0  0
  8 17  1  0  0  0  0
  9 18  1  0  0  0  0
M  END
> <FRED Chemgauss4 score>
-7.032286

$$$$
C82680771	P129217506
  -OEChem-05122015313D

 24 23  0     1  0  0  0  0  0999 V2000
  123.4617  110.2992  112.5210 C   0  0  0  0  0  0  0  0  0  0  0  0
  123.8834  108.8651  110.4972 C   0  0  0  0  0  0  0  0  0  0  0  0
  124.2835  107.5473  108.5316 C   0  0  0  0  0  0  0  0  0  0  0  0
  124.0753  110.2417  111.1285 C   0  0  1  0  0  0  0  0  0  0  0  0
  125.2430  106.4787  109.0632 C   0  0  1  0  0  0  0  0  0  0  0  0
  125.0314  105.1056  108.4520 C   0  0  0  0  0  0  0  0  0  0  0  0
  124.4759  108.8424  109.1789 N   0  0  0  0  0  0  0  0  0  0  0  0
  123.4322  111.2137  110.3062 O   0  0  0  0  0  0  0  0  0  0  0  0
  126.5802  106.8776  108.7604 O   0  0  0  0  0  0  0  0  0  0  0  0
  123.8157  104.6048  108.7593 F   0  0  0  0  0  0  0  0  0  0  0  0
  125.9617  104.2242  108.8773 F   0  0  0  0  0  0  0  0  0  0  0  0
  125.1087  105.1663  107.1031 F   0  0  0  0  0  0  0  0  0  0  0  0
  122.3965  110.0497  112.4971 H   0  0  0  0  0  0  0  0  0  0  0  0
  123.9703  109.6082  113.2024 H   0  0  0  0  0  0  0  0  0  0  0  0
  123.5739  111.3016  112.9483 H   0  0  0  0  0  0  0  0  0  0  0  0
  124.3577  108.0882  111.1065 H   0  0  0  0  0  0  0  0  0  0  0  0
  122.8187  108.6269  110.4048 H   0  0  0  0  0  0  0  0  0  0  0  0
  124.4083  107.6566  107.4479 H   0  0  0  0  0  0  0  0  0  0  0  0
  123.2484  107.2188  108.6838 H   0  0  0  0  0  0  0  0  0  0  0  0
  125.1404  110.4953  111.1815 H   0  0  0  0  0  0  0  0  0  0  0  0
  125.1633  106.4047  110.1540 H   0  0  0  0  0  0  0  0  0  0  0  0
  124.0504  109.5672  108.5951 H   0  0  0  0  0  0  0  0  0  0  0  0
  123.5878  112.0743  110.7247 H   0  0  0  0  0  0  0  0  0  0  0  0
  126.6320  106.9508  107.7955 H   0  0  0  0  0  0  0  0  0  0  0  0
  1  4  1  0  0  0  0
  2  4  1  0  0  0  0
  2  7  1  0  0  0  0
  3  5  1  0  0  0  0
  3  7  1  0  0  0  0
  4  8  1  0  0  0  0
  5  6  1  0  0  0  0
  5  9  1  0  0  0  0
  6 10  1  0  0  0  0
  6 11  1  0  0  0  0
  6 12  1  0  0  0  0
  1 13  1  0  0  0  0
  1 14  1  0  0  0  0
  1 15  1  0  0  0  0
  2 16  1  0  0  0  0
  2 17  1  0  0  0  0
  3 18  1  0  0  0  0
  3 19  1  0  0  0  0
  4 20  1  0  0  0  0
  5 21  1  0  0  0  0
  7 22  1  0  0  0  0
  8 23  1  0  0  0  0
  9 24  1  0  0  0  0
M  END
> <FRED Chemgauss4 score>
-7.030712

$$$$
C95881887	P150922172
  -OEChem-05122015313D

 16 17  0     1  0  0  0  0  0999 V2000
  124.9748  104.3846  107.3362 C   0  0  0  0  0  0  0  0  0  0  0  0
  125.8738  106.7287  107.9740 C   0  0  0  0  0  0  0  0  0  0  0  0
  126.1003  105.6236  108.9239 C   0  0  0  0  0  0  0  0  0  0  0  0
  126.0289  108.2624  106.6125 C   0  0  0  0  0  0  0  0  0  0  0  0
  124.6275  106.6903  107.1817 C   0  0  2  0  0  0  0  0  0  0  0  0
  124.5104  105.3548  106.6130 N   0  0  0  0  0  0  0  0  0  0  0  0
  125.6105  104.4763  108.5608 N   0  0  0  0  0  0  0  0  0  0  0  0
  126.6782  107.6841  107.6723 N   0  0  0  0  0  0  0  0  0  0  0  0
  124.8983  107.7654  106.2031 N   0  0  0  0  0  0  0  0  0  0  0  0
  126.7777  105.8900  110.0786 N   0  0  0  0  0  0  0  0  0  0  0  0
  126.6488  109.3105  106.0351 O   0  0  0  0  0  0  0  0  0  0  0  0
  124.8651  103.3607  106.9428 H   0  0  0  0  0  0  0  0  0  0  0  0
  123.7582  106.9430  107.7977 H   0  0  0  0  0  0  0  0  0  0  0  0
  127.0958  106.8203  110.2405 H   0  0  0  0  0  0  0  0  0  0  0  0
  126.9327  105.1459  110.7229 H   0  0  0  0  0  0  0  0  0  0  0  0
  126.1310  109.6689  105.2920 H   0  0  0  0  0  0  0  0  0  0  0  0
  1  6  2  0  0  0  0
  1  7  1  0  0  0  0
  2  3  1  0  0  0  0
  2  5  1  0  0  0  0
  2  8  2  0  0  0  0
  3  7  2  0  0  0  0
  3 10  1  0  0  0  0
  4  8  1  0  0  0  0
  4  9  2  0  0  0  0
  4 11  1  0  0  0  0
  5  6  1  0  0  0  0
  5  9  1  0  0  0  0
  1 12  1  0  0  0  0
  5 13  1  0  0  0  0
 10 14  1  0  0  0  0
 10 15  1  0  0  0  0
 11 16  1  0  0  0  0
M  END
> <FRED Chemgauss4 score>
-7.027632

$$$$
C82842415	P129491754
  -OEChem-05122015313D

 22 22  0     1  0  0  0  0  0999 V2000
  124.2197  107.3513  110.0566 C   0  0  0  0  0  0  0  0  0  0  0  0
  124.9627  108.7612  108.3488 C   0  0  0  0  0  0  0  0  0  0  0  0
  123.9341  109.6022  110.1932 C   0  0  0  0  0  0  0  0  0  0  0  0
  124.8390  107.4736  108.8294 C   0  0  0  0  0  0  0  0  0  0  0  0
  122.6529  106.0078  105.4688 C   0  0  0  0  0  0  0  0  0  0  0  0
  124.7245  106.1856  106.6677 C   0  0  0  0  0  0  0  0  0  0  0  0
  125.3497  106.2757  108.0621 C   0  0  1  0  0  0  0  0  0  0  0  0
  123.7535  108.3982  110.7685 N   0  0  0  0  0  0  0  0  0  0  0  0
  124.5198  109.8527  109.0067 N   0  0  0  0  0  0  0  0  0  0  0  0
  123.2885  106.0654  106.7826 N   0  0  0  0  0  0  0  0  0  0  0  0
  126.7690  106.3840  107.9488 O   0  0  0  0  0  0  0  0  0  0  0  0
  124.0741  106.3811  110.5213 H   0  0  0  0  0  0  0  0  0  0  0  0
  125.4346  108.9640  107.3925 H   0  0  0  0  0  0  0  0  0  0  0  0
  123.5680  110.4603  110.7433 H   0  0  0  0  0  0  0  0  0  0  0  0
  123.0379  105.1559  104.9023 H   0  0  0  0  0  0  0  0  0  0  0  0
  122.8582  106.9244  104.9091 H   0  0  0  0  0  0  0  0  0  0  0  0
  121.5705  105.8982  105.5771 H   0  0  0  0  0  0  0  0  0  0  0  0
  125.1047  105.3131  106.1252 H   0  0  0  0  0  0  0  0  0  0  0  0
  124.9509  107.0786  106.0747 H   0  0  0  0  0  0  0  0  0  0  0  0
  125.1467  105.3591  108.6296 H   0  0  0  0  0  0  0  0  0  0  0  0
  122.9134  106.8687  107.2936 H   0  0  0  0  0  0  0  0  0  0  0  0
  127.0642  105.6047  107.4543 H   0  0  0  0  0  0  0  0  0  0  0  0
  1  4  1  0  0  0  0
  1  8  2  0  0  0  0
  2  4  2  0  0  0  0
  2  9  1  0  0  0  0
  3  8  1  0  0  0  0
  3  9  2  0  0  0  0
  4  7  1  0  0  0  0
  5 10  1  0  0  0  0
  6  7  1  0  0  0  0
  6 10  1  0  0  0  0
  7 11  1  0  0  0  0
  1 12  1  0  0  0  0
  2 13  1  0  0  0  0
  3 14  1  0  0  0  0
  5 15  1  0  0  0  0
  5 16  1  0  0  0  0
  5 17  1  0  0  0  0
  6 18  1  0  0  0  0
  6 19  1  0  0  0  0
  7 20  1  0  0  0  0
 10 21  1  0  0  0  0
 11 22  1  0  0  0  0
M  END
> <FRED Chemgauss4 score>
-7.026633

$$$$
C39088366	P59222491
  -OEChem-05122015313D

 22 22  0     1  0  0  0  0  0999 V2000
  124.4121  107.3771  108.7555 C   0  0  0  0  0  0  0  0  0  0  0  0
  126.9652  106.5174  107.6589 C   0  0  0  0  0  0  0  0  0  0  0  0
  126.2970  105.6997  108.7648 C   0  0  2  0  0  0  0  0  0  0  0  0
  124.7866  105.8988  108.7889 C   0  0  2  0  0  0  0  0  0  0  0  0
  125.1397  108.1586  107.6506 C   0  0  2  0  0  0  0  0  0  0  0  0
  124.5622  107.8989  106.2563 C   0  0  0  0  0  0  0  0  0  0  0  0
  126.5885  107.9318  107.7024 N   0  0  0  0  0  0  0  0  0  0  0  0
  126.8608  106.0714  110.0199 O   0  0  0  0  0  0  0  0  0  0  0  0
  125.2905  108.6689  105.3184 O   0  0  0  0  0  0  0  0  0  0  0  0
  124.2487  105.2793  107.7033 F   0  0  0  0  0  0  0  0  0  0  0  0
  123.3169  107.4673  108.6334 H   0  0  0  0  0  0  0  0  0  0  0  0
  124.6242  107.8238  109.7427 H   0  0  0  0  0  0  0  0  0  0  0  0
  128.0596  106.4129  107.7117 H   0  0  0  0  0  0  0  0  0  0  0  0
  126.6817  106.1000  106.6827 H   0  0  0  0  0  0  0  0  0  0  0  0
  126.5255  104.6214  108.6201 H   0  0  0  0  0  0  0  0  0  0  0  0
  124.3491  105.4092  109.6763 H   0  0  0  0  0  0  0  0  0  0  0  0
  124.9690  109.2655  107.8629 H   0  0  0  0  0  0  0  0  0  0  0  0
  123.5137  108.1932  106.2293 H   0  0  0  0  0  0  0  0  0  0  0  0
  124.6559  106.8425  106.0074 H   0  0  0  0  0  0  0  0  0  0  0  0
  126.9705  108.3532  108.5595 H   0  0  0  0  0  0  0  0  0  0  0  0
  126.4145  105.5347  110.6934 H   0  0  0  0  0  0  0  0  0  0  0  0
  124.9082  108.4893  104.4423 H   0  0  0  0  0  0  0  0  0  0  0  0
  1  4  1  0  0  0  0
  1  5  1  0  0  0  0
  2  3  1  0  0  0  0
  2  7  1  0  0  0  0
  3  4  1  0  0  0  0
  3  8  1  0  0  0  0
  4 10  1  0  0  0  0
  5  6  1  0  0  0  0
  5  7  1  0  0  0  0
  6  9  1  0  0  0  0
  1 11  1  0  0  0  0
  1 12  1  0  0  0  0
  2 13  1  0  0  0  0
  2 14  1  0  0  0  0
  3 15  1  0  0  0  0
  4 16  1  0  0  0  0
  5 17  1  0  0  0  0
  6 18  1  0  0  0  0
  6 19  1  0  0  0  0
  7 20  1  0  0  0  0
  8 21  1  0  0  0  0
  9 22  1  0  0  0  0
M  END
> <FRED Chemgauss4 score>
-7.024027

$$$$
C82515892	P128954846
  -OEChem-05122015313D

 28 28  0     1  0  0  0  0  0999 V2000
  124.8813  108.7638  107.7733 C   0  0  0  0  0  0  0  0  0  0  0  0
  124.3927  107.6407  108.6665 C   0  0  0  0  0  0  0  0  0  0  0  0
  124.8286  106.2461  108.2383 C   0  0  0  0  0  0  0  0  0  0  0  0
  125.4591  107.0835  105.9925 C   0  0  0  0  0  0  0  0  0  0  0  0
  124.6574  106.0218  106.7369 C   0  0  2  0  0  0  0  0  0  0  0  0
  121.1322  104.7665  106.2368 C   0  0  0  0  0  0  0  0  0  0  0  0
  122.5979  104.7853  106.6503 C   0  0  0  0  0  0  0  0  0  0  0  0
  120.4414  103.4496  106.5696 C   0  0  0  0  0  0  0  0  0  0  0  0
  125.2416  108.4312  106.4870 N   0  0  0  0  0  0  0  0  0  0  0  0
  123.2466  106.0524  106.3469 N   0  0  0  0  0  0  0  0  0  0  0  0
  124.8747  109.9290  108.1751 O   0  0  0  0  0  0  0  0  0  0  0  0
  119.0900  103.5192  106.1341 O   0  0  0  0  0  0  0  0  0  0  0  0
  124.7667  107.8502  109.6767 H   0  0  0  0  0  0  0  0  0  0  0  0
  123.2976  107.6818  108.7041 H   0  0  0  0  0  0  0  0  0  0  0  0
  125.8837  106.0909  108.5360 H   0  0  0  0  0  0  0  0  0  0  0  0
  124.2455  105.4911  108.8031 H   0  0  0  0  0  0  0  0  0  0  0  0
  126.5374  106.8808  106.0570 H   0  0  0  0  0  0  0  0  0  0  0  0
  125.1966  107.1035  104.9241 H   0  0  0  0  0  0  0  0  0  0  0  0
  125.0657  105.0205  106.4819 H   0  0  0  0  0  0  0  0  0  0  0  0
  120.6027  105.5833  106.7430 H   0  0  0  0  0  0  0  0  0  0  0  0
  121.0347  104.9666  105.1623 H   0  0  0  0  0  0  0  0  0  0  0  0
  122.6859  104.6326  107.7305 H   0  0  0  0  0  0  0  0  0  0  0  0
  123.1594  103.9926  106.1458 H   0  0  0  0  0  0  0  0  0  0  0  0
  120.9240  102.6088  106.0618 H   0  0  0  0  0  0  0  0  0  0  0  0
  120.4495  103.2669  107.6489 H   0  0  0  0  0  0  0  0  0  0  0  0
  125.3662  109.1947  105.8265 H   0  0  0  0  0  0  0  0  0  0  0  0
  123.1821  106.2338  105.3466 H   0  0  0  0  0  0  0  0  0  0  0  0
  118.6792  102.6690  106.3595 H   0  0  0  0  0  0  0  0  0  0  0  0
  1  2  1  0  0  0  0
  1  9  1  0  0  0  0
  1 11  2  0  0  0  0
  2  3  1  0  0  0  0
  3  5  1  0  0  0  0
  4  5  1  0  0  0  0
  4  9  1  0  0  0  0
  5 10  1  0  0  0  0
  6  7  1  0  0  0  0
  6  8  1  0  0  0  0
  7 10  1  0  0  0  0
  8 12  1  0  0  0  0
  2 13  1  0  0  0  0
  2 14  1  0  0  0  0
  3 15  1  0  0  0  0
  3 16  1  0  0  0  0
  4 17  1  0  0  0  0
  4 18  1  0  0  0  0
  5 19  1  0  0  0  0
  6 20  1  0  0  0  0
  6 21  1  0  0  0  0
  7 22  1  0  0  0  0
  7 23  1  0  0  0  0
  8 24  1  0  0  0  0
  8 25  1  0  0  0  0
  9 26  1  0  0  0  0
 10 27  1  0  0  0  0
 12 28  1  0  0  0  0
M  END
> <FRED Chemgauss4 score>
-7.021518

$$$$
C59086297	P89572875
  -OEChem-05122015313D

 19 18  0     1  0  0  0  0  0999 V2000
  125.2731  103.8748  107.5489 C   0  0  0  0  0  0  0  0  0  0  0  0
  125.2113  104.9785  108.3026 C   0  0  0  0  0  0  0  0  0  0  0  0
  125.2533  107.6076  106.5768 C   0  0  0  0  0  0  0  0  0  0  0  0
  126.2887  106.0248  108.3464 C   0  0  1  0  0  0  0  0  0  0  0  0
  125.7968  107.4446  107.9998 C   0  0  1  0  0  0  0  0  0  0  0  0
  124.7777  108.9604  106.3225 N   0  0  0  0  0  0  0  0  0  0  0  0
  126.8235  106.0328  109.6720 O   0  0  0  0  0  0  0  0  0  0  0  0
  126.8640  108.3835  108.1639 O   0  0  0  0  0  0  0  0  0  0  0  0
  124.4724  103.1437  107.5465 H   0  0  0  0  0  0  0  0  0  0  0  0
  126.1346  103.6892  106.9170 H   0  0  0  0  0  0  0  0  0  0  0  0
  124.3291  105.1348  108.9186 H   0  0  0  0  0  0  0  0  0  0  0  0
  126.0438  107.3601  105.8580 H   0  0  0  0  0  0  0  0  0  0  0  0
  124.4465  106.8904  106.3875 H   0  0  0  0  0  0  0  0  0  0  0  0
  127.1130  105.7470  107.6792 H   0  0  0  0  0  0  0  0  0  0  0  0
  125.0219  107.7396  108.7190 H   0  0  0  0  0  0  0  0  0  0  0  0
  124.0899  109.0941  105.6107 H   0  0  0  0  0  0  0  0  0  0  0  0
  125.2902  109.7233  106.7140 H   0  0  0  0  0  0  0  0  0  0  0  0
  127.1752  105.1440  109.8287 H   0  0  0  0  0  0  0  0  0  0  0  0
  126.4775  109.2598  108.0225 H   0  0  0  0  0  0  0  0  0  0  0  0
  1  2  2  0  0  0  0
  2  4  1  0  0  0  0
  3  5  1  0  0  0  0
  3  6  1  0  0  0  0
  4  5  1  0  0  0  0
  4  7  1  0  0  0  0
  5  8  1  0  0  0  0
  1  9  1  0  0  0  0
  1 10  1  0  0  0  0
  2 11  1  0  0  0  0
  3 12  1  0  0  0  0
  3 13  1  0  0  0  0
  4 14  1  0  0  0  0
  5 15  1  0  0  0  0
  6 16  1  0  0  0  0
  6 17  1  0  0  0  0
  7 18  1  0  0  0  0
  8 19  1  0  0  0  0
M  END
> <FRED Chemgauss4 score>
-7.017789

$$$$
C84991573	P133024479
  -OEChem-05122015313D

 28 28  0     1  0  0  0  0  0999 V2000
  124.8007  104.2079  106.8978 C   0  0  0  0  0  0  0  0  0  0  0  0
  125.5501  105.1103  107.8455 C   0  0  0  0  0  0  0  0  0  0  0  0
  123.3638  104.6116  107.1516 C   0  0  0  0  0  0  0  0  0  0  0  0
  124.7448  106.3940  107.7414 C   0  0  2  0  0  0  0  0  0  0  0  0
  124.8447  107.2725  108.9733 C   0  0  0  0  0  0  0  0  0  0  0  0
  124.0433  108.5669  108.8039 C   0  0  0  0  0  0  0  0  0  0  0  0
  123.4848  108.7482  111.2566 C   0  0  0  0  0  0  0  0  0  0  0  0
  124.1078  109.4556  110.0520 C   0  0  2  0  0  0  0  0  0  0  0  0
  122.0964  108.4394  110.9952 N   0  0  0  0  0  0  0  0  0  0  0  0
  123.3792  105.9945  107.5362 O   0  0  0  0  0  0  0  0  0  0  0  0
  123.3835  110.6561  109.7868 O   0  0  0  0  0  0  0  0  0  0  0  0
  125.0782  104.4421  105.8632 H   0  0  0  0  0  0  0  0  0  0  0  0
  124.9815  103.1433  107.0673 H   0  0  0  0  0  0  0  0  0  0  0  0
  125.5038  104.6971  108.8604 H   0  0  0  0  0  0  0  0  0  0  0  0
  126.6016  105.2450  107.5773 H   0  0  0  0  0  0  0  0  0  0  0  0
  122.7290  104.4808  106.2708 H   0  0  0  0  0  0  0  0  0  0  0  0
  122.9328  104.0407  107.9809 H   0  0  0  0  0  0  0  0  0  0  0  0
  125.0515  106.9622  106.8545 H   0  0  0  0  0  0  0  0  0  0  0  0
  124.4720  106.7164  109.8414 H   0  0  0  0  0  0  0  0  0  0  0  0
  125.8997  107.5010  109.1619 H   0  0  0  0  0  0  0  0  0  0  0  0
  124.4431  109.1156  107.9416 H   0  0  0  0  0  0  0  0  0  0  0  0
  122.9982  108.3191  108.5822 H   0  0  0  0  0  0  0  0  0  0  0  0
  124.0139  107.8149  111.4762 H   0  0  0  0  0  0  0  0  0  0  0  0
  123.5321  109.3881  112.1438 H   0  0  0  0  0  0  0  0  0  0  0  0
  125.1501  109.7272  110.2585 H   0  0  0  0  0  0  0  0  0  0  0  0
  121.4703  108.3334  111.7725 H   0  0  0  0  0  0  0  0  0  0  0  0
  121.8332  108.1397  110.0741 H   0  0  0  0  0  0  0  0  0  0  0  0
  122.4731  110.3892  109.5881 H   0  0  0  0  0  0  0  0  0  0  0  0
  1  2  1  0  0  0  0
  1  3  1  0  0  0  0
  2  4  1  0  0  0  0
  3 10  1  0  0  0  0
  4  5  1  0  0  0  0
  4 10  1  0  0  0  0
  5  6  1  0  0  0  0
  6  8  1  0  0  0  0
  7  8  1  0  0  0  0
  7  9  1  0  0  0  0
  8 11  1  0  0  0  0
  1 12  1  0  0  0  0
  1 13  1  0  0  0  0
  2 14  1  0  0  0  0
  2 15  1  0  0  0  0
  3 16  1  0  0  0  0
  3 17  1  0  0  0  0
  4 18  1  0  0  0  0
  5 19  1  0  0  0  0
  5 20  1  0  0  0  0
  6 21  1  0  0  0  0
  6 22  1  0  0  0  0
  7 23  1  0  0  0  0
  7 24  1  0  0  0  0
  8 25  1  0  0  0  0
  9 26  1  0  0  0  0
  9 27  1  0  0  0  0
 11 28  1  0  0  0  0
M  END
> <FRED Chemgauss4 score>
-7.014633

$$$$
C85798269	P134352633
  -OEChem-05122015313D

 28 28  0     1  0  0  0  0  0999 V2000
  124.0199  107.9606  110.0778 C   0  0  0  0  0  0  0  0  0  0  0  0
  123.9104  109.3521  109.8953 C   0  0  0  0  0  0  0  0  0  0  0  0
  124.9551  107.5655  109.1527 C   0  0  0  0  0  0  0  0  0  0  0  0
  126.3017  108.8043  107.4303 C   0  0  0  0  0  0  0  0  0  0  0  0
  123.2297  104.4879  107.6115 C   0  0  0  0  0  0  0  0  0  0  0  0
  123.6240  105.7867  105.6291 C   0  0  0  0  0  0  0  0  0  0  0  0
  125.2625  105.7486  107.3860 C   0  0  0  0  0  0  0  0  0  0  0  0
  125.5251  106.1945  108.8329 C   0  0  1  0  0  0  0  0  0  0  0  0
  124.7120  109.8103  108.9301 N   0  0  0  0  0  0  0  0  0  0  0  0
  125.3342  108.7003  108.4980 N   0  0  0  0  0  0  0  0  0  0  0  0
  126.9665  106.1512  109.1069 N   0  0  0  0  0  0  0  0  0  0  0  0
  123.8342  105.7063  107.0740 N   0  0  0  0  0  0  0  0  0  0  0  0
  123.4929  107.3342  110.7827 H   0  0  0  0  0  0  0  0  0  0  0  0
  123.2797  110.0513  110.4254 H   0  0  0  0  0  0  0  0  0  0  0  0
  125.7726  108.6777  106.4821 H   0  0  0  0  0  0  0  0  0  0  0  0
  126.7845  109.7847  107.4707 H   0  0  0  0  0  0  0  0  0  0  0  0
  127.0603  108.0262  107.5529 H   0  0  0  0  0  0  0  0  0  0  0  0
  123.3902  104.4337  108.6914 H   0  0  0  0  0  0  0  0  0  0  0  0
  123.6771  103.6062  107.1445 H   0  0  0  0  0  0  0  0  0  0  0  0
  122.1543  104.4810  107.4148 H   0  0  0  0  0  0  0  0  0  0  0  0
  124.0779  106.6990  105.2336 H   0  0  0  0  0  0  0  0  0  0  0  0
  122.5543  105.7992  105.4029 H   0  0  0  0  0  0  0  0  0  0  0  0
  124.0771  104.9244  105.1326 H   0  0  0  0  0  0  0  0  0  0  0  0
  125.7126  106.4538  106.6780 H   0  0  0  0  0  0  0  0  0  0  0  0
  125.6736  104.7564  107.1718 H   0  0  0  0  0  0  0  0  0  0  0  0
  125.0538  105.4614  109.5006 H   0  0  0  0  0  0  0  0  0  0  0  0
  127.5014  105.4470  108.6542 H   0  0  0  0  0  0  0  0  0  0  0  0
  127.3066  106.6832  109.8740 H   0  0  0  0  0  0  0  0  0  0  0  0
  1  2  1  0  0  0  0
  1  3  2  0  0  0  0
  2  9  2  0  0  0  0
  3  8  1  0  0  0  0
  3 10  1  0  0  0  0
  4 10  1  0  0  0  0
  5 12  1  0  0  0  0
  6 12  1  0  0  0  0
  7  8  1  0  0  0  0
  7 12  1  0  0  0  0
  8 11  1  0  0  0  0
  9 10  1  0  0  0  0
  1 13  1  0  0  0  0
  2 14  1  0  0  0  0
  4 15  1  0  0  0  0
  4 16  1  0  0  0  0
  4 17  1  0  0  0  0
  5 18  1  0  0  0  0
  5 19  1  0  0  0  0
  5 20  1  0  0  0  0
  6 21  1  0  0  0  0
  6 22  1  0  0  0  0
  6 23  1  0  0  0  0
  7 24  1  0  0  0  0
  7 25  1  0  0  0  0
  8 26  1  0  0  0  0
 11 27  1  0  0  0  0
 11 28  1  0  0  0  0
M  END
> <FRED Chemgauss4 score>
-7.013556

$$$$
C04218922	P10279791
  -OEChem-05122015313D

 23 23  0     1  0  0  0  0  0999 V2000
  124.5538  108.7424  108.6499 C   0  0  0  0  0  0  0  0  0  0  0  0
  123.2353  109.3456  110.3977 C   0  0  0  0  0  0  0  0  0  0  0  0
  124.0147  107.4430  109.2300 C   0  0  2  0  0  0  0  0  0  0  0  0
  125.5560  103.5303  106.9051 C   0  0  0  0  0  0  0  0  0  0  0  0
  123.1985  106.6687  108.2160 C   0  0  0  0  0  0  0  0  0  0  0  0
  124.0858  105.8594  107.2819 C   0  0  0  0  0  0  0  0  0  0  0  0
  124.0531  109.7901  109.3835 N   0  0  0  0  0  0  0  0  0  0  0  0
  123.2055  107.9530  110.3103 N   0  0  0  0  0  0  0  0  0  0  0  0
  125.3041  108.8171  107.6867 O   0  0  0  0  0  0  0  0  0  0  0  0
  122.6496  110.0336  111.2223 O   0  0  0  0  0  0  0  0  0  0  0  0
  126.2435  105.3390  108.6625 O   0  0  0  0  0  0  0  0  0  0  0  0
  124.1690  103.9623  109.0781 O   0  0  0  0  0  0  0  0  0  0  0  0
  125.0490  104.6755  108.1676 S   0  0  0  0  0  0  0  0  0  0  0  0
  124.8309  106.8507  109.6529 H   0  0  0  0  0  0  0  0  0  0  0  0
  126.1648  102.7530  107.3695 H   0  0  0  0  0  0  0  0  0  0  0  0
  124.6619  103.0972  106.4539 H   0  0  0  0  0  0  0  0  0  0  0  0
  126.1357  104.0753  106.1586 H   0  0  0  0  0  0  0  0  0  0  0  0
  122.5820  107.3641  107.6311 H   0  0  0  0  0  0  0  0  0  0  0  0
  122.5021  105.9989  108.7377 H   0  0  0  0  0  0  0  0  0  0  0  0
  123.4903  105.3027  106.5522 H   0  0  0  0  0  0  0  0  0  0  0  0
  124.7888  106.5035  106.7452 H   0  0  0  0  0  0  0  0  0  0  0  0
  124.2603  110.7656  109.2028 H   0  0  0  0  0  0  0  0  0  0  0  0
  122.6975  107.3640  110.9627 H   0  0  0  0  0  0  0  0  0  0  0  0
  1  3  1  0  0  0  0
  1  7  1  0  0  0  0
  1  9  2  0  0  0  0
  2  7  1  0  0  0  0
  2  8  1  0  0  0  0
  2 10  2  0  0  0  0
  3  5  1  0  0  0  0
  3  8  1  0  0  0  0
  4 13  1  0  0  0  0
  5  6  1  0  0  0  0
  6 13  1  0  0  0  0
 11 13  2  0  0  0  0
 12 13  2  0  0  0  0
  3 14  1  0  0  0  0
  4 15  1  0  0  0  0
  4 16  1  0  0  0  0
  4 17  1  0  0  0  0
  5 18  1  0  0  0  0
  5 19  1  0  0  0  0
  6 20  1  0  0  0  0
  6 21  1  0  0  0  0
  7 22  1  0  0  0  0
  8 23  1  0  0  0  0
M  END
> <FRED Chemgauss4 score>
-7.012021

$$$$
C49691658	P74238157
  -OEChem-05122015313D

 28 28  0     1  0  0  0  0  0999 V2000
  123.3958  109.0327  107.0014 C   0  0  0  0  0  0  0  0  0  0  0  0
  125.5855  108.7436  108.0284 C   0  0  0  0  0  0  0  0  0  0  0  0
  123.2274  107.5576  106.6493 C   0  0  0  0  0  0  0  0  0  0  0  0
  125.6412  107.2389  107.7816 C   0  0  0  0  0  0  0  0  0  0  0  0
  123.5982  108.9211  109.4268 C   0  0  0  0  0  0  0  0  0  0  0  0
  123.4895  109.2698  111.9491 C   0  0  0  0  0  0  0  0  0  0  0  0
  124.1689  109.6621  110.6368 C   0  0  2  0  0  0  0  0  0  0  0  0
  124.2376  109.3052  108.1717 N   0  0  0  0  0  0  0  0  0  0  0  0
  124.0791  110.0011  113.0490 N   0  0  0  0  0  0  0  0  0  0  0  0
  125.4384  107.5414  105.1151 O   0  0  0  0  0  0  0  0  0  0  0  0
  124.0170  111.0686  110.4454 O   0  0  0  0  0  0  0  0  0  0  0  0
  124.8102  106.7687  106.2368 S   0  0  0  0  0  0  0  0  0  0  0  0
  123.7719  109.5916  106.1145 H   0  0  0  0  0  0  0  0  0  0  0  0
  122.3788  109.4390  107.1891 H   0  0  0  0  0  0  0  0  0  0  0  0
  126.1567  108.9405  108.9607 H   0  0  0  0  0  0  0  0  0  0  0  0
  126.1452  109.2781  107.2274 H   0  0  0  0  0  0  0  0  0  0  0  0
  122.7559  107.0008  107.4751 H   0  0  0  0  0  0  0  0  0  0  0  0
  122.5724  107.4526  105.7714 H   0  0  0  0  0  0  0  0  0  0  0  0
  126.6882  106.9090  107.7021 H   0  0  0  0  0  0  0  0  0  0  0  0
  125.1867  106.6800  108.6154 H   0  0  0  0  0  0  0  0  0  0  0  0
  123.7206  107.8392  109.5392 H   0  0  0  0  0  0  0  0  0  0  0  0
  122.5318  109.1399  109.3112 H   0  0  0  0  0  0  0  0  0  0  0  0
  123.6057  108.1996  112.1490 H   0  0  0  0  0  0  0  0  0  0  0  0
  122.4202  109.5019  111.9111 H   0  0  0  0  0  0  0  0  0  0  0  0
  125.2447  109.4574  110.6993 H   0  0  0  0  0  0  0  0  0  0  0  0
  125.0696  110.1624  113.0459 H   0  0  0  0  0  0  0  0  0  0  0  0
  123.5326  110.1508  113.8774 H   0  0  0  0  0  0  0  0  0  0  0  0
  124.5073  111.2898  109.6393 H   0  0  0  0  0  0  0  0  0  0  0  0
  1  3  1  0  0  0  0
  1  8  1  0  0  0  0
  2  4  1  0  0  0  0
  2  8  1  0  0  0  0
  3 12  1  0  0  0  0
  4 12  1  0  0  0  0
  5  7  1  0  0  0  0
  5  8  1  0  0  0  0
  6  7  1  0  0  0  0
  6  9  1  0  0  0  0
  7 11  1  0  0  0  0
 10 12  2  0  0  0  0
  1 13  1  0  0  0  0
  1 14  1  0  0  0  0
  2 15  1  0  0  0  0
  2 16  1  0  0  0  0
  3 17  1  0  0  0  0
  3 18  1  0  0  0  0
  4 19  1  0  0  0  0
  4 20  1  0  0  0  0
  5 21  1  0  0  0  0
  5 22  1  0  0  0  0
  6 23  1  0  0  0  0
  6 24  1  0  0  0  0
  7 25  1  0  0  0  0
  9 26  1  0  0  0  0
  9 27  1  0  0  0  0
 11 28  1  0  0  0  0
M  END
> <FRED Chemgauss4 score>
-7.008325

$$$$
C16382953	P24774798
  -OEChem-05122015313D

 13 13  0     0  0  0  0  0  0999 V2000
  126.1137  106.2875  107.4196 C   0  0  0  0  0  0  0  0  0  0  0  0
  125.1706  106.3911  108.5657 C   0  0  0  0  0  0  0  0  0  0  0  0
  125.1768  108.7981  108.0993 C   0  0  0  0  0  0  0  0  0  0  0  0
  126.5168  107.2983  106.7286 N   0  0  0  0  0  0  0  0  0  0  0  0
  126.0554  108.5247  107.0646 N   0  0  0  0  0  0  0  0  0  0  0  0
  124.7645  107.6826  108.8221 N   0  0  0  0  0  0  0  0  0  0  0  0
  123.8797  107.8705  109.8796 N   0  0  0  0  0  0  0  0  0  0  0  0
  124.8644  105.3577  109.1410 O   0  0  0  0  0  0  0  0  0  0  0  0
  124.8073  109.9510  108.3365 O   0  0  0  0  0  0  0  0  0  0  0  0
  126.4620  105.2699  107.1827 H   0  0  0  0  0  0  0  0  0  0  0  0
  126.3808  109.3110  106.5114 H   0  0  0  0  0  0  0  0  0  0  0  0
  123.2556  107.0587  109.9805 H   0  0  0  0  0  0  0  0  0  0  0  0
  123.2501  108.6612  109.6882 H   0  0  0  0  0  0  0  0  0  0  0  0
  1  2  1  0  0  0  0
  1  4  2  0  0  0  0
  2  6  1  0  0  0  0
  2  8  2  0  0  0  0
  3  5  1  0  0  0  0
  3  6  1  0  0  0  0
  3  9  2  0  0  0  0
  4  5  1  0  0  0  0
  6  7  1  0  0  0  0
  1 10  1  0  0  0  0
  5 11  1  0  0  0  0
  7 12  1  0  0  0  0
  7 13  1  0  0  0  0
M  END
> <FRED Chemgauss4 score>
-7.004940

$$$$
C58851774	P89082394
  -OEChem-05122015313D

 23 23  0     0  0  0  0  0  0999 V2000
  122.9122  104.6630  106.4643 C   0  0  0  0  0  0  0  0  0  0  0  0
  124.8040  103.9895  107.0341 C   0  0  0  0  0  0  0  0  0  0  0  0
  125.5646  107.6949  106.8636 C   0  0  0  0  0  0  0  0  0  0  0  0
  121.5042  104.6357  106.0510 C   0  0  0  0  0  0  0  0  0  0  0  0
  125.9989  103.2098  107.4035 C   0  0  0  0  0  0  0  0  0  0  0  0
  125.8655  106.2794  107.3082 C   0  0  0  0  0  0  0  0  0  0  0  0
  123.6256  103.5215  106.6936 N   0  0  0  0  0  0  0  0  0  0  0  0
  123.5750  105.8079  106.6415 N   0  0  0  0  0  0  0  0  0  0  0  0
  124.7821  105.3491  107.0055 N   0  0  0  0  0  0  0  0  0  0  0  0
  126.0090  109.9656  107.4329 N   0  0  0  0  0  0  0  0  0  0  0  0
  126.1812  108.6208  107.6885 N   0  0  0  0  0  0  0  0  0  0  0  0
  124.8567  107.9626  105.8958 O   0  0  0  0  0  0  0  0  0  0  0  0
  120.8251  104.6451  106.9232 H   0  0  0  0  0  0  0  0  0  0  0  0
  121.2338  105.5003  105.4155 H   0  0  0  0  0  0  0  0  0  0  0  0
  121.2572  103.7381  105.4526 H   0  0  0  0  0  0  0  0  0  0  0  0
  126.6151  102.9795  106.5181 H   0  0  0  0  0  0  0  0  0  0  0  0
  126.6395  103.7470  108.1248 H   0  0  0  0  0  0  0  0  0  0  0  0
  125.7374  102.2515  107.8861 H   0  0  0  0  0  0  0  0  0  0  0  0
  126.7720  105.9151  106.8116 H   0  0  0  0  0  0  0  0  0  0  0  0
  126.0387  106.2625  108.3901 H   0  0  0  0  0  0  0  0  0  0  0  0
  126.8762  110.4304  107.6989 H   0  0  0  0  0  0  0  0  0  0  0  0
  125.9343  110.0673  106.4215 H   0  0  0  0  0  0  0  0  0  0  0  0
  126.7586  108.3516  108.4789 H   0  0  0  0  0  0  0  0  0  0  0  0
  1  4  1  0  0  0  0
  1  7  1  0  0  0  0
  1  8  2  0  0  0  0
  2  5  1  0  0  0  0
  2  7  2  0  0  0  0
  2  9  1  0  0  0  0
  3  6  1  0  0  0  0
  3 11  1  0  0  0  0
  3 12  2  0  0  0  0
  6  9  1  0  0  0  0
  8  9  1  0  0  0  0
 10 11  1  0  0  0  0
  4 13  1  0  0  0  0
  4 14  1  0  0  0  0
  4 15  1  0  0  0  0
  5 16  1  0  0  0  0
  5 17  1  0  0  0  0
  5 18  1  0  0  0  0
  6 19  1  0  0  0  0
  6 20  1  0  0  0  0
 10 21  1  0  0  0  0
 10 22  1  0  0  0  0
 11 23  1  0  0  0  0
M  END
> <FRED Chemgauss4 score>
-6.991064

$$$$
C71484901	P110638633
  -OEChem-05122015313D

 20 20  0     1  0  0  0  0  0999 V2000
  122.4352  105.8933  106.9866 C   0  0  0  0  0  0  0  0  0  0  0  0
  122.9919  104.7556  106.4409 C   0  0  0  0  0  0  0  0  0  0  0  0
  124.4398  106.0547  107.8617 C   0  0  0  0  0  0  0  0  0  0  0  0
  125.6138  106.5752  108.6581 C   0  0  0  0  0  0  0  0  0  0  0  0
  126.7960  108.1483  107.0282 C   0  0  0  0  0  0  0  0  0  0  0  0
  126.8486  106.8142  107.7780 C   0  0  1  0  0  0  0  0  0  0  0  0
  123.2638  106.6393  107.8020 N   0  0  0  0  0  0  0  0  0  0  0  0
  125.9639  108.0563  105.8504 N   0  0  0  0  0  0  0  0  0  0  0  0
  128.0190  106.7832  108.5950 O   0  0  0  0  0  0  0  0  0  0  0  0
  124.6191  104.6048  106.9614 S   0  0  0  0  0  0  0  0  0  0  0  0
  121.4200  106.2276  106.8199 H   0  0  0  0  0  0  0  0  0  0  0  0
  122.5359  104.0312  105.7812 H   0  0  0  0  0  0  0  0  0  0  0  0
  125.3129  107.5027  109.1618 H   0  0  0  0  0  0  0  0  0  0  0  0
  125.8441  105.8496  109.4485 H   0  0  0  0  0  0  0  0  0  0  0  0
  127.8037  108.4396  106.7130 H   0  0  0  0  0  0  0  0  0  0  0  0
  126.4083  108.9361  107.6823 H   0  0  0  0  0  0  0  0  0  0  0  0
  126.9466  106.0076  107.0412 H   0  0  0  0  0  0  0  0  0  0  0  0
  125.9812  107.2102  105.3099 H   0  0  0  0  0  0  0  0  0  0  0  0
  125.5488  108.8943  105.4841 H   0  0  0  0  0  0  0  0  0  0  0  0
  128.0451  105.9043  109.0024 H   0  0  0  0  0  0  0  0  0  0  0  0
  1  2  2  0  0  0  0
  1  7  1  0  0  0  0
  2 10  1  0  0  0  0
  3  4  1  0  0  0  0
  3  7  2  0  0  0  0
  3 10  1  0  0  0  0
  4  6  1  0  0  0  0
  5  6  1  0  0  0  0
  5  8  1  0  0  0  0
  6  9  1  0  0  0  0
  1 11  1  0  0  0  0
  2 12  1  0  0  0  0
  4 13  1  0  0  0  0
  4 14  1  0  0  0  0
  5 15  1  0  0  0  0
  5 16  1  0  0  0  0
  6 17  1  0  0  0  0
  8 18  1  0  0  0  0
  8 19  1  0  0  0  0
  9 20  1  0  0  0  0
M  END
> <FRED Chemgauss4 score>
-6.989402

$$$$
C02508339	P22788107
  -OEChem-05122015313D

 21 22  0     1  0  0  0  0  0999 V2000
  125.5761  104.8820  107.4117 C   0  0  0  0  0  0  0  0  0  0  0  0
  124.2546  105.6119  107.2787 C   0  0  2  0  0  0  0  0  0  0  0  0
  124.1970  106.6001  106.0975 C   0  0  2  0  0  0  0  0  0  0  0  0
  125.3661  107.6006  106.1252 C   0  0  2  0  0  0  0  0  0  0  0  0
  125.6532  108.0747  107.5587 C   0  0  1  0  0  0  0  0  0  0  0  0
  125.5980  106.8789  108.5173 C   0  0  2  0  0  0  0  0  0  0  0  0
  126.4599  105.8370  108.0238 O   0  0  0  0  0  0  0  0  0  0  0  0
  124.2555  106.3790  108.4942 O   0  0  0  0  0  0  0  0  0  0  0  0
  122.9522  107.2965  106.1946 O   0  0  0  0  0  0  0  0  0  0  0  0
  125.0843  108.7079  105.2766 O   0  0  0  0  0  0  0  0  0  0  0  0
  126.9434  108.6736  107.5962 O   0  0  0  0  0  0  0  0  0  0  0  0
  125.4904  104.0359  108.1016 H   0  0  0  0  0  0  0  0  0  0  0  0
  125.9885  104.5307  106.4622 H   0  0  0  0  0  0  0  0  0  0  0  0
  123.3905  104.9408  107.2721 H   0  0  0  0  0  0  0  0  0  0  0  0
  124.1899  106.0604  105.1441 H   0  0  0  0  0  0  0  0  0  0  0  0
  126.2619  107.1170  105.7156 H   0  0  0  0  0  0  0  0  0  0  0  0
  124.9215  108.8380  107.8491 H   0  0  0  0  0  0  0  0  0  0  0  0
  125.8952  107.1483  109.5353 H   0  0  0  0  0  0  0  0  0  0  0  0
  122.2588  106.6225  106.1406 H   0  0  0  0  0  0  0  0  0  0  0  0
  124.9637  108.3498  104.3829 H   0  0  0  0  0  0  0  0  0  0  0  0
  127.0910  108.9599  108.5116 H   0  0  0  0  0  0  0  0  0  0  0  0
  1  2  1  0  0  0  0
  1  7  1  0  0  0  0
  2  3  1  0  0  0  0
  2  8  1  0  0  0  0
  3  4  1  0  0  0  0
  3  9  1  0  0  0  0
  4  5  1  0  0  0  0
  4 10  1  0  0  0  0
  5  6  1  0  0  0  0
  5 11  1  0  0  0  0
  6  7  1  0  0  0  0
  6  8  1  0  0  0  0
  1 12  1  0  0  0  0
  1 13  1  0  0  0  0
  2 14  1  0  0  0  0
  3 15  1  0  0  0  0
  4 16  1  0  0  0  0
  5 17  1  0  0  0  0
  6 18  1  0  0  0  0
  9 19  1  0  0  0  0
 10 20  1  0  0  0  0
 11 21  1  0  0  0  0
M  END
> <FRED Chemgauss4 score>
-6.987045

$$$$
L-Serine	P10000025
  -OEChem-05122015313D

 14 13  0     1  0  0  0  0  0999 V2000
  125.0435  107.6842  106.7111 C   0  0  0  0  0  0  0  0  0  0  0  0
  124.8321  109.3241  108.7090 C   0  0  0  0  0  0  0  0  0  0  0  0
  125.6153  108.1962  108.0444 C   0  0  2  0  0  0  0  0  0  0  0  0
  127.0443  108.6321  107.9387 N   0  3  0  0  0  0  0  0  0  0  0  0
  124.9252  108.5370  105.7881 O   0  5  0  0  0  0  0  0  0  0  0  0
  124.7383  106.4564  106.7054 O   0  0  0  0  0  0  0  0  0  0  0  0
  123.4615  108.9661  108.8371 O   0  0  0  0  0  0  0  0  0  0  0  0
  124.8933  110.2434  108.1161 H   0  0  0  0  0  0  0  0  0  0  0  0
  125.2265  109.5377  109.7080 H   0  0  0  0  0  0  0  0  0  0  0  0
  125.6310  107.3373  108.7267 H   0  0  0  0  0  0  0  0  0  0  0  0
  127.1273  109.4140  107.2881 H   0  0  0  0  0  0  0  0  0  0  0  0
  127.6233  107.8622  107.6012 H   0  0  0  0  0  0  0  0  0  0  0  0
  127.3914  108.9274  108.8520 H   0  0  0  0  0  0  0  0  0  0  0  0
  123.4323  108.1652  109.3846 H   0  0  0  0  0  0  0  0  0  0  0  0
  1  3  1  0  0  0  0
  1  5  1  0  0  0  0
  1  6  2  0  0  0  0
  2  3  1  0  0  0  0
  2  7  1  0  0  0  0
  3  4  1  0  0  0  0
  2  8  1  0  0  0  0
  2  9  1  0  0  0  0
  3 10  1  0  0  0  0
  4 11  1  0  0  0  0
  4 12  1  0  0  0  0
  4 13  1  0  0  0  0
  7 14  1  0  0  0  0
M  CHG  2   4   1   5  -1
M  END
> <FRED Chemgauss4 score>
-6.981611

$$$$
C84386632	P132041144
  -OEChem-05122015313D

 22 22  0     1  0  0  0  0  0999 V2000
  120.9871  107.1859  107.1397 C   0  0  0  0  0  0  0  0  0  0  0  0
  121.9237  106.7848  106.5046 C   0  0  0  0  0  0  0  0  0  0  0  0
  124.5265  105.0937  107.2815 C   0  0  0  0  0  0  0  0  0  0  0  0
  125.0981  107.4122  106.4707 C   0  0  0  0  0  0  0  0  0  0  0  0
  125.7880  105.1026  108.1116 C   0  0  0  0  0  0  0  0  0  0  0  0
  126.1487  106.5026  108.5591 C   0  0  0  0  0  0  0  0  0  0  0  0
  126.3538  107.3642  107.3258 C   0  0  2  0  0  0  0  0  0  0  0  0
  123.0635  106.2954  105.7252 C   0  0  0  0  0  0  0  0  0  0  0  0
  124.2721  106.2664  106.5426 N   0  0  0  0  0  0  0  0  0  0  0  0
  126.6788  108.7298  107.7323 N   0  0  0  0  0  0  0  0  0  0  0  0
  123.8312  104.0762  107.2431 O   0  0  0  0  0  0  0  0  0  0  0  0
  124.8691  108.3705  105.7278 O   0  0  0  0  0  0  0  0  0  0  0  0
  120.1566  107.5420  107.7032 H   0  0  0  0  0  0  0  0  0  0  0  0
  125.6270  104.4689  108.9908 H   0  0  0  0  0  0  0  0  0  0  0  0
  126.5929  104.6580  107.5155 H   0  0  0  0  0  0  0  0  0  0  0  0
  125.3463  106.9084  109.1897 H   0  0  0  0  0  0  0  0  0  0  0  0
  127.0607  106.4708  109.1671 H   0  0  0  0  0  0  0  0  0  0  0  0
  127.1661  106.9651  106.7069 H   0  0  0  0  0  0  0  0  0  0  0  0
  123.2345  106.9387  104.8565 H   0  0  0  0  0  0  0  0  0  0  0  0
  122.8578  105.2873  105.3516 H   0  0  0  0  0  0  0  0  0  0  0  0
  126.4768  109.4684  107.0948 H   0  0  0  0  0  0  0  0  0  0  0  0
  127.2665  108.8539  108.5275 H   0  0  0  0  0  0  0  0  0  0  0  0
  1  2  3  0  0  0  0
  2  8  1  0  0  0  0
  3  5  1  0  0  0  0
  3  9  1  0  0  0  0
  3 11  2  0  0  0  0
  4  7  1  0  0  0  0
  4  9  1  0  0  0  0
  4 12  2  0  0  0  0
  5  6  1  0  0  0  0
  6  7  1  0  0  0  0
  7 10  1  0  0  0  0
  8  9  1  0  0  0  0
  1 13  1  0  0  0  0
  5 14  1  0  0  0  0
  5 15  1  0  0  0  0
  6 16  1  0  0  0  0
  6 17  1  0  0  0  0
  7 18  1  0  0  0  0
  8 19  1  0  0  0  0
  8 20  1  0  0  0  0
 10 21  1  0  0  0  0
 10 22  1  0  0  0  0
M  END
> <FRED Chemgauss4 score>
-6.976516

$$$$
C82987727	P129755431
  -OEChem-05122015313D

 28 27  0     1  0  0  0  0  0999 V2000
  125.2717  104.2088  108.4445 C   0  0  0  0  0  0  0  0  0  0  0  0
  120.4846  106.7205  105.0302 C   0  0  0  0  0  0  0  0  0  0  0  0
  122.7283  106.3216  105.6040 C   0  0  0  0  0  0  0  0  0  0  0  0
  123.9346  106.9332  106.2902 C   0  0  0  0  0  0  0  0  0  0  0  0
  126.2092  107.8312  107.2429 C   0  0  0  0  0  0  0  0  0  0  0  0
  125.5272  105.7142  108.5682 C   0  0  2  0  0  0  0  0  0  0  0  0
  125.9990  106.3145  107.2273 C   0  0  1  0  0  0  0  0  0  0  0  0
  126.5161  105.9311  109.6243 N   0  0  0  0  0  0  0  0  0  0  0  0
  126.6508  108.2812  105.9680 O   0  0  0  0  0  0  0  0  0  0  0  0
  121.6397  107.2341  105.6787 O   0  0  0  0  0  0  0  0  0  0  0  0
  125.0136  106.0154  106.2336 O   0  0  0  0  0  0  0  0  0  0  0  0
  126.1818  103.6769  108.1479 H   0  0  0  0  0  0  0  0  0  0  0  0
  124.9250  103.7822  109.3924 H   0  0  0  0  0  0  0  0  0  0  0  0
  124.5119  104.0004  107.6826 H   0  0  0  0  0  0  0  0  0  0  0  0
  119.6703  107.4453  105.1068 H   0  0  0  0  0  0  0  0  0  0  0  0
  120.1921  105.7771  105.4981 H   0  0  0  0  0  0  0  0  0  0  0  0
  120.7162  106.5461  103.9768 H   0  0  0  0  0  0  0  0  0  0  0  0
  122.4265  105.3903  106.0929 H   0  0  0  0  0  0  0  0  0  0  0  0
  122.9440  106.1311  104.5487 H   0  0  0  0  0  0  0  0  0  0  0  0
  123.7237  107.1469  107.3427 H   0  0  0  0  0  0  0  0  0  0  0  0
  124.2394  107.8523  105.7813 H   0  0  0  0  0  0  0  0  0  0  0  0
  125.2829  108.3564  107.4946 H   0  0  0  0  0  0  0  0  0  0  0  0
  126.9757  108.1049  107.9756 H   0  0  0  0  0  0  0  0  0  0  0  0
  124.5799  106.1802  108.8660 H   0  0  0  0  0  0  0  0  0  0  0  0
  126.9312  105.8311  106.9097 H   0  0  0  0  0  0  0  0  0  0  0  0
  126.5154  105.3062  110.3995 H   0  0  0  0  0  0  0  0  0  0  0  0
  127.0075  106.7971  109.6322 H   0  0  0  0  0  0  0  0  0  0  0  0
  126.7667  109.2424  106.0360 H   0  0  0  0  0  0  0  0  0  0  0  0
  1  6  1  0  0  0  0
  2 10  1  0  0  0  0
  3  4  1  0  0  0  0
  3 10  1  0  0  0  0
  4 11  1  0  0  0  0
  5  7  1  0  0  0  0
  5  9  1  0  0  0  0
  6  7  1  0  0  0  0
  6  8  1  0  0  0  0
  7 11  1  0  0  0  0
  1 12  1  0  0  0  0
  1 13  1  0  0  0  0
  1 14  1  0  0  0  0
  2 15  1  0  0  0  0
  2 16  1  0  0  0  0
  2 17  1  0  0  0  0
  3 18  1  0  0  0  0
  3 19  1  0  0  0  0
  4 20  1  0  0  0  0
  4 21  1  0  0  0  0
  5 22  1  0  0  0  0
  5 23  1  0  0  0  0
  6 24  1  0  0  0  0
  7 25  1  0  0  0  0
  8 26  1  0  0  0  0
  8 27  1  0  0  0  0
  9 28  1  0  0  0  0
M  END
> <FRED Chemgauss4 score>
-6.966112

$$$$
C38124694	P57326764
  -OEChem-05122015313D

 21 21  0     1  0  0  0  0  0999 V2000
  124.7803  108.9527  108.0761 C   0  0  0  0  0  0  0  0  0  0  0  0
  123.8943  107.8015  109.7268 C   0  0  0  0  0  0  0  0  0  0  0  0
  124.5333  107.6404  108.5217 C   0  0  0  0  0  0  0  0  0  0  0  0
  123.2025  109.8093  111.0569 C   0  0  0  0  0  0  0  0  0  0  0  0
  125.8129  105.4622  108.6747 C   0  0  0  0  0  0  0  0  0  0  0  0
  124.8884  106.3422  107.8293 C   0  0  1  0  0  0  0  0  0  0  0  0
  124.3343  109.8792  108.9285 N   0  0  0  0  0  0  0  0  0  0  0  0
  123.8007  109.1481  109.9219 N   0  0  0  0  0  0  0  0  0  0  0  0
  123.6933  105.6165  107.4553 N   0  0  0  0  0  0  0  0  0  0  0  0
  127.0064  106.1815  108.9677 O   0  0  0  0  0  0  0  0  0  0  0  0
  125.2656  109.2750  107.1657 H   0  0  0  0  0  0  0  0  0  0  0  0
  123.5067  107.0904  110.4436 H   0  0  0  0  0  0  0  0  0  0  0  0
  123.9810  109.9569  111.8100 H   0  0  0  0  0  0  0  0  0  0  0  0
  122.7884  110.7710  110.7414 H   0  0  0  0  0  0  0  0  0  0  0  0
  122.3971  109.1859  111.4550 H   0  0  0  0  0  0  0  0  0  0  0  0
  125.3408  105.2014  109.6282 H   0  0  0  0  0  0  0  0  0  0  0  0
  126.0874  104.5380  108.1545 H   0  0  0  0  0  0  0  0  0  0  0  0
  125.3926  106.5612  106.8795 H   0  0  0  0  0  0  0  0  0  0  0  0
  123.7605  104.6292  107.2910 H   0  0  0  0  0  0  0  0  0  0  0  0
  122.8828  106.1356  107.1725 H   0  0  0  0  0  0  0  0  0  0  0  0
  127.5617  105.5918  109.5017 H   0  0  0  0  0  0  0  0  0  0  0  0
  1  3  1  0  0  0  0
  1  7  2  0  0  0  0
  2  3  2  0  0  0  0
  2  8  1  0  0  0  0
  3  6  1  0  0  0  0
  4  8  1  0  0  0  0
  5  6  1  0  0  0  0
  5 10  1  0  0  0  0
  6  9  1  0  0  0  0
  7  8  1  0  0  0  0
  1 11  1  0  0  0  0
  2 12  1  0  0  0  0
  4 13  1  0  0  0  0
  4 14  1  0  0  0  0
  4 15  1  0  0  0  0
  5 16  1  0  0  0  0
  5 17  1  0  0  0  0
  6 18  1  0  0  0  0
  9 19  1  0  0  0  0
  9 20  1  0  0  0  0
 10 21  1  0  0  0  0
M  END
> <FRED Chemgauss4 score>
-6.963361

$$$$
C82915748	P129631253
  -OEChem-05122015313D

 24 24  0     1  0  0  0  0  0999 V2000
  125.1398  104.1949  107.0791 C   0  0  0  0  0  0  0  0  0  0  0  0
  125.4513  104.3610  108.4419 C   0  0  0  0  0  0  0  0  0  0  0  0
  125.3466  105.4350  106.5260 C   0  0  0  0  0  0  0  0  0  0  0  0
  123.7213  108.4247  107.1359 C   0  0  0  0  0  0  0  0  0  0  0  0
  126.1102  107.7036  107.4556 C   0  0  0  0  0  0  0  0  0  0  0  0
  124.7430  108.6581  109.4481 C   0  0  0  0  0  0  0  0  0  0  0  0
  125.0114  108.6888  107.9292 C   0  0  2  0  0  0  0  0  0  0  0  0
  125.8276  105.6082  108.7365 N   0  0  0  0  0  0  0  0  0  0  0  0
  125.7539  106.2371  107.5511 N   0  0  0  0  0  0  0  0  0  0  0  0
  123.7261  109.6044  109.8895 N   0  0  0  0  0  0  0  0  0  0  0  0
  125.4163  110.0293  107.6175 O   0  0  0  0  0  0  0  0  0  0  0  0
  124.8112  103.3013  106.5696 H   0  0  0  0  0  0  0  0  0  0  0  0
  125.4198  103.6237  109.2312 H   0  0  0  0  0  0  0  0  0  0  0  0
  125.2398  105.8038  105.5152 H   0  0  0  0  0  0  0  0  0  0  0  0
  122.9245  109.1085  107.4504 H   0  0  0  0  0  0  0  0  0  0  0  0
  123.8690  108.5338  106.0572 H   0  0  0  0  0  0  0  0  0  0  0  0
  123.3481  107.4114  107.3259 H   0  0  0  0  0  0  0  0  0  0  0  0
  127.0380  107.8821  108.0152 H   0  0  0  0  0  0  0  0  0  0  0  0
  126.3581  107.9093  106.4047 H   0  0  0  0  0  0  0  0  0  0  0  0
  125.6728  108.8481  109.9973 H   0  0  0  0  0  0  0  0  0  0  0  0
  124.4410  107.6455  109.7451 H   0  0  0  0  0  0  0  0  0  0  0  0
  123.7164  110.5134  109.4768 H   0  0  0  0  0  0  0  0  0  0  0  0
  123.2121  109.3920  110.7186 H   0  0  0  0  0  0  0  0  0  0  0  0
  125.5600  110.0492  106.6613 H   0  0  0  0  0  0  0  0  0  0  0  0
  1  2  1  0  0  0  0
  1  3  2  0  0  0  0
  2  8  2  0  0  0  0
  3  9  1  0  0  0  0
  4  7  1  0  0  0  0
  5  7  1  0  0  0  0
  5  9  1  0  0  0  0
  6  7  1  0  0  0  0
  6 10  1  0  0  0  0
  7 11  1  0  0  0  0
  8  9  1  0  0  0  0
  1 12  1  0  0  0  0
  2 13  1  0  0  0  0
  3 14  1  0  0  0  0
  4 15  1  0  0  0  0
  4 16  1  0  0  0  0
  4 17  1  0  0  0  0
  5 18  1  0  0  0  0
  5 19  1  0  0  0  0
  6 20  1  0  0  0  0
  6 21  1  0  0  0  0
 10 22  1  0  0  0  0
 10 23  1  0  0  0  0
 11 24  1  0  0  0  0
M  END
> <FRED Chemgauss4 score>
-6.954111

$$$$
C85086716	P133135802
  -OEChem-05122015313D

 21 21  0     0  0  0  0  0  0999 V2000
  125.2677  105.7858  107.7612 C   0  0  0  0  0  0  0  0  0  0  0  0
  124.3717  107.2510  105.9643 C   0  0  0  0  0  0  0  0  0  0  0  0
  124.1387  104.8281  107.4714 C   0  0  0  0  0  0  0  0  0  0  0  0
  123.2807  106.2303  105.7515 C   0  0  0  0  0  0  0  0  0  0  0  0
  126.3771  107.8949  107.2276 C   0  0  0  0  0  0  0  0  0  0  0  0
  125.9703  108.8689  108.3182 C   0  0  0  0  0  0  0  0  0  0  0  0
  122.9776  105.5718  107.0114 N   0  0  0  0  0  0  0  0  0  0  0  0
  125.2908  106.9537  106.9823 N   0  0  0  0  0  0  0  0  0  0  0  0
  126.1269  105.4884  108.5941 O   0  0  0  0  0  0  0  0  0  0  0  0
  124.4427  108.2327  105.2220 O   0  0  0  0  0  0  0  0  0  0  0  0
  124.8318  109.6065  107.8919 O   0  0  0  0  0  0  0  0  0  0  0  0
  124.4703  104.0833  106.7397 H   0  0  0  0  0  0  0  0  0  0  0  0
  123.8838  104.3089  108.4012 H   0  0  0  0  0  0  0  0  0  0  0  0
  122.3860  106.7549  105.3999 H   0  0  0  0  0  0  0  0  0  0  0  0
  123.5914  105.5203  104.9773 H   0  0  0  0  0  0  0  0  0  0  0  0
  126.5967  108.4170  106.2909 H   0  0  0  0  0  0  0  0  0  0  0  0
  127.2591  107.3252  107.5354 H   0  0  0  0  0  0  0  0  0  0  0  0
  126.7811  109.5790  108.5080 H   0  0  0  0  0  0  0  0  0  0  0  0
  125.7247  108.3499  109.2504 H   0  0  0  0  0  0  0  0  0  0  0  0
  122.2020  104.9248  106.8709 H   0  0  0  0  0  0  0  0  0  0  0  0
  124.6059  110.2142  108.6144 H   0  0  0  0  0  0  0  0  0  0  0  0
  1  3  1  0  0  0  0
  1  8  1  0  0  0  0
  1  9  2  0  0  0  0
  2  4  1  0  0  0  0
  2  8  1  0  0  0  0
  2 10  2  0  0  0  0
  3  7  1  0  0  0  0
  4  7  1  0  0  0  0
  5  6  1  0  0  0  0
  5  8  1  0  0  0  0
  6 11  1  0  0  0  0
  3 12  1  0  0  0  0
  3 13  1  0  0  0  0
  4 14  1  0  0  0  0
  4 15  1  0  0  0  0
  5 16  1  0  0  0  0
  5 17  1  0  0  0  0
  6 18  1  0  0  0  0
  6 19  1  0  0  0  0
  7 20  1  0  0  0  0
 11 21  1  0  0  0  0
M  END
> <FRED Chemgauss4 score>
-6.950644

$$$$
C19168263	P28303153
  -OEChem-05122015313D

 20 20  0     1  0  0  0  0  0999 V2000
  124.5630  105.8170  106.6163 C   0  0  0  0  0  0  0  0  0  0  0  0
  125.9203  107.8611  107.6560 C   0  0  0  0  0  0  0  0  0  0  0  0
  125.1866  105.5488  107.9834 C   0  0  2  0  0  0  0  0  0  0  0  0
  126.4012  106.4780  108.0895 C   0  0  2  0  0  0  0  0  0  0  0  0
  126.1424  103.9672  109.3905 N   0  0  0  0  0  0  0  0  0  0  0  0
  125.5912  104.1667  108.0909 N   0  0  0  0  0  0  0  0  0  0  0  0
  125.3607  107.8027  105.0813 O   0  0  0  0  0  0  0  0  0  0  0  0
  123.4815  108.2178  106.7348 O   0  0  0  0  0  0  0  0  0  0  0  0
  126.8619  106.5222  109.4315 O   0  0  0  0  0  0  0  0  0  0  0  0
  124.7256  107.5766  106.3628 S   0  0  0  0  0  0  0  0  0  0  0  0
  125.0398  105.2811  105.7941 H   0  0  0  0  0  0  0  0  0  0  0  0
  123.4944  105.5875  106.6282 H   0  0  0  0  0  0  0  0  0  0  0  0
  125.4395  108.4217  108.4637 H   0  0  0  0  0  0  0  0  0  0  0  0
  126.7386  108.4466  107.2228 H   0  0  0  0  0  0  0  0  0  0  0  0
  124.4505  105.7714  108.7655 H   0  0  0  0  0  0  0  0  0  0  0  0
  127.2385  106.1442  107.4627 H   0  0  0  0  0  0  0  0  0  0  0  0
  127.1210  103.6927  109.3079 H   0  0  0  0  0  0  0  0  0  0  0  0
  126.1443  104.8599  109.8822 H   0  0  0  0  0  0  0  0  0  0  0  0
  124.7760  103.5697  107.9734 H   0  0  0  0  0  0  0  0  0  0  0  0
  127.5914  107.1602  109.4505 H   0  0  0  0  0  0  0  0  0  0  0  0
  1  3  1  0  0  0  0
  1 10  1  0  0  0  0
  2  4  1  0  0  0  0
  2 10  1  0  0  0  0
  3  4  1  0  0  0  0
  3  6  1  0  0  0  0
  4  9  1  0  0  0  0
  5  6  1  0  0  0  0
  7 10  2  0  0  0  0
  8 10  2  0  0  0  0
  1 11  1  0  0  0  0
  1 12  1  0  0  0  0
  2 13  1  0  0  0  0
  2 14  1  0  0  0  0
  3 15  1  0  0  0  0
  4 16  1  0  0  0  0
  5 17  1  0  0  0  0
  5 18  1  0  0  0  0
  6 19  1  0  0  0  0
  9 20  1  0  0  0  0
M  END
> <FRED Chemgauss4 score>
-6.949984

$$$$
C98234770	P156239239
  -OEChem-05122015313D

 19 19  0     0  0  0  0  0  0999 V2000
  119.8927  104.0206  106.1732 C   0  0  0  0  0  0  0  0  0  0  0  0
  122.1743  104.7337  106.2461 C   0  0  0  0  0  0  0  0  0  0  0  0
  121.0602  104.5290  105.5320 C   0  0  0  0  0  0  0  0  0  0  0  0
  121.0983  104.8504  104.0680 C   0  0  0  0  0  0  0  0  0  0  0  0
  124.3778  105.3255  106.7864 C   0  0  0  0  0  0  0  0  0  0  0  0
  123.6490  104.8254  108.0667 C   0  0  0  0  0  0  0  0  0  0  0  0
  118.9423  103.6069  106.6950 N   0  0  0  0  0  0  0  0  0  0  0  0
  123.3607  105.2167  105.7537 N   0  0  0  0  0  0  0  0  0  0  0  0
  122.3160  104.4953  107.5901 N   0  0  0  0  0  0  0  0  0  0  0  0
  120.8401  103.7867  103.2334 N   0  0  0  0  0  0  0  0  0  0  0  0
  121.3424  105.9793  103.6478 O   0  0  0  0  0  0  0  0  0  0  0  0
  124.7101  106.3618  106.9013 H   0  0  0  0  0  0  0  0  0  0  0  0
  125.2413  104.6951  106.5530 H   0  0  0  0  0  0  0  0  0  0  0  0
  124.1454  103.9438  108.4839 H   0  0  0  0  0  0  0  0  0  0  0  0
  123.6088  105.6098  108.8287 H   0  0  0  0  0  0  0  0  0  0  0  0
  123.4938  105.4642  104.7827 H   0  0  0  0  0  0  0  0  0  0  0  0
  121.5677  104.1357  108.1671 H   0  0  0  0  0  0  0  0  0  0  0  0
  120.6440  102.8724  103.6270 H   0  0  0  0  0  0  0  0  0  0  0  0
  120.8449  103.9125  102.2264 H   0  0  0  0  0  0  0  0  0  0  0  0
  1  3  1  0  0  0  0
  1  7  3  0  0  0  0
  2  3  2  0  0  0  0
  2  8  1  0  0  0  0
  2  9  1  0  0  0  0
  3  4  1  0  0  0  0
  4 10  1  0  0  0  0
  4 11  2  0  0  0  0
  5  6  1  0  0  0  0
  5  8  1  0  0  0  0
  6  9  1  0  0  0  0
  5 12  1  0  0  0  0
  5 13  1  0  0  0  0
  6 14  1  0  0  0  0
  6 15  1  0  0  0  0
  8 16  1  0  0  0  0
  9 17  1  0  0  0  0
 10 18  1  0  0  0  0
 10 19  1  0  0  0  0
M  END
> <FRED Chemgauss4 score>
-6.948442

$$$$
C40448205	P61401698
  -OEChem-05122015313D

 13 13  0     0  0  0  0  0  0999 V2000
  123.6537  109.6676  110.6044 C   0  0  0  0  0  0  0  0  0  0  0  0
  124.5351  108.8729  108.9099 C   0  0  0  0  0  0  0  0  0  0  0  0
  125.2722  108.7754  107.6406 C   0  0  0  0  0  0  0  0  0  0  0  0
  124.3389  110.0570  109.5591 N   0  0  0  0  0  0  0  0  0  0  0  0
  124.0106  107.7939  109.4984 N   0  0  0  0  0  0  0  0  0  0  0  0
  127.3998  108.4361  106.6093 N   0  0  0  0  0  0  0  0  0  0  0  0
  126.6413  108.5653  107.7585 N   0  0  0  0  0  0  0  0  0  0  0  0
  124.7073  108.8510  106.5475 O   0  0  0  0  0  0  0  0  0  0  0  0
  123.4136  108.3308  110.6459 O   0  0  0  0  0  0  0  0  0  0  0  0
  123.2642  110.2605  111.4173 H   0  0  0  0  0  0  0  0  0  0  0  0
  128.1483  107.7782  106.8230 H   0  0  0  0  0  0  0  0  0  0  0  0
  126.8101  107.9752  105.9177 H   0  0  0  0  0  0  0  0  0  0  0  0
  127.0770  108.5077  108.6726 H   0  0  0  0  0  0  0  0  0  0  0  0
  1  4  2  0  0  0  0
  1  9  1  0  0  0  0
  2  3  1  0  0  0  0
  2  4  1  0  0  0  0
  2  5  2  0  0  0  0
  3  7  1  0  0  0  0
  3  8  2  0  0  0  0
  5  9  1  0  0  0  0
  6  7  1  0  0  0  0
  1 10  1  0  0  0  0
  6 11  1  0  0  0  0
  6 12  1  0  0  0  0
  7 13  1  0  0  0  0
M  END
> <FRED Chemgauss4 score>
-6.927925

$$$$
C82906542	P129602642
  -OEChem-05122015313D

 37 37  0     1  0  0  0  0  0999 V2000
  123.1424  106.3057  105.9223 C   0  0  0  0  0  0  0  0  0  0  0  0
  124.6714  106.4029  105.8800 C   0  0  0  0  0  0  0  0  0  0  0  0
  123.2533  105.4135  108.1552 C   0  0  0  0  0  0  0  0  0  0  0  0
  124.7962  105.4598  108.1336 C   0  0  1  0  0  0  0  0  0  0  0  0
  125.3820  104.0716  107.8261 C   0  0  0  0  0  0  0  0  0  0  0  0
  119.2087  103.8342  106.0469 C   0  0  0  0  0  0  0  0  0  0  0  0
  126.6804  106.7136  107.1856 C   0  0  0  0  0  0  0  0  0  0  0  0
  121.2420  105.1489  106.8495 C   0  0  0  0  0  0  0  0  0  0  0  0
  120.5985  105.1369  104.3488 C   0  0  0  0  0  0  0  0  0  0  0  0
  120.6035  104.3613  105.6841 C   0  0  2  0  0  0  0  0  0  0  0  0
  122.7014  105.2211  106.8075 N   0  0  1  0  0  0  0  0  0  0  0  0
  125.2326  106.5376  107.2276 N   0  0  1  0  0  0  0  0  0  0  0  0
  120.0621  106.4892  104.4237 N   0  0  0  0  0  0  0  0  0  0  0  0
  121.4380  103.2112  105.4554 O   0  0  0  0  0  0  0  0  0  0  0  0
  122.7469  107.2654  106.2860 H   0  0  0  0  0  0  0  0  0  0  0  0
  122.7514  106.1653  104.9018 H   0  0  0  0  0  0  0  0  0  0  0  0
  125.0522  105.4902  105.4069 H   0  0  0  0  0  0  0  0  0  0  0  0
  124.9678  107.2481  105.2452 H   0  0  0  0  0  0  0  0  0  0  0  0
  122.9103  104.6162  108.8299 H   0  0  0  0  0  0  0  0  0  0  0  0
  122.8801  106.3627  108.5613 H   0  0  0  0  0  0  0  0  0  0  0  0
  125.1245  105.7330  109.1774 H   0  0  0  0  0  0  0  0  0  0  0  0
  125.0883  103.7690  106.8251 H   0  0  0  0  0  0  0  0  0  0  0  0
  125.0052  103.3523  108.5475 H   0  0  0  0  0  0  0  0  0  0  0  0
  126.4656  104.1146  107.8887 H   0  0  0  0  0  0  0  0  0  0  0  0
  118.7739  103.2791  105.2074 H   0  0  0  0  0  0  0  0  0  0  0  0
  118.5140  104.6337  106.3210 H   0  0  0  0  0  0  0  0  0  0  0  0
  119.2686  103.1278  106.8829 H   0  0  0  0  0  0  0  0  0  0  0  0
  127.0765  106.8118  108.1996 H   0  0  0  0  0  0  0  0  0  0  0  0
  126.9354  107.6135  106.6194 H   0  0  0  0  0  0  0  0  0  0  0  0
  127.1520  105.8520  106.7054 H   0  0  0  0  0  0  0  0  0  0  0  0
  120.8294  106.1655  106.8716 H   0  0  0  0  0  0  0  0  0  0  0  0
  120.9458  104.6931  107.8025 H   0  0  0  0  0  0  0  0  0  0  0  0
  121.6201  105.1828  103.9502 H   0  0  0  0  0  0  0  0  0  0  0  0
  120.0228  104.5704  103.6062 H   0  0  0  0  0  0  0  0  0  0  0  0
  119.6630  106.8857  103.5986 H   0  0  0  0  0  0  0  0  0  0  0  0
  120.2895  107.0442  105.2222 H   0  0  0  0  0  0  0  0  0  0  0  0
  122.3095  103.5605  105.2289 H   0  0  0  0  0  0  0  0  0  0  0  0
  1  2  1  0  0  0  0
  1 11  1  0  0  0  0
  2 12  1  0  0  0  0
  3  4  1  0  0  0  0
  3 11  1  0  0  0  0
  4  5  1  0  0  0  0
  4 12  1  0  0  0  0
  6 10  1  0  0  0  0
  7 12  1  0  0  0  0
  8 10  1  0  0  0  0
  8 11  1  0  0  0  0
  9 10  1  0  0  0  0
  9 13  1  0  0  0  0
 10 14  1  0  0  0  0
  1 15  1  0  0  0  0
  1 16  1  0  0  0  0
  2 17  1  0  0  0  0
  2 18  1  0  0  0  0
  3 19  1  0  0  0  0
  3 20  1  0  0  0  0
  4 21  1  0  0  0  0
  5 22  1  0  0  0  0
  5 23  1  0  0  0  0
  5 24  1  0  0  0  0
  6 25  1  0  0  0  0
  6 26  1  0  0  0  0
  6 27  1  0  0  0  0
  7 28  1  0  0  0  0
  7 29  1  0  0  0  0
  7 30  1  0  0  0  0
  8 31  1  0  0  0  0
  8 32  1  0  0  0  0
  9 33  1  0  0  0  0
  9 34  1  0  0  0  0
 13 35  1  0  0  0  0
 13 36  1  0  0  0  0
 14 37  1  0  0  0  0
M  END
> <FRED Chemgauss4 score>
-6.923789

$$$$
C34264772	P117567526
  -OEChem-05122015313D

 19 18  0     1  0  0  0  0  0999 V2000
  125.1506  104.3843  107.2767 C   0  0  0  0  0  0  0  0  0  0  0  0
  125.2606  105.5198  107.9758 C   0  0  0  0  0  0  0  0  0  0  0  0
  124.9782  108.5956  108.5879 C   0  0  0  0  0  0  0  0  0  0  0  0
  126.3253  106.5522  107.7352 C   0  0  1  0  0  0  0  0  0  0  0  0
  125.7748  107.9626  107.4426 C   0  0  2  0  0  0  0  0  0  0  0  0
  124.5138  109.9359  108.2583 N   0  0  0  0  0  0  0  0  0  0  0  0
  127.1389  106.6092  108.9092 O   0  0  0  0  0  0  0  0  0  0  0  0
  126.8561  108.8459  107.1293 O   0  0  0  0  0  0  0  0  0  0  0  0
  124.3662  103.6647  107.4828 H   0  0  0  0  0  0  0  0  0  0  0  0
  125.8512  104.1603  106.4798 H   0  0  0  0  0  0  0  0  0  0  0  0
  124.5363  105.7141  108.7631 H   0  0  0  0  0  0  0  0  0  0  0  0
  124.1153  107.9603  108.8216 H   0  0  0  0  0  0  0  0  0  0  0  0
  125.5787  108.6272  109.5041 H   0  0  0  0  0  0  0  0  0  0  0  0
  126.9814  106.2351  106.9163 H   0  0  0  0  0  0  0  0  0  0  0  0
  125.1466  107.9234  106.5434 H   0  0  0  0  0  0  0  0  0  0  0  0
  124.3260  110.5691  109.0076 H   0  0  0  0  0  0  0  0  0  0  0  0
  124.2057  110.1135  107.3248 H   0  0  0  0  0  0  0  0  0  0  0  0
  127.5129  105.7232  109.0242 H   0  0  0  0  0  0  0  0  0  0  0  0
  127.3453  108.4286  106.4056 H   0  0  0  0  0  0  0  0  0  0  0  0
  1  2  2  0  0  0  0
  2  4  1  0  0  0  0
  3  5  1  0  0  0  0
  3  6  1  0  0  0  0
  4  5  1  0  0  0  0
  4  7  1  0  0  0  0
  5  8  1  0  0  0  0
  1  9  1  0  0  0  0
  1 10  1  0  0  0  0
  2 11  1  0  0  0  0
  3 12  1  0  0  0  0
  3 13  1  0  0  0  0
  4 14  1  0  0  0  0
  5 15  1  0  0  0  0
  6 16  1  0  0  0  0
  6 17  1  0  0  0  0
  7 18  1  0  0  0  0
  8 19  1  0  0  0  0
M  END
> <FRED Chemgauss4 score>
-6.916683

$$$$
C09915899	P111277742
  -OEChem-05122015313D

 19 19  0     1  0  0  0  0  0999 V2000
  124.5184  106.2308  106.2447 C   0  0  0  0  0  0  0  0  0  0  0  0
  124.8025  107.5347  106.1698 C   0  0  0  0  0  0  0  0  0  0  0  0
  125.1670  108.2267  107.4382 C   0  0  0  0  0  0  0  0  0  0  0  0
  124.9590  107.4708  108.7436 C   0  0  0  0  0  0  0  0  0  0  0  0
  125.1896  105.9597  108.6124 C   0  0  2  0  0  0  0  0  0  0  0  0
  126.6762  105.6068  108.6323 C   0  0  0  0  0  0  0  0  0  0  0  0
  124.5932  105.4723  107.3812 N   0  0  0  0  0  0  0  0  0  0  0  0
  125.5492  109.3949  107.4226 O   0  0  0  0  0  0  0  0  0  0  0  0
  124.7563  108.2395  104.9925 O   0  0  0  0  0  0  0  0  0  0  0  0
  127.2324  106.0552  109.8557 O   0  0  0  0  0  0  0  0  0  0  0  0
  124.1771  105.6683  105.3822 H   0  0  0  0  0  0  0  0  0  0  0  0
  125.6453  107.9130  109.4826 H   0  0  0  0  0  0  0  0  0  0  0  0
  123.9328  107.6541  109.0946 H   0  0  0  0  0  0  0  0  0  0  0  0
  124.6956  105.4481  109.4526 H   0  0  0  0  0  0  0  0  0  0  0  0
  127.1891  106.0978  107.8040 H   0  0  0  0  0  0  0  0  0  0  0  0
  126.8063  104.5264  108.5540 H   0  0  0  0  0  0  0  0  0  0  0  0
  123.9930  104.6473  107.4176 H   0  0  0  0  0  0  0  0  0  0  0  0
  124.9937  109.1622  105.1462 H   0  0  0  0  0  0  0  0  0  0  0  0
  128.1755  105.8193  109.8431 H   0  0  0  0  0  0  0  0  0  0  0  0
  1  2  2  0  0  0  0
  1  7  1  0  0  0  0
  2  3  1  0  0  0  0
  2  9  1  0  0  0  0
  3  4  1  0  0  0  0
  3  8  2  0  0  0  0
  4  5  1  0  0  0  0
  5  6  1  0  0  0  0
  5  7  1  0  0  0  0
  6 10  1  0  0  0  0
  1 11  1  0  0  0  0
  4 12  1  0  0  0  0
  4 13  1  0  0  0  0
  5 14  1  0  0  0  0
  6 15  1  0  0  0  0
  6 16  1  0  0  0  0
  7 17  1  0  0  0  0
  9 18  1  0  0  0  0
 10 19  1  0  0  0  0
M  END
> <FRED Chemgauss4 score>
-6.916117

$$$$
C20283868	P153655873
  -OEChem-05122015313D

 12 12  0     0  0  0  0  0  0999 V2000
  126.6752  105.6978  108.5488 C   0  0  0  0  0  0  0  0  0  0  0  0
  125.2484  107.3320  108.6009 C   0  0  0  0  0  0  0  0  0  0  0  0
  124.5916  108.5620  108.8830 C   0  0  0  0  0  0  0  0  0  0  0  0
  125.6613  105.3611  107.7839 N   0  0  0  0  0  0  0  0  0  0  0  0
  124.7535  106.4008  107.8171 N   0  0  0  0  0  0  0  0  0  0  0  0
  126.4573  106.9312  109.0834 N   0  0  0  0  0  0  0  0  0  0  0  0
  123.7330  108.6185  109.9763 N   0  0  0  0  0  0  0  0  0  0  0  0
  124.8377  109.9560  107.9563 S   0  0  0  0  0  0  0  0  0  0  0  0
  127.5623  105.1141  108.7453 H   0  0  0  0  0  0  0  0  0  0  0  0
  127.0683  107.4425  109.7072 H   0  0  0  0  0  0  0  0  0  0  0  0
  123.5675  107.8063  110.5623 H   0  0  0  0  0  0  0  0  0  0  0  0
  123.2319  109.4650  110.2252 H   0  0  0  0  0  0  0  0  0  0  0  0
  1  4  2  0  0  0  0
  1  6  1  0  0  0  0
  2  3  1  0  0  0  0
  2  5  2  0  0  0  0
  2  6  1  0  0  0  0
  3  7  1  0  0  0  0
  3  8  2  0  0  0  0
  4  5  1  0  0  0  0
  1  9  1  0  0  0  0
  6 10  1  0  0  0  0
  7 11  1  0  0  0  0
  7 12  1  0  0  0  0
M  END
> <FRED Chemgauss4 score>
-6.914732

$$$$
C43514538	P65814456
  -OEChem-05122015313D

 30 29  0     1  0  0  0  0  0999 V2000
  125.7276  107.7792  107.3656 C   0  0  0  0  0  0  0  0  0  0  0  0
  126.7387  105.8794  108.7002 C   0  0  0  0  0  0  0  0  0  0  0  0
  125.1331  103.4645  107.6372 C   0  0  0  0  0  0  0  0  0  0  0  0
  123.0411  104.1379  108.8686 C   0  0  0  0  0  0  0  0  0  0  0  0
  123.7122  105.6680  106.5510 C   0  0  0  0  0  0  0  0  0  0  0  0
  123.2056  107.0300  106.1127 C   0  0  0  0  0  0  0  0  0  0  0  0
  125.8052  106.2729  107.5637 C   0  0  1  0  0  0  0  0  0  0  0  0
  124.4726  104.5158  108.5173 C   0  0  0  0  0  0  0  0  0  0  0  0
  125.3180  108.5182  108.4434 N   0  0  0  0  0  0  0  0  0  0  0  0
  124.4645  105.8025  107.8065 N   0  0  2  0  0  0  0  0  0  0  0  0
  122.5091  106.9004  104.8798 O   0  0  0  0  0  0  0  0  0  0  0  0
  126.1143  108.5023  105.9059 S   0  0  0  0  0  0  0  0  0  0  0  0
  126.4302  106.3507  109.6393 H   0  0  0  0  0  0  0  0  0  0  0  0
  126.7331  104.7934  108.8435 H   0  0  0  0  0  0  0  0  0  0  0  0
  127.7750  106.1737  108.5021 H   0  0  0  0  0  0  0  0  0  0  0  0
  124.5689  103.3220  106.7098 H   0  0  0  0  0  0  0  0  0  0  0  0
  126.1575  103.7501  107.3732 H   0  0  0  0  0  0  0  0  0  0  0  0
  125.1835  102.5003  108.1550 H   0  0  0  0  0  0  0  0  0  0  0  0
  122.4405  104.0068  107.9618 H   0  0  0  0  0  0  0  0  0  0  0  0
  122.5703  104.9169  109.4772 H   0  0  0  0  0  0  0  0  0  0  0  0
  123.0013  103.1968  109.4284 H   0  0  0  0  0  0  0  0  0  0  0  0
  122.8843  104.9722  106.7201 H   0  0  0  0  0  0  0  0  0  0  0  0
  124.3829  105.2496  105.7944 H   0  0  0  0  0  0  0  0  0  0  0  0
  124.0482  107.7102  105.9548 H   0  0  0  0  0  0  0  0  0  0  0  0
  122.5291  107.4659  106.8551 H   0  0  0  0  0  0  0  0  0  0  0  0
  126.1421  105.7852  106.6418 H   0  0  0  0  0  0  0  0  0  0  0  0
  125.0531  104.6414  109.4378 H   0  0  0  0  0  0  0  0  0  0  0  0
  125.0826  108.0961  109.3355 H   0  0  0  0  0  0  0  0  0  0  0  0
  125.2485  109.5288  108.3876 H   0  0  0  0  0  0  0  0  0  0  0  0
  122.2036  107.7891  104.6367 H   0  0  0  0  0  0  0  0  0  0  0  0
  1  7  1  0  0  0  0
  1  9  1  0  0  0  0
  1 12  2  0  0  0  0
  2  7  1  0  0  0  0
  3  8  1  0  0  0  0
  4  8  1  0  0  0  0
  5  6  1  0  0  0  0
  5 10  1  0  0  0  0
  6 11  1  0  0  0  0
  7 10  1  0  0  0  0
  8 10  1  0  0  0  0
  2 13  1  0  0  0  0
  2 14  1  0  0  0  0
  2 15  1  0  0  0  0
  3 16  1  0  0  0  0
  3 17  1  0  0  0  0
  3 18  1  0  0  0  0
  4 19  1  0  0  0  0
  4 20  1  0  0  0  0
  4 21  1  0  0  0  0
  5 22  1  0  0  0  0
  5 23  1  0  0  0  0
  6 24  1  0  0  0  0
  6 25  1  0  0  0  0
  7 26  1  0  0  0  0
  8 27  1  0  0  0  0
  9 28  1  0  0  0  0
  9 29  1  0  0  0  0
 11 30  1  0  0  0  0
M  END
> <FRED Chemgauss4 score>
-6.913760

$$$$
C44549370	P67231226
  -OEChem-05122015313D

 18 18  0     0  0  0  0  0  0999 V2000
  123.9396  104.6707  106.8449 C   0  0  0  0  0  0  0  0  0  0  0  0
  124.3583  108.0311  109.6158 C   0  0  0  0  0  0  0  0  0  0  0  0
  125.6447  107.7073  107.8709 C   0  0  0  0  0  0  0  0  0  0  0  0
  125.4056  104.6727  106.9589 C   0  0  0  0  0  0  0  0  0  0  0  0
  125.8704  105.1609  108.3269 C   0  0  0  0  0  0  0  0  0  0  0  0
  122.7829  104.6684  106.7528 N   0  0  0  0  0  0  0  0  0  0  0  0
  124.5929  106.7595  109.6706 N   0  0  0  0  0  0  0  0  0  0  0  0
  124.9457  108.6551  108.5822 N   0  0  0  0  0  0  0  0  0  0  0  0
  125.4085  106.5084  108.5778 N   0  0  0  0  0  0  0  0  0  0  0  0
  124.8420  109.9920  108.3202 N   0  0  0  0  0  0  0  0  0  0  0  0
  126.5569  107.9235  106.4939 S   0  0  0  0  0  0  0  0  0  0  0  0
  123.7447  108.6101  110.3176 H   0  0  0  0  0  0  0  0  0  0  0  0
  125.8203  105.3316  106.1871 H   0  0  0  0  0  0  0  0  0  0  0  0
  125.7920  103.6656  106.7628 H   0  0  0  0  0  0  0  0  0  0  0  0
  125.4681  104.5052  109.1060 H   0  0  0  0  0  0  0  0  0  0  0  0
  126.9632  105.1323  108.4011 H   0  0  0  0  0  0  0  0  0  0  0  0
  123.9211  110.3748  108.6088 H   0  0  0  0  0  0  0  0  0  0  0  0
  124.8761  110.1905  107.3021 H   0  0  0  0  0  0  0  0  0  0  0  0
  1  4  1  0  0  0  0
  1  6  3  0  0  0  0
  2  7  2  0  0  0  0
  2  8  1  0  0  0  0
  3  8  1  0  0  0  0
  3  9  1  0  0  0  0
  3 11  2  0  0  0  0
  4  5  1  0  0  0  0
  5  9  1  0  0  0  0
  7  9  1  0  0  0  0
  8 10  1  0  0  0  0
  2 12  1  0  0  0  0
  4 13  1  0  0  0  0
  4 14  1  0  0  0  0
  5 15  1  0  0  0  0
  5 16  1  0  0  0  0
 10 17  1  0  0  0  0
 10 18  1  0  0  0  0
M  END
> <FRED Chemgauss4 score>
-6.908009

$$$$
C70533423	P108804873
  -OEChem-05122015313D

 25 25  0     1  0  0  0  0  0999 V2000
  123.6065  105.3292  107.3334 C   0  0  0  0  0  0  0  0  0  0  0  0
  123.6269  106.1300  108.6330 C   0  0  0  0  0  0  0  0  0  0  0  0
  124.6425  104.2137  107.3668 C   0  0  0  0  0  0  0  0  0  0  0  0
  125.9907  105.3500  108.9475 C   0  0  0  0  0  0  0  0  0  0  0  0
  125.0480  106.5550  109.0253 C   0  0  1  0  0  0  0  0  0  0  0  0
  124.6870  108.9456  108.3090 C   0  0  0  0  0  0  0  0  0  0  0  0
  125.5500  107.6986  108.1389 C   0  0  1  0  0  0  0  0  0  0  0  0
  125.1845  110.0046  107.4602 N   0  0  0  0  0  0  0  0  0  0  0  0
  125.9393  104.7318  107.6611 O   0  0  0  0  0  0  0  0  0  0  0  0
  126.8879  108.0133  108.5179 O   0  0  0  0  0  0  0  0  0  0  0  0
  122.6084  104.8898  107.2096 H   0  0  0  0  0  0  0  0  0  0  0  0
  123.7847  105.9896  106.4775 H   0  0  0  0  0  0  0  0  0  0  0  0
  122.9897  107.0232  108.5144 H   0  0  0  0  0  0  0  0  0  0  0  0
  123.1720  105.5342  109.4412 H   0  0  0  0  0  0  0  0  0  0  0  0
  124.3864  103.4912  108.1492 H   0  0  0  0  0  0  0  0  0  0  0  0
  124.6743  103.6700  106.4144 H   0  0  0  0  0  0  0  0  0  0  0  0
  127.0295  105.6328  109.1710 H   0  0  0  0  0  0  0  0  0  0  0  0
  125.6963  104.5934  109.6860 H   0  0  0  0  0  0  0  0  0  0  0  0
  125.0200  106.9028  110.0625 H   0  0  0  0  0  0  0  0  0  0  0  0
  123.6465  108.7392  108.0361 H   0  0  0  0  0  0  0  0  0  0  0  0
  124.7075  109.2925  109.3472 H   0  0  0  0  0  0  0  0  0  0  0  0
  125.5608  107.3767  107.0919 H   0  0  0  0  0  0  0  0  0  0  0  0
  124.9898  110.9572  107.7105 H   0  0  0  0  0  0  0  0  0  0  0  0
  125.5302  109.7706  106.5470 H   0  0  0  0  0  0  0  0  0  0  0  0
  126.8554  108.2778  109.4502 H   0  0  0  0  0  0  0  0  0  0  0  0
  1  2  1  0  0  0  0
  1  3  1  0  0  0  0
  2  5  1  0  0  0  0
  3  9  1  0  0  0  0
  4  5  1  0  0  0  0
  4  9  1  0  0  0  0
  5  7  1  0  0  0  0
  6  7  1  0  0  0  0
  6  8  1  0  0  0  0
  7 10  1  0  0  0  0
  1 11  1  0  0  0  0
  1 12  1  0  0  0  0
  2 13  1  0  0  0  0
  2 14  1  0  0  0  0
  3 15  1  0  0  0  0
  3 16  1  0  0  0  0
  4 17  1  0  0  0  0
  4 18  1  0  0  0  0
  5 19  1  0  0  0  0
  6 20  1  0  0  0  0
  6 21  1  0  0  0  0
  7 22  1  0  0  0  0
  8 23  1  0  0  0  0
  8 24  1  0  0  0  0
 10 25  1  0  0  0  0
M  END
> <FRED Chemgauss4 score>
-6.905970

$$$$
C94992751	P148902415
  -OEChem-05122015313D

 24 24  0     1  0  0  0  0  0999 V2000
  126.2862  107.7413  107.1035 C   0  0  0  0  0  0  0  0  0  0  0  0
  124.7824  106.7543  109.3466 C   0  0  0  0  0  0  0  0  0  0  0  0
  126.2327  106.2431  107.3373 C   0  0  0  0  0  0  0  0  0  0  0  0
  124.8732  108.2452  109.1033 C   0  0  0  0  0  0  0  0  0  0  0  0
  125.9144  105.8918  108.7916 C   0  0  2  0  0  0  0  0  0  0  0  0
  125.1207  108.5691  107.6337 C   0  0  2  0  0  0  0  0  0  0  0  0
  125.5891  104.4039  108.9136 C   0  0  0  0  0  0  0  0  0  0  0  0
  123.8839  108.3463  106.7657 C   0  0  0  0  0  0  0  0  0  0  0  0
  127.2080  108.2431  106.4590 O   0  0  0  0  0  0  0  0  0  0  0  0
  123.8646  106.2860  110.0208 O   0  0  0  0  0  0  0  0  0  0  0  0
  127.0535  106.1387  109.6110 O   0  0  0  0  0  0  0  0  0  0  0  0
  125.4996  109.9376  107.5278 O   0  0  0  0  0  0  0  0  0  0  0  0
  125.4680  105.8472  106.6471 H   0  0  0  0  0  0  0  0  0  0  0  0
  127.1984  105.8083  107.0278 H   0  0  0  0  0  0  0  0  0  0  0  0
  123.9256  108.6798  109.4635 H   0  0  0  0  0  0  0  0  0  0  0  0
  125.6758  108.6530  109.7401 H   0  0  0  0  0  0  0  0  0  0  0  0
  126.4098  103.8111  108.5119 H   0  0  0  0  0  0  0  0  0  0  0  0
  124.6807  104.1766  108.3572 H   0  0  0  0  0  0  0  0  0  0  0  0
  125.4401  104.1420  109.9603 H   0  0  0  0  0  0  0  0  0  0  0  0
  123.0526  108.9385  107.1463 H   0  0  0  0  0  0  0  0  0  0  0  0
  123.6061  107.2933  106.7800 H   0  0  0  0  0  0  0  0  0  0  0  0
  124.0929  108.6452  105.7393 H   0  0  0  0  0  0  0  0  0  0  0  0
  127.7714  105.5909  109.2579 H   0  0  0  0  0  0  0  0  0  0  0  0
  125.6671  110.1055  106.5876 H   0  0  0  0  0  0  0  0  0  0  0  0
  1  3  1  0  0  0  0
  1  6  1  0  0  0  0
  1  9  2  0  0  0  0
  2  4  1  0  0  0  0
  2  5  1  0  0  0  0
  2 10  2  0  0  0  0
  3  5  1  0  0  0  0
  4  6  1  0  0  0  0
  5  7  1  0  0  0  0
  5 11  1  0  0  0  0
  6  8  1  0  0  0  0
  6 12  1  0  0  0  0
  3 13  1  0  0  0  0
  3 14  1  0  0  0  0
  4 15  1  0  0  0  0
  4 16  1  0  0  0  0
  7 17  1  0  0  0  0
  7 18  1  0  0  0  0
  7 19  1  0  0  0  0
  8 20  1  0  0  0  0
  8 21  1  0  0  0  0
  8 22  1  0  0  0  0
 11 23  1  0  0  0  0
 12 24  1  0  0  0  0
M  END
> <FRED Chemgauss4 score>
-6.900825

$$$$
C95869685	P150893526
  -OEChem-05122015313D

 16 16  0     1  0  0  0  0  0999 V2000
  126.0225  106.2108  108.7132 C   0  0  0  0  0  0  0  0  0  0  0  0
  125.0064  107.1842  106.5867 C   0  0  0  0  0  0  0  0  0  0  0  0
  124.9847  104.7827  107.1834 C   0  0  0  0  0  0  0  0  0  0  0  0
  125.8748  107.4019  107.7922 C   0  0  2  0  0  0  0  0  0  0  0  0
  125.6140  105.0206  108.3827 N   0  0  0  0  0  0  0  0  0  0  0  0
  124.6617  105.8647  106.3691 N   0  0  0  0  0  0  0  0  0  0  0  0
  126.6190  106.4549  109.9281 N   0  0  0  0  0  0  0  0  0  0  0  0
  127.2093  107.7327  107.2951 N   0  0  0  0  0  0  0  0  0  0  0  0
  124.6732  108.1030  105.8399 O   0  0  0  0  0  0  0  0  0  0  0  0
  124.6876  103.6409  106.8270 O   0  0  0  0  0  0  0  0  0  0  0  0
  125.4633  108.2403  108.3658 H   0  0  0  0  0  0  0  0  0  0  0  0
  124.1194  105.6641  105.5335 H   0  0  0  0  0  0  0  0  0  0  0  0
  126.9122  107.3813  110.1256 H   0  0  0  0  0  0  0  0  0  0  0  0
  126.7303  105.6942  110.5542 H   0  0  0  0  0  0  0  0  0  0  0  0
  127.9822  107.6048  107.9103 H   0  0  0  0  0  0  0  0  0  0  0  0
  127.2767  108.2572  106.4507 H   0  0  0  0  0  0  0  0  0  0  0  0
  1  4  1  0  0  0  0
  1  5  2  0  0  0  0
  1  7  1  0  0  0  0
  2  4  1  0  0  0  0
  2  6  1  0  0  0  0
  2  9  2  0  0  0  0
  3  5  1  0  0  0  0
  3  6  1  0  0  0  0
  3 10  2  0  0  0  0
  4  8  1  0  0  0  0
  4 11  1  0  0  0  0
  6 12  1  0  0  0  0
  7 13  1  0  0  0  0
  7 14  1  0  0  0  0
  8 15  1  0  0  0  0
  8 16  1  0  0  0  0
M  END
> <FRED Chemgauss4 score>
-6.886547

$$$$
C04152201	P05310792
  -OEChem-05122015313D

 12 12  0     0  0  0  0  0  0999 V2000
  124.4268  106.7088  106.2875 C   0  0  0  0  0  0  0  0  0  0  0  0
  126.0263  107.8449  107.2147 C   0  0  0  0  0  0  0  0  0  0  0  0
  124.6771  107.7412  105.5143 N   0  0  0  0  0  0  0  0  0  0  0  0
  125.6948  108.4641  106.1042 N   0  0  0  0  0  0  0  0  0  0  0  0
  125.2532  106.7345  107.3697 N   0  0  0  0  0  0  0  0  0  0  0  0
  126.9656  108.1654  108.1334 N   0  0  0  0  0  0  0  0  0  0  0  0
  125.2804  105.7919  108.4197 N   0  0  0  0  0  0  0  0  0  0  0  0
  123.6854  105.9414  106.1143 H   0  0  0  0  0  0  0  0  0  0  0  0
  127.5926  108.9732  108.0143 H   0  0  0  0  0  0  0  0  0  0  0  0
  127.1610  107.5646  108.9464 H   0  0  0  0  0  0  0  0  0  0  0  0
  124.3651  105.3687  108.6103 H   0  0  0  0  0  0  0  0  0  0  0  0
  125.5674  106.1996  109.3170 H   0  0  0  0  0  0  0  0  0  0  0  0
  1  3  2  0  0  0  0
  1  5  1  0  0  0  0
  2  4  2  0  0  0  0
  2  5  1  0  0  0  0
  2  6  1  0  0  0  0
  3  4  1  0  0  0  0
  5  7  1  0  0  0  0
  1  8  1  0  0  0  0
  6  9  1  0  0  0  0
  6 10  1  0  0  0  0
  7 11  1  0  0  0  0
  7 12  1  0  0  0  0
M  END
> <FRED Chemgauss4 score>
-6.883280

$$$$
C85182711	P133271188
  -OEChem-05122015313D

 22 22  0     0  0  0  0  0  0999 V2000
  123.3956  108.4623  107.4404 C   0  0  0  0  0  0  0  0  0  0  0  0
  123.8835  106.6569  106.4241 C   0  0  0  0  0  0  0  0  0  0  0  0
  124.0972  107.7066  108.3500 C   0  0  0  0  0  0  0  0  0  0  0  0
  124.4615  108.0244  109.7408 C   0  0  0  0  0  0  0  0  0  0  0  0
  123.5034  108.4991  112.6969 C   0  0  0  0  0  0  0  0  0  0  0  0
  125.1376  105.4232  108.2023 C   0  0  0  0  0  0  0  0  0  0  0  0
  123.2658  107.8031  106.2437 N   0  0  0  0  0  0  0  0  0  0  0  0
  123.7300  108.7875  110.4855 N   0  0  0  0  0  0  0  0  0  0  0  0
  124.2953  108.9276  111.7493 N   0  0  0  0  0  0  0  0  0  0  0  0
  124.4026  106.5528  107.6847 N   0  0  0  0  0  0  0  0  0  0  0  0
  123.7669  108.4992  114.0480 N   0  0  0  0  0  0  0  0  0  0  0  0
  122.2653  107.9801  112.4050 N   0  0  0  0  0  0  0  0  0  0  0  0
  122.9753  109.4477  107.5828 H   0  0  0  0  0  0  0  0  0  0  0  0
  123.9859  105.8723  105.6868 H   0  0  0  0  0  0  0  0  0  0  0  0
  125.3973  107.5776  110.1260 H   0  0  0  0  0  0  0  0  0  0  0  0
  126.1981  105.5860  107.9925 H   0  0  0  0  0  0  0  0  0  0  0  0
  124.9691  105.3419  109.2798 H   0  0  0  0  0  0  0  0  0  0  0  0
  124.7863  104.5094  107.7150 H   0  0  0  0  0  0  0  0  0  0  0  0
  124.6430  108.8524  114.4167 H   0  0  0  0  0  0  0  0  0  0  0  0
  123.0888  108.1448  114.7138 H   0  0  0  0  0  0  0  0  0  0  0  0
  121.9350  107.9187  111.4481 H   0  0  0  0  0  0  0  0  0  0  0  0
  121.6447  107.6475  113.1350 H   0  0  0  0  0  0  0  0  0  0  0  0
  1  3  2  0  0  0  0
  1  7  1  0  0  0  0
  2  7  2  0  0  0  0
  2 10  1  0  0  0  0
  3  4  1  0  0  0  0
  3 10  1  0  0  0  0
  4  8  2  0  0  0  0
  5  9  2  0  0  0  0
  5 11  1  0  0  0  0
  5 12  1  0  0  0  0
  6 10  1  0  0  0  0
  8  9  1  0  0  0  0
  1 13  1  0  0  0  0
  2 14  1  0  0  0  0
  4 15  1  0  0  0  0
  6 16  1  0  0  0  0
  6 17  1  0  0  0  0
  6 18  1  0  0  0  0
 11 19  1  0  0  0  0
 11 20  1  0  0  0  0
 12 21  1  0  0  0  0
 12 22  1  0  0  0  0
M  END
> <FRED Chemgauss4 score>
-6.879652

$$$$
C01607176	P05730550
  -OEChem-05122015313D

 15 15  0     1  0  0  0  0  0999 V2000
  126.1309  107.8510  106.8331 C   0  0  0  0  0  0  0  0  0  0  0  0
  124.6576  108.9271  108.5416 C   0  0  0  0  0  0  0  0  0  0  0  0
  125.2801  106.6111  106.9746 C   0  0  2  0  0  0  0  0  0  0  0  0
  124.7790  106.4539  108.3958 C   0  0  2  0  0  0  0  0  0  0  0  0
  125.6961  108.9265  107.6044 N   0  0  0  0  0  0  0  0  0  0  0  0
  124.1529  107.6741  108.8537 N   0  0  0  0  0  0  0  0  0  0  0  0
  127.0863  107.9060  106.0622 O   0  0  0  0  0  0  0  0  0  0  0  0
  124.2217  109.9639  109.0440 O   0  0  0  0  0  0  0  0  0  0  0  0
  125.8684  106.1481  109.2579 O   0  0  0  0  0  0  0  0  0  0  0  0
  125.9708  105.4952  106.6173 F   0  0  0  0  0  0  0  0  0  0  0  0
  124.4380  106.7164  106.2806 H   0  0  0  0  0  0  0  0  0  0  0  0
  124.0526  105.6384  108.4661 H   0  0  0  0  0  0  0  0  0  0  0  0
  126.1868  109.8065  107.4718 H   0  0  0  0  0  0  0  0  0  0  0  0
  123.3147  107.6113  109.4233 H   0  0  0  0  0  0  0  0  0  0  0  0
  125.5001  106.0573  110.1512 H   0  0  0  0  0  0  0  0  0  0  0  0
  1  3  1  0  0  0  0
  1  5  1  0  0  0  0
  1  7  2  0  0  0  0
  2  5  1  0  0  0  0
  2  6  1  0  0  0  0
  2  8  2  0  0  0  0
  3  4  1  0  0  0  0
  3 10  1  0  0  0  0
  4  6  1  0  0  0  0
  4  9  1  0  0  0  0
  3 11  1  0  0  0  0
  4 12  1  0  0  0  0
  5 13  1  0  0  0  0
  6 14  1  0  0  0  0
  9 15  1  0  0  0  0
M  END
> <FRED Chemgauss4 score>
-6.874260

$$$$
C69692471	P107338218
  -OEChem-05122015313D

 26 25  0     0  0  0  0  0  0999 V2000
  124.6995  109.1205  108.8267 C   0  0  0  0  0  0  0  0  0  0  0  0
  124.4919  108.2514  111.1689 C   0  0  0  0  0  0  0  0  0  0  0  0
  125.2845  105.8496  106.3080 C   0  0  0  0  0  0  0  0  0  0  0  0
  125.0288  107.7242  108.3449 C   0  0  0  0  0  0  0  0  0  0  0  0
  121.7878  109.8681  110.2602 C   0  0  0  0  0  0  0  0  0  0  0  0
  123.2343  110.2642  110.5044 C   0  0  0  0  0  0  0  0  0  0  0  0
  121.5355  109.5599  108.8781 N   0  0  0  0  0  0  0  0  0  0  0  0
  124.1624  109.2093  110.1161 N   0  0  0  0  0  0  0  0  0  0  0  0
  124.9003  110.1022  108.1075 O   0  0  0  0  0  0  0  0  0  0  0  0
  123.4362  107.6975  106.2723 O   0  0  0  0  0  0  0  0  0  0  0  0
  125.8456  108.3772  105.9493 O   0  0  0  0  0  0  0  0  0  0  0  0
  124.8445  107.5481  106.6003 S   0  0  0  0  0  0  0  0  0  0  0  0
  125.3665  108.5938  111.7281 H   0  0  0  0  0  0  0  0  0  0  0  0
  124.7133  107.2730  110.7340 H   0  0  0  0  0  0  0  0  0  0  0  0
  123.6515  108.1456  111.8602 H   0  0  0  0  0  0  0  0  0  0  0  0
  125.1974  105.6503  105.2388 H   0  0  0  0  0  0  0  0  0  0  0  0
  126.3117  105.6975  106.6429 H   0  0  0  0  0  0  0  0  0  0  0  0
  124.6000  105.2146  106.8725 H   0  0  0  0  0  0  0  0  0  0  0  0
  124.3530  106.9973  108.8031 H   0  0  0  0  0  0  0  0  0  0  0  0
  126.0702  107.4819  108.5729 H   0  0  0  0  0  0  0  0  0  0  0  0
  121.1002  110.6700  110.5472 H   0  0  0  0  0  0  0  0  0  0  0  0
  121.5403  108.9730  110.8392 H   0  0  0  0  0  0  0  0  0  0  0  0
  123.4893  111.1499  109.9144 H   0  0  0  0  0  0  0  0  0  0  0  0
  123.4136  110.4877  111.5611 H   0  0  0  0  0  0  0  0  0  0  0  0
  121.9690  110.1213  108.1627 H   0  0  0  0  0  0  0  0  0  0  0  0
  120.7831  108.9318  108.6446 H   0  0  0  0  0  0  0  0  0  0  0  0
  1  4  1  0  0  0  0
  1  8  1  0  0  0  0
  1  9  2  0  0  0  0
  2  8  1  0  0  0  0
  3 12  1  0  0  0  0
  4 12  1  0  0  0  0
  5  6  1  0  0  0  0
  5  7  1  0  0  0  0
  6  8  1  0  0  0  0
 10 12  2  0  0  0  0
 11 12  2  0  0  0  0
  2 13  1  0  0  0  0
  2 14  1  0  0  0  0
  2 15  1  0  0  0  0
  3 16  1  0  0  0  0
  3 17  1  0  0  0  0
  3 18  1  0  0  0  0
  4 19  1  0  0  0  0
  4 20  1  0  0  0  0
  5 21  1  0  0  0  0
  5 22  1  0  0  0  0
  6 23  1  0  0  0  0
  6 24  1  0  0  0  0
  7 25  1  0  0  0  0
  7 26  1  0  0  0  0
M  END
> <FRED Chemgauss4 score>
-6.871351

$$$$
C40750612	P61870376
  -OEChem-05122015313D

 26 26  0     1  0  0  0  0  0999 V2000
  125.0375  104.0490  107.0455 C   0  0  0  0  0  0  0  0  0  0  0  0
  123.9766  105.1092  106.9466 C   0  0  2  0  0  0  0  0  0  0  0  0
  124.3321  106.5385  106.7158 C   0  0  0  0  0  0  0  0  0  0  0  0
  123.5852  107.5650  108.7556 C   0  0  0  0  0  0  0  0  0  0  0  0
  125.5775  108.3573  107.6713 C   0  0  0  0  0  0  0  0  0  0  0  0
  124.0073  107.8027  110.1940 C   0  0  0  0  0  0  0  0  0  0  0  0
  126.9863  107.9135  107.3219 C   0  0  0  0  0  0  0  0  0  0  0  0
  124.7511  107.1854  107.9586 N   0  0  0  0  0  0  0  0  0  0  0  0
  124.3963  104.5887  108.2121 O   0  0  0  0  0  0  0  0  0  0  0  0
  122.8774  108.2059  110.9572 O   0  0  0  0  0  0  0  0  0  0  0  0
  127.5552  107.2306  108.4318 O   0  0  0  0  0  0  0  0  0  0  0  0
  124.7777  103.0389  106.7570 H   0  0  0  0  0  0  0  0  0  0  0  0
  126.0692  104.3239  106.8694 H   0  0  0  0  0  0  0  0  0  0  0  0
  122.9956  104.8394  106.5820 H   0  0  0  0  0  0  0  0  0  0  0  0
  123.4708  107.0898  106.3264 H   0  0  0  0  0  0  0  0  0  0  0  0
  125.1566  106.6228  106.0017 H   0  0  0  0  0  0  0  0  0  0  0  0
  122.8460  106.7607  108.6867 H   0  0  0  0  0  0  0  0  0  0  0  0
  123.1618  108.4784  108.3271 H   0  0  0  0  0  0  0  0  0  0  0  0
  125.5729  109.0050  108.5538 H   0  0  0  0  0  0  0  0  0  0  0  0
  125.1278  108.8941  106.8306 H   0  0  0  0  0  0  0  0  0  0  0  0
  124.7495  108.6058  110.2390 H   0  0  0  0  0  0  0  0  0  0  0  0
  124.4316  106.8990  110.6436 H   0  0  0  0  0  0  0  0  0  0  0  0
  127.6111  108.7857  107.1055 H   0  0  0  0  0  0  0  0  0  0  0  0
  126.9944  107.2447  106.4551 H   0  0  0  0  0  0  0  0  0  0  0  0
  123.1895  108.3467  111.8656 H   0  0  0  0  0  0  0  0  0  0  0  0
  128.4508  106.9655  108.1676 H   0  0  0  0  0  0  0  0  0  0  0  0
  1  2  1  0  0  0  0
  1  9  1  0  0  0  0
  2  3  1  0  0  0  0
  2  9  1  0  0  0  0
  3  8  1  0  0  0  0
  4  6  1  0  0  0  0
  4  8  1  0  0  0  0
  5  7  1  0  0  0  0
  5  8  1  0  0  0  0
  6 10  1  0  0  0  0
  7 11  1  0  0  0  0
  1 12  1  0  0  0  0
  1 13  1  0  0  0  0
  2 14  1  0  0  0  0
  3 15  1  0  0  0  0
  3 16  1  0  0  0  0
  4 17  1  0  0  0  0
  4 18  1  0  0  0  0
  5 19  1  0  0  0  0
  5 20  1  0  0  0  0
  6 21  1  0  0  0  0
  6 22  1  0  0  0  0
  7 23  1  0  0  0  0
  7 24  1  0  0  0  0
 10 25  1  0  0  0  0
 11 26  1  0  0  0  0
M  END
> <FRED Chemgauss4 score>
-6.870368

$$$$
C54460861	P81945512
  -OEChem-05122015313D

 18 18  0     0  0  0  0  0  0999 V2000
  121.6518  104.7321  105.5658 C   0  0  0  0  0  0  0  0  0  0  0  0
  122.5524  104.6652  106.6092 C   0  0  0  0  0  0  0  0  0  0  0  0
  121.6551  105.9113  104.8490 C   0  0  0  0  0  0  0  0  0  0  0  0
  123.3030  106.7638  106.1624 C   0  0  0  0  0  0  0  0  0  0  0  0
  124.2199  107.8920  106.4937 C   0  0  0  0  0  0  0  0  0  0  0  0
  123.3959  105.6659  106.9367 N   0  0  0  0  0  0  0  0  0  0  0  0
  122.4701  106.9516  105.1209 N   0  0  0  0  0  0  0  0  0  0  0  0
  126.7563  108.5094  106.9802 N   0  0  0  0  0  0  0  0  0  0  0  0
  125.4415  107.0572  108.6473 O   0  0  0  0  0  0  0  0  0  0  0  0
  126.1068  106.0863  106.4112 O   0  0  0  0  0  0  0  0  0  0  0  0
  125.6758  107.2126  107.2217 S   0  0  0  0  0  0  0  0  0  0  0  0
  120.9867  103.9137  105.3254 H   0  0  0  0  0  0  0  0  0  0  0  0
  122.6226  103.7780  107.2295 H   0  0  0  0  0  0  0  0  0  0  0  0
  120.9818  106.0566  104.0109 H   0  0  0  0  0  0  0  0  0  0  0  0
  123.7777  108.5903  107.2135 H   0  0  0  0  0  0  0  0  0  0  0  0
  124.5208  108.4587  105.6049 H   0  0  0  0  0  0  0  0  0  0  0  0
  127.0468  109.0494  107.8046 H   0  0  0  0  0  0  0  0  0  0  0  0
  127.4998  108.3882  106.2815 H   0  0  0  0  0  0  0  0  0  0  0  0
  1  2  1  0  0  0  0
  1  3  2  0  0  0  0
  2  6  2  0  0  0  0
  3  7  1  0  0  0  0
  4  5  1  0  0  0  0
  4  6  1  0  0  0  0
  4  7  2  0  0  0  0
  5 11  1  0  0  0  0
  8 11  1  0  0  0  0
  9 11  2  0  0  0  0
 10 11  2  0  0  0  0
  1 12  1  0  0  0  0
  2 13  1  0  0  0  0
  3 14  1  0  0  0  0
  5 15  1  0  0  0  0
  5 16  1  0  0  0  0
  8 17  1  0  0  0  0
  8 18  1  0  0  0  0
M  END
> <FRED Chemgauss4 score>
-6.869059

$$$$
C86618100	P135623818
  -OEChem-05122015313D

 30 30  0     1  0  0  0  0  0999 V2000
  121.0136  104.7420  106.3508 C   0  0  0  0  0  0  0  0  0  0  0  0
  121.2383  105.5895  105.1252 C   0  0  0  0  0  0  0  0  0  0  0  0
  122.0428  105.0011  107.4209 C   0  0  0  0  0  0  0  0  0  0  0  0
  122.2695  106.5933  105.6258 C   0  0  0  0  0  0  0  0  0  0  0  0
  123.0838  105.8166  106.6571 C   0  0  1  0  0  0  0  0  0  0  0  0
  124.8315  107.4287  106.7370 C   0  0  0  0  0  0  0  0  0  0  0  0
  124.5185  105.8875  108.5535 C   0  0  0  0  0  0  0  0  0  0  0  0
  125.6581  108.2989  107.6660 C   0  0  0  0  0  0  0  0  0  0  0  0
  125.4748  104.9001  107.9099 C   0  0  0  0  0  0  0  0  0  0  0  0
  123.8523  106.6724  107.5156 N   0  0  0  0  0  0  0  0  0  0  0  0
  120.1004  103.9344  106.4637 O   0  0  0  0  0  0  0  0  0  0  0  0
  126.6324  109.0055  106.9088 O   0  0  0  0  0  0  0  0  0  0  0  0
  126.1465  104.1638  108.9240 O   0  0  0  0  0  0  0  0  0  0  0  0
  121.6239  104.9915  104.2969 H   0  0  0  0  0  0  0  0  0  0  0  0
  120.3000  106.0770  104.8471 H   0  0  0  0  0  0  0  0  0  0  0  0
  121.6088  105.5343  108.2688 H   0  0  0  0  0  0  0  0  0  0  0  0
  122.4564  104.0426  107.7451 H   0  0  0  0  0  0  0  0  0  0  0  0
  122.9214  106.8953  104.7990 H   0  0  0  0  0  0  0  0  0  0  0  0
  121.8040  107.4958  106.0281 H   0  0  0  0  0  0  0  0  0  0  0  0
  123.7895  105.1303  106.1372 H   0  0  0  0  0  0  0  0  0  0  0  0
  124.2915  108.0341  106.0021 H   0  0  0  0  0  0  0  0  0  0  0  0
  125.4736  106.7156  106.2113 H   0  0  0  0  0  0  0  0  0  0  0  0
  123.7510  105.3722  109.1396 H   0  0  0  0  0  0  0  0  0  0  0  0
  125.0642  106.5768  109.2050 H   0  0  0  0  0  0  0  0  0  0  0  0
  126.1843  107.6745  108.3948 H   0  0  0  0  0  0  0  0  0  0  0  0
  125.0345  109.0229  108.2005 H   0  0  0  0  0  0  0  0  0  0  0  0
  126.2293  105.4357  107.3254 H   0  0  0  0  0  0  0  0  0  0  0  0
  124.9482  104.1981  107.2552 H   0  0  0  0  0  0  0  0  0  0  0  0
  127.1364  109.5467  107.5375 H   0  0  0  0  0  0  0  0  0  0  0  0
  126.7448  103.5473  108.4720 H   0  0  0  0  0  0  0  0  0  0  0  0
  1  2  1  0  0  0  0
  1  3  1  0  0  0  0
  1 11  2  0  0  0  0
  2  4  1  0  0  0  0
  3  5  1  0  0  0  0
  4  5  1  0  0  0  0
  5 10  1  0  0  0  0
  6  8  1  0  0  0  0
  6 10  1  0  0  0  0
  7  9  1  0  0  0  0
  7 10  1  0  0  0  0
  8 12  1  0  0  0  0
  9 13  1  0  0  0  0
  2 14  1  0  0  0  0
  2 15  1  0  0  0  0
  3 16  1  0  0  0  0
  3 17  1  0  0  0  0
  4 18  1  0  0  0  0
  4 19  1  0  0  0  0
  5 20  1  0  0  0  0
  6 21  1  0  0  0  0
  6 22  1  0  0  0  0
  7 23  1  0  0  0  0
  7 24  1  0  0  0  0
  8 25  1  0  0  0  0
  8 26  1  0  0  0  0
  9 27  1  0  0  0  0
  9 28  1  0  0  0  0
 12 29  1  0  0  0  0
 13 30  1  0  0  0  0
M  END
> <FRED Chemgauss4 score>
-6.865783

$$$$
C50586414	P75655837
  -OEChem-05122015313D

 29 29  0     1  0  0  0  0  0999 V2000
  121.3988  105.0644  106.5389 C   0  0  0  0  0  0  0  0  0  0  0  0
  121.5174  106.0243  105.5160 C   0  0  0  0  0  0  0  0  0  0  0  0
  122.4000  105.3808  107.4244 C   0  0  0  0  0  0  0  0  0  0  0  0
  120.6966  106.1628  104.2992 C   0  0  0  0  0  0  0  0  0  0  0  0
  122.8075  104.7618  108.7007 C   0  0  0  0  0  0  0  0  0  0  0  0
  122.7180  108.8233  108.8148 C   0  0  0  0  0  0  0  0  0  0  0  0
  124.2210  107.2150  107.4945 C   0  0  2  0  0  0  0  0  0  0  0  0
  123.8866  108.6985  107.8303 C   0  0  2  0  0  0  0  0  0  0  0  0
  125.4347  107.0635  106.5687 C   0  0  0  0  0  0  0  0  0  0  0  0
  122.5151  106.8860  105.7307 N   0  0  0  0  0  0  0  0  0  0  0  0
  123.0325  106.4688  106.8987 N   0  0  0  0  0  0  0  0  0  0  0  0
  125.0376  109.3784  108.4345 N   0  0  0  0  0  0  0  0  0  0  0  0
  125.7230  105.7609  106.3467 F   0  0  0  0  0  0  0  0  0  0  0  0
  125.2000  107.6209  105.3581 F   0  0  0  0  0  0  0  0  0  0  0  0
  126.5414  107.6423  107.0815 F   0  0  0  0  0  0  0  0  0  0  0  0
  120.2656  103.8105  106.6309 Cl  0  0  0  0  0  0  0  0  0  0  0  0
  119.8284  106.8197  104.4761 H   0  0  0  0  0  0  0  0  0  0  0  0
  121.2703  106.5878  103.4570 H   0  0  0  0  0  0  0  0  0  0  0  0
  120.3125  105.1904  103.9442 H   0  0  0  0  0  0  0  0  0  0  0  0
  123.5617  103.9745  108.5377 H   0  0  0  0  0  0  0  0  0  0  0  0
  123.2387  105.4991  109.3993 H   0  0  0  0  0  0  0  0  0  0  0  0
  121.9541  104.3039  109.2298 H   0  0  0  0  0  0  0  0  0  0  0  0
  122.9351  108.2972  109.7519 H   0  0  0  0  0  0  0  0  0  0  0  0
  121.7964  108.4017  108.3980 H   0  0  0  0  0  0  0  0  0  0  0  0
  122.5244  109.8682  109.0769 H   0  0  0  0  0  0  0  0  0  0  0  0
  124.4889  106.7192  108.4388 H   0  0  0  0  0  0  0  0  0  0  0  0
  123.6229  109.2383  106.9128 H   0  0  0  0  0  0  0  0  0  0  0  0
  124.8585  110.1724  109.0047 H   0  0  0  0  0  0  0  0  0  0  0  0
  125.9419  109.1496  108.0915 H   0  0  0  0  0  0  0  0  0  0  0  0
  1  2  1  0  0  0  0
  1  3  2  0  0  0  0
  1 16  1  0  0  0  0
  2  4  1  0  0  0  0
  2 10  2  0  0  0  0
  3  5  1  0  0  0  0
  3 11  1  0  0  0  0
  6  8  1  0  0  0  0
  7  8  1  0  0  0  0
  7  9  1  0  0  0  0
  7 11  1  0  0  0  0
  8 12  1  0  0  0  0
  9 13  1  0  0  0  0
  9 14  1  0  0  0  0
  9 15  1  0  0  0  0
 10 11  1  0  0  0  0
  4 17  1  0  0  0  0
  4 18  1  0  0  0  0
  4 19  1  0  0  0  0
  5 20  1  0  0  0  0
  5 21  1  0  0  0  0
  5 22  1  0  0  0  0
  6 23  1  0  0  0  0
  6 24  1  0  0  0  0
  6 25  1  0  0  0  0
  7 26  1  0  0  0  0
  8 27  1  0  0  0  0
 12 28  1  0  0  0  0
 12 29  1  0  0  0  0
M  END
> <FRED Chemgauss4 score>
-6.864861

$$$$
C87572129	P136980498
  -OEChem-05122015313D

 22 23  0     1  0  0  0  0  0999 V2000
  124.9016  108.0789  105.6635 C   0  0  0  0  0  0  0  0  0  0  0  0
  126.5515  107.5457  107.0064 C   0  0  0  0  0  0  0  0  0  0  0  0
  124.3325  106.9748  106.2629 C   0  0  0  0  0  0  0  0  0  0  0  0
  122.9928  106.4364  105.9702 C   0  0  0  0  0  0  0  0  0  0  0  0
  121.3168  105.2260  106.0478 C   0  0  0  0  0  0  0  0  0  0  0  0
  119.3882  103.9289  105.0462 C   0  0  0  0  0  0  0  0  0  0  0  0
  120.2298  104.2024  106.2955 C   0  0  1  0  0  0  0  0  0  0  0  0
  126.1738  108.4081  106.0889 N   0  0  0  0  0  0  0  0  0  0  0  0
  122.4958  105.3361  106.6061 N   0  0  0  0  0  0  0  0  0  0  0  0
  122.1868  106.9969  105.0636 N   0  0  0  0  0  0  0  0  0  0  0  0
  120.7910  102.9727  106.8129 N   0  0  0  0  0  0  0  0  0  0  0  0
  121.0517  106.1781  105.1152 O   0  0  0  0  0  0  0  0  0  0  0  0
  118.3683  102.9876  105.3644 O   0  0  0  0  0  0  0  0  0  0  0  0
  125.4266  106.3128  107.4058 S   0  0  0  0  0  0  0  0  0  0  0  0
  124.4324  108.6904  104.9033 H   0  0  0  0  0  0  0  0  0  0  0  0
  127.5188  107.6050  107.4865 H   0  0  0  0  0  0  0  0  0  0  0  0
  118.8972  104.8440  104.6971 H   0  0  0  0  0  0  0  0  0  0  0  0
  119.9906  103.5197  104.2278 H   0  0  0  0  0  0  0  0  0  0  0  0
  119.5633  104.5627  107.0894 H   0  0  0  0  0  0  0  0  0  0  0  0
  120.2624  102.1252  106.7205 H   0  0  0  0  0  0  0  0  0  0  0  0
  121.5856  103.0249  107.4231 H   0  0  0  0  0  0  0  0  0  0  0  0
  117.8607  102.8427  104.5505 H   0  0  0  0  0  0  0  0  0  0  0  0
  1  3  2  0  0  0  0
  1  8  1  0  0  0  0
  2  8  2  0  0  0  0
  2 14  1  0  0  0  0
  3  4  1  0  0  0  0
  3 14  1  0  0  0  0
  4  9  1  0  0  0  0
  4 10  2  0  0  0  0
  5  7  1  0  0  0  0
  5  9  2  0  0  0  0
  5 12  1  0  0  0  0
  6  7  1  0  0  0  0
  6 13  1  0  0  0  0
  7 11  1  0  0  0  0
 10 12  1  0  0  0  0
  1 15  1  0  0  0  0
  2 16  1  0  0  0  0
  6 17  1  0  0  0  0
  6 18  1  0  0  0  0
  7 19  1  0  0  0  0
 11 20  1  0  0  0  0
 11 21  1  0  0  0  0
 13 22  1  0  0  0  0
M  END
> <FRED Chemgauss4 score>
-6.862706

$$$$
C19166970	P53131085
  -OEChem-05122015313D

 25 25  0     0  0  0  0  0  0999 V2000
  124.3137  106.1717  108.2657 C   0  0  0  0  0  0  0  0  0  0  0  0
  124.0602  104.3041  106.7589 C   0  0  0  0  0  0  0  0  0  0  0  0
  125.6244  105.5727  108.7909 C   0  0  0  0  0  0  0  0  0  0  0  0
  125.3703  103.7018  107.2818 C   0  0  0  0  0  0  0  0  0  0  0  0
  124.8006  106.4543  105.9015 C   0  0  0  0  0  0  0  0  0  0  0  0
  124.6120  107.9540  106.0385 C   0  0  0  0  0  0  0  0  0  0  0  0
  123.9802  105.7642  106.8947 N   0  0  0  0  0  0  0  0  0  0  0  0
  125.6140  104.1123  108.6676 N   0  0  0  0  0  0  0  0  0  0  0  0
  126.8061  103.5830  109.1235 N   0  0  0  0  0  0  0  0  0  0  0  0
  125.4389  108.6222  105.0942 O   0  0  0  0  0  0  0  0  0  0  0  0
  123.4972  105.8634  108.9509 H   0  0  0  0  0  0  0  0  0  0  0  0
  124.3612  107.2802  108.3404 H   0  0  0  0  0  0  0  0  0  0  0  0
  123.9166  104.0046  105.6975 H   0  0  0  0  0  0  0  0  0  0  0  0
  123.2218  103.8357  107.3144 H   0  0  0  0  0  0  0  0  0  0  0  0
  126.4539  105.9913  108.2071 H   0  0  0  0  0  0  0  0  0  0  0  0
  125.7726  105.8839  109.8347 H   0  0  0  0  0  0  0  0  0  0  0  0
  125.3272  102.6068  107.1916 H   0  0  0  0  0  0  0  0  0  0  0  0
  126.1899  104.0478  106.6396 H   0  0  0  0  0  0  0  0  0  0  0  0
  124.5017  106.1058  104.9078 H   0  0  0  0  0  0  0  0  0  0  0  0
  125.8466  106.1844  106.0761 H   0  0  0  0  0  0  0  0  0  0  0  0
  124.9114  108.2795  107.0396 H   0  0  0  0  0  0  0  0  0  0  0  0
  123.5714  108.2464  105.8644 H   0  0  0  0  0  0  0  0  0  0  0  0
  126.9375  103.8743  110.0859 H   0  0  0  0  0  0  0  0  0  0  0  0
  127.5614  103.9937  108.5859 H   0  0  0  0  0  0  0  0  0  0  0  0
  125.2886  109.5735  105.2149 H   0  0  0  0  0  0  0  0  0  0  0  0
  1  3  1  0  0  0  0
  1  7  1  0  0  0  0
  2  4  1  0  0  0  0
  2  7  1  0  0  0  0
  3  8  1  0  0  0  0
  4  8  1  0  0  0  0
  5  6  1  0  0  0  0
  5  7  1  0  0  0  0
  6 10  1  0  0  0  0
  8  9  1  0  0  0  0
  1 11  1  0  0  0  0
  1 12  1  0  0  0  0
  2 13  1  0  0  0  0
  2 14  1  0  0  0  0
  3 15  1  0  0  0  0
  3 16  1  0  0  0  0
  4 17  1  0  0  0  0
  4 18  1  0  0  0  0
  5 19  1  0  0  0  0
  5 20  1  0  0  0  0
  6 21  1  0  0  0  0
  6 22  1  0  0  0  0
  9 23  1  0  0  0  0
  9 24  1  0  0  0  0
 10 25  1  0  0  0  0
M  END
> <FRED Chemgauss4 score>
-6.858578

$$$$
C18717275	P131855685
  -OEChem-05122015313D

 22 23  0     1  0  0  0  0  0999 V2000
  125.2596  107.8576  106.9511 C   0  0  0  0  0  0  0  0  0  0  0  0
  124.6896  108.5364  108.1825 C   0  0  0  0  0  0  0  0  0  0  0  0
  124.7284  107.4230  109.2438 C   0  0  0  0  0  0  0  0  0  0  0  0
  125.2278  104.1875  107.3610 C   0  0  0  0  0  0  0  0  0  0  0  0
  125.6380  105.3588  106.4632 C   0  0  0  0  0  0  0  0  0  0  0  0
  124.4761  106.1769  108.4174 C   0  0  2  0  0  0  0  0  0  0  0  0
  125.0795  104.8132  108.7682 C   0  0  2  0  0  0  0  0  0  0  0  0
  125.0894  106.5036  107.1571 N   0  0  0  0  0  0  0  0  0  0  0  0
  126.3875  104.9018  109.4127 N   0  0  0  0  0  0  0  0  0  0  0  0
  125.7579  108.4246  105.9927 O   0  0  0  0  0  0  0  0  0  0  0  0
  125.2997  109.3939  108.4761 H   0  0  0  0  0  0  0  0  0  0  0  0
  123.6640  108.8551  107.9711 H   0  0  0  0  0  0  0  0  0  0  0  0
  125.7188  107.4193  109.7122 H   0  0  0  0  0  0  0  0  0  0  0  0
  123.9829  107.5681  110.0306 H   0  0  0  0  0  0  0  0  0  0  0  0
  124.2523  103.8035  107.0357 H   0  0  0  0  0  0  0  0  0  0  0  0
  125.9394  103.3569  107.3144 H   0  0  0  0  0  0  0  0  0  0  0  0
  126.7242  105.4793  106.4027 H   0  0  0  0  0  0  0  0  0  0  0  0
  125.2251  105.2959  105.4530 H   0  0  0  0  0  0  0  0  0  0  0  0
  123.4001  106.0662  108.2246 H   0  0  0  0  0  0  0  0  0  0  0  0
  124.4066  104.2261  109.4012 H   0  0  0  0  0  0  0  0  0  0  0  0
  127.0234  104.1444  109.2884 H   0  0  0  0  0  0  0  0  0  0  0  0
  126.5207  105.6038  110.1078 H   0  0  0  0  0  0  0  0  0  0  0  0
  1  2  1  0  0  0  0
  1  8  1  0  0  0  0
  1 10  2  0  0  0  0
  2  3  1  0  0  0  0
  3  6  1  0  0  0  0
  4  5  1  0  0  0  0
  4  7  1  0  0  0  0
  5  8  1  0  0  0  0
  6  7  1  0  0  0  0
  6  8  1  0  0  0  0
  7  9  1  0  0  0  0
  2 11  1  0  0  0  0
  2 12  1  0  0  0  0
  3 13  1  0  0  0  0
  3 14  1  0  0  0  0
  4 15  1  0  0  0  0
  4 16  1  0  0  0  0
  5 17  1  0  0  0  0
  5 18  1  0  0  0  0
  6 19  1  0  0  0  0
  7 20  1  0  0  0  0
  9 21  1  0  0  0  0
  9 22  1  0  0  0  0
M  END
> <FRED Chemgauss4 score>
-6.856084

$$$$
C83694167	P130926929
  -OEChem-05122015313D

 29 29  0     1  0  0  0  0  0999 V2000
  125.0904  103.9713  106.9385 C   0  0  0  0  0  0  0  0  0  0  0  0
  124.2640  105.2314  106.9968 C   0  0  0  0  0  0  0  0  0  0  0  0
  125.9380  104.0950  108.1868 C   0  0  0  0  0  0  0  0  0  0  0  0
  123.9969  105.3494  108.4874 C   0  0  2  0  0  0  0  0  0  0  0  0
  123.7346  106.7712  108.9443 C   0  0  0  0  0  0  0  0  0  0  0  0
  123.9104  109.3767  107.2740 C   0  0  0  0  0  0  0  0  0  0  0  0
  123.5457  109.3507  109.7651 C   0  0  0  0  0  0  0  0  0  0  0  0
  124.5134  109.0197  108.6307 C   0  0  0  0  0  0  0  0  0  0  0  0
  124.8659  107.5959  108.6636 N   0  0  0  0  0  0  0  0  0  0  0  0
  125.1659  104.8330  109.1458 O   0  0  0  0  0  0  0  0  0  0  0  0
  124.8521  109.0852  106.2474 O   0  0  0  0  0  0  0  0  0  0  0  0
  123.2542  110.7435  109.7458 O   0  0  0  0  0  0  0  0  0  0  0  0
  124.4371  103.0940  107.0150 H   0  0  0  0  0  0  0  0  0  0  0  0
  125.6850  103.8759  106.0263 H   0  0  0  0  0  0  0  0  0  0  0  0
  124.8593  106.0784  106.6347 H   0  0  0  0  0  0  0  0  0  0  0  0
  123.3472  105.1776  106.4034 H   0  0  0  0  0  0  0  0  0  0  0  0
  126.2139  103.1229  108.6050 H   0  0  0  0  0  0  0  0  0  0  0  0
  126.8534  104.6629  107.9892 H   0  0  0  0  0  0  0  0  0  0  0  0
  123.1547  104.7080  108.7736 H   0  0  0  0  0  0  0  0  0  0  0  0
  123.5533  106.7755  110.0146 H   0  0  0  0  0  0  0  0  0  0  0  0
  122.8720  107.1676  108.4185 H   0  0  0  0  0  0  0  0  0  0  0  0
  123.6797  110.4457  107.2207 H   0  0  0  0  0  0  0  0  0  0  0  0
  122.9958  108.8061  107.0789 H   0  0  0  0  0  0  0  0  0  0  0  0
  123.9702  109.0977  110.7428 H   0  0  0  0  0  0  0  0  0  0  0  0
  122.6014  108.8111  109.6390 H   0  0  0  0  0  0  0  0  0  0  0  0
  125.4596  109.5540  108.7767 H   0  0  0  0  0  0  0  0  0  0  0  0
  125.5962  107.4679  109.3779 H   0  0  0  0  0  0  0  0  0  0  0  0
  124.4308  109.3256  105.4070 H   0  0  0  0  0  0  0  0  0  0  0  0
  122.6399  110.9095  110.4784 H   0  0  0  0  0  0  0  0  0  0  0  0
  1  2  1  0  0  0  0
  1  3  1  0  0  0  0
  2  4  1  0  0  0  0
  3 10  1  0  0  0  0
  4  5  1  0  0  0  0
  4 10  1  0  0  0  0
  5  9  1  0  0  0  0
  6  8  1  0  0  0  0
  6 11  1  0  0  0  0
  7  8  1  0  0  0  0
  7 12  1  0  0  0  0
  8  9  1  0  0  0  0
  1 13  1  0  0  0  0
  1 14  1  0  0  0  0
  2 15  1  0  0  0  0
  2 16  1  0  0  0  0
  3 17  1  0  0  0  0
  3 18  1  0  0  0  0
  4 19  1  0  0  0  0
  5 20  1  0  0  0  0
  5 21  1  0  0  0  0
  6 22  1  0  0  0  0
  6 23  1  0  0  0  0
  7 24  1  0  0  0  0
  7 25  1  0  0  0  0
  8 26  1  0  0  0  0
  9 27  1  0  0  0  0
 11 28  1  0  0  0  0
 12 29  1  0  0  0  0
M  END
> <FRED Chemgauss4 score>
-6.850619

$$$$
C95922804	P151023683
  -OEChem-05122015313D

 16 16  0     0  0  0  0  0  0999 V2000
  124.4562  104.8932  107.5439 C   0  0  0  0  0  0  0  0  0  0  0  0
  125.3836  105.0213  108.5734 C   0  0  0  0  0  0  0  0  0  0  0  0
  124.4600  105.8018  106.4899 C   0  0  0  0  0  0  0  0  0  0  0  0
  126.2988  106.0631  108.5227 C   0  0  0  0  0  0  0  0  0  0  0  0
  125.3985  106.8240  106.4920 C   0  0  0  0  0  0  0  0  0  0  0  0
  126.2802  106.9241  107.4960 N   0  3  0  0  0  0  0  0  0  0  0  0
  127.2447  106.2058  109.5588 N   0  0  0  0  0  0  0  0  0  0  0  0
  125.4145  107.7525  105.4306 N   0  0  0  0  0  0  0  0  0  0  0  0
  127.1427  107.8843  107.4734 O   0  5  0  0  0  0  0  0  0  0  0  0
  123.7306  104.0854  107.5629 H   0  0  0  0  0  0  0  0  0  0  0  0
  125.3810  104.3125  109.3960 H   0  0  0  0  0  0  0  0  0  0  0  0
  123.7365  105.7022  105.6864 H   0  0  0  0  0  0  0  0  0  0  0  0
  127.2117  105.5814  110.3392 H   0  0  0  0  0  0  0  0  0  0  0  0
  127.8717  106.9847  109.5430 H   0  0  0  0  0  0  0  0  0  0  0  0
  124.7792  107.6327  104.6677 H   0  0  0  0  0  0  0  0  0  0  0  0
  126.1218  108.4592  105.4115 H   0  0  0  0  0  0  0  0  0  0  0  0
  1  2  1  0  0  0  0
  1  3  2  0  0  0  0
  2  4  2  0  0  0  0
  3  5  1  0  0  0  0
  4  6  1  0  0  0  0
  4  7  1  0  0  0  0
  5  6  2  0  0  0  0
  5  8  1  0  0  0  0
  6  9  1  0  0  0  0
  1 10  1  0  0  0  0
  2 11  1  0  0  0  0
  3 12  1  0  0  0  0
  7 13  1  0  0  0  0
  7 14  1  0  0  0  0
  8 15  1  0  0  0  0
  8 16  1  0  0  0  0
M  CHG  2   6   1   9  -1
M  END
> <FRED Chemgauss4 score>
-6.840176

$$$$
C54497591	P82017880
  -OEChem-05122015313D

 28 28  0     1  0  0  0  0  0999 V2000
  125.1521  109.3138  107.7451 C   0  0  0  0  0  0  0  0  0  0  0  0
  125.6118  107.1995  107.5796 C   0  0  0  0  0  0  0  0  0  0  0  0
  123.2422  104.8314  108.2952 C   0  0  0  0  0  0  0  0  0  0  0  0
  124.8845  103.4181  107.0437 C   0  0  0  0  0  0  0  0  0  0  0  0
  123.9693  105.4794  105.9976 C   0  0  0  0  0  0  0  0  0  0  0  0
  124.2431  107.8750  109.5823 C   0  0  0  0  0  0  0  0  0  0  0  0
  125.6587  105.7100  107.9042 C   0  0  1  0  0  0  0  0  0  0  0  0
  124.4496  104.8711  107.3377 C   0  0  0  0  0  0  0  0  0  0  0  0
  125.8630  109.1488  106.6525 N   0  0  0  0  0  0  0  0  0  0  0  0
  126.1555  107.8036  106.5472 N   0  0  0  0  0  0  0  0  0  0  0  0
  124.9700  108.1125  108.3602 N   0  0  0  0  0  0  0  0  0  0  0  0
  126.9656  105.1434  107.5302 N   0  0  0  0  0  0  0  0  0  0  0  0
  124.7582  110.2466  108.1230 H   0  0  0  0  0  0  0  0  0  0  0  0
  122.8867  105.8372  108.5419 H   0  0  0  0  0  0  0  0  0  0  0  0
  122.4018  104.2923  107.8416 H   0  0  0  0  0  0  0  0  0  0  0  0
  123.4804  104.3146  109.2297 H   0  0  0  0  0  0  0  0  0  0  0  0
  125.7441  103.3926  106.3637 H   0  0  0  0  0  0  0  0  0  0  0  0
  124.0852  102.8421  106.5659 H   0  0  0  0  0  0  0  0  0  0  0  0
  125.1765  102.8995  107.9637 H   0  0  0  0  0  0  0  0  0  0  0  0
  124.7888  105.5336  105.2723 H   0  0  0  0  0  0  0  0  0  0  0  0
  123.1734  104.8722  105.5503 H   0  0  0  0  0  0  0  0  0  0  0  0
  123.5633  106.4878  106.1280 H   0  0  0  0  0  0  0  0  0  0  0  0
  123.2013  107.6714  109.3210 H   0  0  0  0  0  0  0  0  0  0  0  0
  124.6801  107.0200  110.1056 H   0  0  0  0  0  0  0  0  0  0  0  0
  124.3122  108.7596  110.2216 H   0  0  0  0  0  0  0  0  0  0  0  0
  125.6160  105.6252  108.9995 H   0  0  0  0  0  0  0  0  0  0  0  0
  127.0267  104.1584  107.4378 H   0  0  0  0  0  0  0  0  0  0  0  0
  127.7553  105.7396  107.5887 H   0  0  0  0  0  0  0  0  0  0  0  0
  1  9  2  0  0  0  0
  1 11  1  0  0  0  0
  2  7  1  0  0  0  0
  2 10  2  0  0  0  0
  2 11  1  0  0  0  0
  3  8  1  0  0  0  0
  4  8  1  0  0  0  0
  5  8  1  0  0  0  0
  6 11  1  0  0  0  0
  7  8  1  0  0  0  0
  7 12  1  0  0  0  0
  9 10  1  0  0  0  0
  1 13  1  0  0  0  0
  3 14  1  0  0  0  0
  3 15  1  0  0  0  0
  3 16  1  0  0  0  0
  4 17  1  0  0  0  0
  4 18  1  0  0  0  0
  4 19  1  0  0  0  0
  5 20  1  0  0  0  0
  5 21  1  0  0  0  0
  5 22  1  0  0  0  0
  6 23  1  0  0  0  0
  6 24  1  0  0  0  0
  6 25  1  0  0  0  0
  7 26  1  0  0  0  0
 12 27  1  0  0  0  0
 12 28  1  0  0  0  0
M  END
> <FRED Chemgauss4 score>
-6.823283

$$$$
C03954260	P132242232
  -OEChem-05122015313D

 12 12  0     0  0  0  0  0  0999 V2000
  123.3614  108.3902  109.7955 C   0  0  0  0  0  0  0  0  0  0  0  0
  124.9058  108.9560  108.5102 C   0  0  0  0  0  0  0  0  0  0  0  0
  126.5462  108.0439  106.8518 C   0  0  0  0  0  0  0  0  0  0  0  0
  124.2522  107.8837  108.8928 N   0  0  0  0  0  0  0  0  0  0  0  0
  123.4228  109.7084  109.9953 N   0  0  0  0  0  0  0  0  0  0  0  0
  124.4183  110.0459  109.1616 N   0  0  0  0  0  0  0  0  0  0  0  0
  125.9283  109.0595  107.6065 N   0  0  0  0  0  0  0  0  0  0  0  0
  127.4600  108.1382  106.0445 O   0  0  0  0  0  0  0  0  0  0  0  0
  122.6450  107.7793  110.3241 H   0  0  0  0  0  0  0  0  0  0  0  0
  126.0949  107.0608  107.0699 H   0  0  0  0  0  0  0  0  0  0  0  0
  124.7022  111.0159  109.0932 H   0  0  0  0  0  0  0  0  0  0  0  0
  126.3300  109.9994  107.4255 H   0  0  0  0  0  0  0  0  0  0  0  0
  1  4  1  0  0  0  0
  1  5  2  0  0  0  0
  2  4  2  0  0  0  0
  2  6  1  0  0  0  0
  2  7  1  0  0  0  0
  3  7  1  0  0  0  0
  3  8  2  0  0  0  0
  5  6  1  0  0  0  0
  1  9  1  0  0  0  0
  3 10  1  0  0  0  0
  6 11  1  0  0  0  0
  7 12  1  0  0  0  0
M  END
> <FRED Chemgauss4 score>
-6.822266

$$$$
C90727446	P141907749
  -OEChem-05122015313D

 21 21  0     1  0  0  0  0  0999 V2000
  125.3487  107.4714  106.1305 C   0  0  0  0  0  0  0  0  0  0  0  0
  125.3062  105.9775  106.1765 C   0  0  0  0  0  0  0  0  0  0  0  0
  124.3600  108.0814  107.0902 C   0  0  2  0  0  0  0  0  0  0  0  0
  124.6470  105.7481  107.5303 C   0  0  1  0  0  0  0  0  0  0  0  0
  125.0121  109.0556  108.0540 C   0  0  0  0  0  0  0  0  0  0  0  0
  125.6644  105.5658  108.6554 C   0  0  0  0  0  0  0  0  0  0  0  0
  123.7835  106.9175  107.7840 N   0  0  0  0  0  0  0  0  0  0  0  0
  126.0659  108.1131  105.3743 O   0  0  0  0  0  0  0  0  0  0  0  0
  125.2091  110.2943  107.3912 O   0  0  0  0  0  0  0  0  0  0  0  0
  126.7351  106.4717  108.4517 O   0  0  0  0  0  0  0  0  0  0  0  0
  124.7015  105.5780  105.3556 H   0  0  0  0  0  0  0  0  0  0  0  0
  126.3315  105.5912  106.1303 H   0  0  0  0  0  0  0  0  0  0  0  0
  123.5703  108.5868  106.5047 H   0  0  0  0  0  0  0  0  0  0  0  0
  124.0096  104.8470  107.4923 H   0  0  0  0  0  0  0  0  0  0  0  0
  125.9805  108.6723  108.3849 H   0  0  0  0  0  0  0  0  0  0  0  0
  124.3708  109.2168  108.9241 H   0  0  0  0  0  0  0  0  0  0  0  0
  126.0529  104.5459  108.6497 H   0  0  0  0  0  0  0  0  0  0  0  0
  125.1993  105.7733  109.6208 H   0  0  0  0  0  0  0  0  0  0  0  0
  123.7695  107.1031  108.7983 H   0  0  0  0  0  0  0  0  0  0  0  0
  125.6263  110.8944  108.0315 H   0  0  0  0  0  0  0  0  0  0  0  0
  127.3654  106.3348  109.1789 H   0  0  0  0  0  0  0  0  0  0  0  0
  1  2  1  0  0  0  0
  1  3  1  0  0  0  0
  1  8  2  0  0  0  0
  2  4  1  0  0  0  0
  3  5  1  0  0  0  0
  3  7  1  0  0  0  0
  4  6  1  0  0  0  0
  4  7  1  0  0  0  0
  5  9  1  0  0  0  0
  6 10  1  0  0  0  0
  2 11  1  0  0  0  0
  2 12  1  0  0  0  0
  3 13  1  0  0  0  0
  4 14  1  0  0  0  0
  5 15  1  0  0  0  0
  5 16  1  0  0  0  0
  6 17  1  0  0  0  0
  6 18  1  0  0  0  0
  7 19  1  0  0  0  0
  9 20  1  0  0  0  0
 10 21  1  0  0  0  0
M  END
> <FRED Chemgauss4 score>
-6.819857

$$$$
C78677345	P122772396
  -OEChem-05122015313D

 18 18  0     0  0  0  0  0  0999 V2000
  123.8743  108.0656  110.4689 C   0  0  0  0  0  0  0  0  0  0  0  0
  124.1645  109.1305  109.6420 C   0  0  0  0  0  0  0  0  0  0  0  0
  123.5505  110.2536  111.4229 C   0  0  0  0  0  0  0  0  0  0  0  0
  123.2405  111.3828  112.3267 C   0  0  0  0  0  0  0  0  0  0  0  0
  124.6550  109.0332  108.2263 C   0  0  0  0  0  0  0  0  0  0  0  0
  123.9790  110.3860  110.1872 N   0  0  0  0  0  0  0  0  0  0  0  0
  126.4362  108.5624  106.7870 N   0  0  0  0  0  0  0  0  0  0  0  0
  126.0599  108.6551  108.1611 N   0  0  0  0  0  0  0  0  0  0  0  0
  123.3489  108.6480  111.9941 S   0  0  0  0  0  0  0  0  0  0  0  0
  123.9432  107.0072  110.2607 H   0  0  0  0  0  0  0  0  0  0  0  0
  122.1863  111.6864  112.2309 H   0  0  0  0  0  0  0  0  0  0  0  0
  123.4233  111.1257  113.3828 H   0  0  0  0  0  0  0  0  0  0  0  0
  123.8667  112.2643  112.1122 H   0  0  0  0  0  0  0  0  0  0  0  0
  124.0786  108.2870  107.6685 H   0  0  0  0  0  0  0  0  0  0  0  0
  124.5409  109.9890  107.7043 H   0  0  0  0  0  0  0  0  0  0  0  0
  125.6518  108.8450  106.1999 H   0  0  0  0  0  0  0  0  0  0  0  0
  127.1782  109.2366  106.6037 H   0  0  0  0  0  0  0  0  0  0  0  0
  126.1894  107.7470  108.6056 H   0  0  0  0  0  0  0  0  0  0  0  0
  1  2  2  0  0  0  0
  1  9  1  0  0  0  0
  2  5  1  0  0  0  0
  2  6  1  0  0  0  0
  3  4  1  0  0  0  0
  3  6  2  0  0  0  0
  3  9  1  0  0  0  0
  5  8  1  0  0  0  0
  7  8  1  0  0  0  0
  1 10  1  0  0  0  0
  4 11  1  0  0  0  0
  4 12  1  0  0  0  0
  4 13  1  0  0  0  0
  5 14  1  0  0  0  0
  5 15  1  0  0  0  0
  7 16  1  0  0  0  0
  7 17  1  0  0  0  0
  8 18  1  0  0  0  0
M  END
> <FRED Chemgauss4 score>
-6.811953

$$$$
C82844521	P129492673
  -OEChem-05122015313D

 24 24  0     1  0  0  0  0  0999 V2000
  126.0550  107.8675  107.0579 C   0  0  0  0  0  0  0  0  0  0  0  0
  125.0554  109.2306  108.3514 C   0  0  0  0  0  0  0  0  0  0  0  0
  125.8315  107.1720  108.2227 C   0  0  0  0  0  0  0  0  0  0  0  0
  124.7337  107.8182  110.3902 C   0  0  0  0  0  0  0  0  0  0  0  0
  124.8562  103.3305  107.2904 C   0  0  0  0  0  0  0  0  0  0  0  0
  124.9194  104.9714  109.0409 C   0  0  0  0  0  0  0  0  0  0  0  0
  126.1675  105.7548  108.6267 C   0  0  2  0  0  0  0  0  0  0  0  0
  125.5698  109.1484  107.1445 N   0  0  0  0  0  0  0  0  0  0  0  0
  125.1909  108.0584  109.0420 N   0  0  0  0  0  0  0  0  0  0  0  0
  124.2173  104.5123  107.8635 N   0  0  0  0  0  0  0  0  0  0  0  0
  127.0916  105.8030  109.7142 O   0  0  0  0  0  0  0  0  0  0  0  0
  126.5404  107.5131  106.1599 H   0  0  0  0  0  0  0  0  0  0  0  0
  124.5776  110.1031  108.7758 H   0  0  0  0  0  0  0  0  0  0  0  0
  123.7098  107.4390  110.3366 H   0  0  0  0  0  0  0  0  0  0  0  0
  125.3879  107.0859  110.8715 H   0  0  0  0  0  0  0  0  0  0  0  0
  124.7670  108.7540  110.9552 H   0  0  0  0  0  0  0  0  0  0  0  0
  124.8830  102.5234  108.0271 H   0  0  0  0  0  0  0  0  0  0  0  0
  125.8804  103.5643  106.9871 H   0  0  0  0  0  0  0  0  0  0  0  0
  124.3005  102.9882  106.4133 H   0  0  0  0  0  0  0  0  0  0  0  0
  124.2409  105.6001  109.6279 H   0  0  0  0  0  0  0  0  0  0  0  0
  125.1839  104.0990  109.6485 H   0  0  0  0  0  0  0  0  0  0  0  0
  126.6786  105.2460  107.7999 H   0  0  0  0  0  0  0  0  0  0  0  0
  124.2037  105.2529  107.1575 H   0  0  0  0  0  0  0  0  0  0  0  0
  127.8733  106.2736  109.3882 H   0  0  0  0  0  0  0  0  0  0  0  0
  1  3  2  0  0  0  0
  1  8  1  0  0  0  0
  2  8  2  0  0  0  0
  2  9  1  0  0  0  0
  3  7  1  0  0  0  0
  3  9  1  0  0  0  0
  4  9  1  0  0  0  0
  5 10  1  0  0  0  0
  6  7  1  0  0  0  0
  6 10  1  0  0  0  0
  7 11  1  0  0  0  0
  1 12  1  0  0  0  0
  2 13  1  0  0  0  0
  4 14  1  0  0  0  0
  4 15  1  0  0  0  0
  4 16  1  0  0  0  0
  5 17  1  0  0  0  0
  5 18  1  0  0  0  0
  5 19  1  0  0  0  0
  6 20  1  0  0  0  0
  6 21  1  0  0  0  0
  7 22  1  0  0  0  0
 10 23  1  0  0  0  0
 11 24  1  0  0  0  0
M  END
> <FRED Chemgauss4 score>
-6.800474

$$$$
C72297334	P112365902
  -OEChem-05122015313D

 23 24  0     1  0  0  0  0  0999 V2000
  124.7923  108.6877  108.5570 C   0  0  0  0  0  0  0  0  0  0  0  0
  123.8382  109.0596  110.3861 C   0  0  0  0  0  0  0  0  0  0  0  0
  125.4776  106.1701  107.3787 C   0  0  0  0  0  0  0  0  0  0  0  0
  125.2875  107.4007  106.4812 C   0  0  0  0  0  0  0  0  0  0  0  0
  124.5042  106.1974  108.5589 C   0  0  0  0  0  0  0  0  0  0  0  0
  125.5125  108.7177  107.2518 C   0  0  2  0  0  0  0  0  0  0  0  0
  123.2856  109.8003  111.5259 C   0  0  0  0  0  0  0  0  0  0  0  0
  124.4510  109.6905  109.3385 N   0  0  0  0  0  0  0  0  0  0  0  0
  123.7721  107.7279  110.3082 N   0  0  0  0  0  0  0  0  0  0  0  0
  124.3921  107.5164  109.1387 N   0  0  0  0  0  0  0  0  0  0  0  0
  126.9421  108.9328  107.4837 N   0  0  0  0  0  0  0  0  0  0  0  0
  125.3270  105.2526  106.7990 H   0  0  0  0  0  0  0  0  0  0  0  0
  126.5087  106.1442  107.7524 H   0  0  0  0  0  0  0  0  0  0  0  0
  125.9594  107.3396  105.6163 H   0  0  0  0  0  0  0  0  0  0  0  0
  124.2651  107.3887  106.0802 H   0  0  0  0  0  0  0  0  0  0  0  0
  123.4975  105.9141  108.2316 H   0  0  0  0  0  0  0  0  0  0  0  0
  124.8281  105.5051  109.3428 H   0  0  0  0  0  0  0  0  0  0  0  0
  125.1314  109.5480  106.6461 H   0  0  0  0  0  0  0  0  0  0  0  0
  122.2290  110.0776  111.3562 H   0  0  0  0  0  0  0  0  0  0  0  0
  123.3248  109.2188  112.4667 H   0  0  0  0  0  0  0  0  0  0  0  0
  123.8410  110.7354  111.7313 H   0  0  0  0  0  0  0  0  0  0  0  0
  127.2070  109.5342  108.2310 H   0  0  0  0  0  0  0  0  0  0  0  0
  127.5773  108.6421  106.7747 H   0  0  0  0  0  0  0  0  0  0  0  0
  1  6  1  0  0  0  0
  1  8  2  0  0  0  0
  1 10  1  0  0  0  0
  2  7  1  0  0  0  0
  2  8  1  0  0  0  0
  2  9  2  0  0  0  0
  3  4  1  0  0  0  0
  3  5  1  0  0  0  0
  4  6  1  0  0  0  0
  5 10  1  0  0  0  0
  6 11  1  0  0  0  0
  9 10  1  0  0  0  0
  3 12  1  0  0  0  0
  3 13  1  0  0  0  0
  4 14  1  0  0  0  0
  4 15  1  0  0  0  0
  5 16  1  0  0  0  0
  5 17  1  0  0  0  0
  6 18  1  0  0  0  0
  7 19  1  0  0  0  0
  7 20  1  0  0  0  0
  7 21  1  0  0  0  0
 11 22  1  0  0  0  0
 11 23  1  0  0  0  0
M  END
> <FRED Chemgauss4 score>
-6.796931

$$$$
C86331608	P135184026
  -OEChem-05122015313D

 20 20  0     1  0  0  0  0  0999 V2000
  125.1274  104.0823  107.9709 C   0  0  0  0  0  0  0  0  0  0  0  0
  124.4717  107.6637  108.6179 C   0  0  0  0  0  0  0  0  0  0  0  0
  125.1774  106.7907  106.5402 C   0  0  0  0  0  0  0  0  0  0  0  0
  124.4467  108.7939  107.5843 C   0  0  2  0  0  0  0  0  0  0  0  0
  124.4194  108.0716  106.2426 C   0  0  1  0  0  0  0  0  0  0  0  0
  125.3953  105.4084  108.5245 C   0  0  0  0  0  0  0  0  0  0  0  0
  124.9175  103.0282  107.5335 N   0  0  0  0  0  0  0  0  0  0  0  0
  124.6132  106.4241  107.8381 N   0  0  0  0  0  0  0  0  0  0  0  0
  125.6416  109.5610  107.7044 O   0  0  0  0  0  0  0  0  0  0  0  0
  125.0184  108.8281  105.2111 O   0  0  0  0  0  0  0  0  0  0  0  0
  125.3091  107.8115  109.3349 H   0  0  0  0  0  0  0  0  0  0  0  0
  123.5441  107.6633  109.2261 H   0  0  0  0  0  0  0  0  0  0  0  0
  124.9332  106.0200  105.8215 H   0  0  0  0  0  0  0  0  0  0  0  0
  126.2460  106.9563  106.5719 H   0  0  0  0  0  0  0  0  0  0  0  0
  123.5960  109.4304  107.7214 H   0  0  0  0  0  0  0  0  0  0  0  0
  123.3594  107.8622  105.9405 H   0  0  0  0  0  0  0  0  0  0  0  0
  125.1355  105.4522  109.5861 H   0  0  0  0  0  0  0  0  0  0  0  0
  126.4506  105.6747  108.4165 H   0  0  0  0  0  0  0  0  0  0  0  0
  125.6647  109.9211  108.6087 H   0  0  0  0  0  0  0  0  0  0  0  0
  125.0230  108.2644  104.4219 H   0  0  0  0  0  0  0  0  0  0  0  0
  1  6  1  0  0  0  0
  1  7  3  0  0  0  0
  2  4  1  0  0  0  0
  2  8  1  0  0  0  0
  3  5  1  0  0  0  0
  3  8  1  0  0  0  0
  4  5  1  0  0  0  0
  4  9  1  0  0  0  0
  5 10  1  0  0  0  0
  6  8  1  0  0  0  0
  2 11  1  0  0  0  0
  2 12  1  0  0  0  0
  3 13  1  0  0  0  0
  3 14  1  0  0  0  0
  4 15  1  0  0  0  0
  5 16  1  0  0  0  0
  6 17  1  0  0  0  0
  6 18  1  0  0  0  0
  9 19  1  0  0  0  0
 10 20  1  0  0  0  0
M  END
> <FRED Chemgauss4 score>
-6.796495

$$$$
C44473341	P67172336
  -OEChem-05122015313D

 25 25  0     1  0  0  0  0  0999 V2000
  123.1424  106.7845  107.6738 C   0  0  0  0  0  0  0  0  0  0  0  0
  124.3037  107.1852  108.3614 C   0  0  0  0  0  0  0  0  0  0  0  0
  125.1365  106.0951  108.2931 C   0  0  0  0  0  0  0  0  0  0  0  0
  126.4972  105.8748  108.8187 C   0  0  0  0  0  0  0  0  0  0  0  0
  124.9058  103.8157  107.2604 C   0  0  0  0  0  0  0  0  0  0  0  0
  123.5751  108.8497  110.1519 C   0  0  0  0  0  0  0  0  0  0  0  0
  124.5701  108.5241  109.0271 C   0  0  2  0  0  0  0  0  0  0  0  0
  123.2263  105.5373  107.2033 N   0  0  0  0  0  0  0  0  0  0  0  0
  124.4502  105.1449  107.5958 N   0  0  0  0  0  0  0  0  0  0  0  0
  122.3143  109.3200  109.6403 N   0  0  0  0  0  0  0  0  0  0  0  0
  124.5770  109.6062  108.0353 N   0  0  0  0  0  0  0  0  0  0  0  0
  122.2375  107.3473  107.4945 H   0  0  0  0  0  0  0  0  0  0  0  0
  126.4673  105.4571  109.8386 H   0  0  0  0  0  0  0  0  0  0  0  0
  127.0772  105.1784  108.1889 H   0  0  0  0  0  0  0  0  0  0  0  0
  127.0831  106.8096  108.8571 H   0  0  0  0  0  0  0  0  0  0  0  0
  124.6105  103.1436  108.0704 H   0  0  0  0  0  0  0  0  0  0  0  0
  124.4498  103.5015  106.3175 H   0  0  0  0  0  0  0  0  0  0  0  0
  125.9934  103.8244  107.1468 H   0  0  0  0  0  0  0  0  0  0  0  0
  123.3540  107.9529  110.7419 H   0  0  0  0  0  0  0  0  0  0  0  0
  123.9544  109.6133  110.8393 H   0  0  0  0  0  0  0  0  0  0  0  0
  125.5748  108.4951  109.4688 H   0  0  0  0  0  0  0  0  0  0  0  0
  121.7327  109.8969  110.2257 H   0  0  0  0  0  0  0  0  0  0  0  0
  121.9421  108.9075  108.8005 H   0  0  0  0  0  0  0  0  0  0  0  0
  124.9317  109.4007  107.1304 H   0  0  0  0  0  0  0  0  0  0  0  0
  124.4231  110.5320  108.3614 H   0  0  0  0  0  0  0  0  0  0  0  0
  1  2  1  0  0  0  0
  1  8  2  0  0  0  0
  2  3  2  0  0  0  0
  2  7  1  0  0  0  0
  3  4  1  0  0  0  0
  3  9  1  0  0  0  0
  5  9  1  0  0  0  0
  6  7  1  0  0  0  0
  6 10  1  0  0  0  0
  7 11  1  0  0  0  0
  8  9  1  0  0  0  0
  1 12  1  0  0  0  0
  4 13  1  0  0  0  0
  4 14  1  0  0  0  0
  4 15  1  0  0  0  0
  5 16  1  0  0  0  0
  5 17  1  0  0  0  0
  5 18  1  0  0  0  0
  6 19  1  0  0  0  0
  6 20  1  0  0  0  0
  7 21  1  0  0  0  0
 10 22  1  0  0  0  0
 10 23  1  0  0  0  0
 11 24  1  0  0  0  0
 11 25  1  0  0  0  0
M  END
> <FRED Chemgauss4 score>
-6.791810

$$$$
C54138565	P81447022
  -OEChem-05122015313D

 21 20  0     0  0  0  0  0  0999 V2000
  126.2175  107.2986  107.4800 C   0  0  0  0  0  0  0  0  0  0  0  0
  122.0496  105.0062  106.1816 C   0  0  0  0  0  0  0  0  0  0  0  0
  125.9465  106.2606  108.4840 C   0  0  0  0  0  0  0  0  0  0  0  0
  120.8248  104.1295  106.1238 C   0  0  0  0  0  0  0  0  0  0  0  0
  124.5599  105.6469  108.2779 C   0  0  0  0  0  0  0  0  0  0  0  0
  124.4254  104.9395  106.9334 C   0  0  0  0  0  0  0  0  0  0  0  0
  126.4333  108.1183  106.6877 N   0  0  0  0  0  0  0  0  0  0  0  0
  119.7149  104.8726  105.5094 N   0  0  0  0  0  0  0  0  0  0  0  0
  123.1230  104.3391  106.7544 N   0  0  0  0  0  0  0  0  0  0  0  0
  122.0739  106.1617  105.7659 O   0  0  0  0  0  0  0  0  0  0  0  0
  126.7179  105.4852  108.4175 H   0  0  0  0  0  0  0  0  0  0  0  0
  126.0140  106.6978  109.4869 H   0  0  0  0  0  0  0  0  0  0  0  0
  121.0370  103.2389  105.5249 H   0  0  0  0  0  0  0  0  0  0  0  0
  120.5378  103.8262  107.1349 H   0  0  0  0  0  0  0  0  0  0  0  0
  123.7923  106.4268  108.3657 H   0  0  0  0  0  0  0  0  0  0  0  0
  124.3630  104.9198  109.0760 H   0  0  0  0  0  0  0  0  0  0  0  0
  124.5937  105.6309  106.1018 H   0  0  0  0  0  0  0  0  0  0  0  0
  125.1617  104.1329  106.8598 H   0  0  0  0  0  0  0  0  0  0  0  0
  118.7916  104.5769  105.7208 H   0  0  0  0  0  0  0  0  0  0  0  0
  119.9333  105.4916  104.7651 H   0  0  0  0  0  0  0  0  0  0  0  0
  122.9866  103.3811  107.0634 H   0  0  0  0  0  0  0  0  0  0  0  0
  1  3  1  0  0  0  0
  1  7  3  0  0  0  0
  2  4  1  0  0  0  0
  2  9  1  0  0  0  0
  2 10  2  0  0  0  0
  3  5  1  0  0  0  0
  4  8  1  0  0  0  0
  5  6  1  0  0  0  0
  6  9  1  0  0  0  0
  3 11  1  0  0  0  0
  3 12  1  0  0  0  0
  4 13  1  0  0  0  0
  4 14  1  0  0  0  0
  5 15  1  0  0  0  0
  5 16  1  0  0  0  0
  6 17  1  0  0  0  0
  6 18  1  0  0  0  0
  8 19  1  0  0  0  0
  8 20  1  0  0  0  0
  9 21  1  0  0  0  0
M  END
> <FRED Chemgauss4 score>
-6.786855

$$$$
C39088413	P59218791
  -OEChem-05122015313D

 21 21  0     1  0  0  0  0  0999 V2000
  124.3963  105.6434  106.6862 C   0  0  0  0  0  0  0  0  0  0  0  0
  126.3144  106.3774  108.1236 C   0  0  1  0  0  0  0  0  0  0  0  0
  124.9778  105.6423  108.0948 C   0  0  2  0  0  0  0  0  0  0  0  0
  126.2150  107.7388  107.4099 C   0  0  2  0  0  0  0  0  0  0  0  0
  125.4694  108.8155  108.2097 C   0  0  0  0  0  0  0  0  0  0  0  0
  124.3128  107.0068  106.1598 N   0  0  0  0  0  0  0  0  0  0  0  0
  125.6409  107.5708  106.0644 N   0  0  0  0  0  0  0  0  0  0  0  0
  126.7156  106.5408  109.4795 O   0  0  0  0  0  0  0  0  0  0  0  0
  125.4630  110.0050  107.4477 O   0  0  0  0  0  0  0  0  0  0  0  0
  125.1883  104.3493  108.4706 F   0  0  0  0  0  0  0  0  0  0  0  0
  124.9927  105.0023  106.0243 H   0  0  0  0  0  0  0  0  0  0  0  0
  123.3940  105.2014  106.7139 H   0  0  0  0  0  0  0  0  0  0  0  0
  127.0732  105.7531  107.6364 H   0  0  0  0  0  0  0  0  0  0  0  0
  124.2738  106.0722  108.8164 H   0  0  0  0  0  0  0  0  0  0  0  0
  127.2364  108.1130  107.2802 H   0  0  0  0  0  0  0  0  0  0  0  0
  125.9823  108.9863  109.1523 H   0  0  0  0  0  0  0  0  0  0  0  0
  124.4485  108.4901  108.3908 H   0  0  0  0  0  0  0  0  0  0  0  0
  123.9095  106.9748  105.2238 H   0  0  0  0  0  0  0  0  0  0  0  0
  125.5720  108.4826  105.6130 H   0  0  0  0  0  0  0  0  0  0  0  0
  127.5651  107.0095  109.4638 H   0  0  0  0  0  0  0  0  0  0  0  0
  124.9877  110.6776  107.9664 H   0  0  0  0  0  0  0  0  0  0  0  0
  1  3  1  0  0  0  0
  1  6  1  0  0  0  0
  2  3  1  0  0  0  0
  2  4  1  0  0  0  0
  2  8  1  0  0  0  0
  3 10  1  0  0  0  0
  4  5  1  0  0  0  0
  4  7  1  0  0  0  0
  5  9  1  0  0  0  0
  6  7  1  0  0  0  0
  1 11  1  0  0  0  0
  1 12  1  0  0  0  0
  2 13  1  0  0  0  0
  3 14  1  0  0  0  0
  4 15  1  0  0  0  0
  5 16  1  0  0  0  0
  5 17  1  0  0  0  0
  6 18  1  0  0  0  0
  7 19  1  0  0  0  0
  8 20  1  0  0  0  0
  9 21  1  0  0  0  0
M  END
> <FRED Chemgauss4 score>
-6.786237

$$$$
C37418582	P55631903
  -OEChem-05122015313D

 18 18  0     0  0  0  0  0  0999 V2000
  123.2755  104.5425  107.1249 C   0  0  0  0  0  0  0  0  0  0  0  0
  124.5730  104.9474  106.9276 C   0  0  0  0  0  0  0  0  0  0  0  0
  122.7994  105.3763  108.1544 C   0  0  0  0  0  0  0  0  0  0  0  0
  126.0105  106.7060  107.9862 C   0  0  0  0  0  0  0  0  0  0  0  0
  125.9497  108.0813  107.3352 C   0  0  0  0  0  0  0  0  0  0  0  0
  123.7196  106.2451  108.5815 N   0  0  0  0  0  0  0  0  0  0  0  0
  124.7870  105.9594  107.8165 N   0  0  0  0  0  0  0  0  0  0  0  0
  121.5302  105.2643  108.6241 N   0  0  0  0  0  0  0  0  0  0  0  0
  127.1946  108.7468  107.5044 O   0  0  0  0  0  0  0  0  0  0  0  0
  122.7577  103.7560  106.5946 H   0  0  0  0  0  0  0  0  0  0  0  0
  125.3415  104.6084  106.2466 H   0  0  0  0  0  0  0  0  0  0  0  0
  126.2022  106.7860  109.0625 H   0  0  0  0  0  0  0  0  0  0  0  0
  126.8161  106.1080  107.5447 H   0  0  0  0  0  0  0  0  0  0  0  0
  125.7698  107.9748  106.2608 H   0  0  0  0  0  0  0  0  0  0  0  0
  125.1576  108.7018  107.7667 H   0  0  0  0  0  0  0  0  0  0  0  0
  120.8593  104.6032  108.2158 H   0  0  0  0  0  0  0  0  0  0  0  0
  121.1617  105.8997  109.3413 H   0  0  0  0  0  0  0  0  0  0  0  0
  127.1088  109.6137  107.0761 H   0  0  0  0  0  0  0  0  0  0  0  0
  1  2  2  0  0  0  0
  1  3  1  0  0  0  0
  2  7  1  0  0  0  0
  3  6  2  0  0  0  0
  3  8  1  0  0  0  0
  4  5  1  0  0  0  0
  4  7  1  0  0  0  0
  5  9  1  0  0  0  0
  6  7  1  0  0  0  0
  1 10  1  0  0  0  0
  2 11  1  0  0  0  0
  4 12  1  0  0  0  0
  4 13  1  0  0  0  0
  5 14  1  0  0  0  0
  5 15  1  0  0  0  0
  8 16  1  0  0  0  0
  8 17  1  0  0  0  0
  9 18  1  0  0  0  0
M  END
> <FRED Chemgauss4 score>
-6.782580

$$$$
C97832325	P155280059
  -OEChem-05122015313D

 26 26  0     1  0  0  0  0  0999 V2000
  123.6181  108.8041  110.5493 C   0  0  0  0  0  0  0  0  0  0  0  0
  124.0188  110.6444  111.4492 C   0  0  0  0  0  0  0  0  0  0  0  0
  123.3812  113.0373  111.9655 C   0  0  0  0  0  0  0  0  0  0  0  0
  126.3905  106.1858  108.0560 C   0  0  0  0  0  0  0  0  0  0  0  0
  124.3656  109.2316  108.1505 C   0  0  0  0  0  0  0  0  0  0  0  0
  125.6276  108.4056  107.9412 C   0  0  0  0  0  0  0  0  0  0  0  0
  124.1720  111.8071  112.4060 C   0  0  1  0  0  0  0  0  0  0  0  0
  123.5397  109.4586  111.7452 N   0  0  0  0  0  0  0  0  0  0  0  0
  124.3639  110.6835  110.1343 N   0  0  0  0  0  0  0  0  0  0  0  0
  124.1157  109.5105  109.5320 N   0  0  0  0  0  0  0  0  0  0  0  0
  123.8027  111.4355  113.7526 N   0  0  0  0  0  0  0  0  0  0  0  0
  125.4891  107.1470  108.5877 O   0  0  0  0  0  0  0  0  0  0  0  0
  123.2955  107.7766  110.4367 H   0  0  0  0  0  0  0  0  0  0  0  0
  122.3112  112.8135  111.8931 H   0  0  0  0  0  0  0  0  0  0  0  0
  123.5092  113.8539  112.6850 H   0  0  0  0  0  0  0  0  0  0  0  0
  123.7147  113.4118  110.9911 H   0  0  0  0  0  0  0  0  0  0  0  0
  126.2565  105.2334  108.5748 H   0  0  0  0  0  0  0  0  0  0  0  0
  127.4170  106.5396  108.1805 H   0  0  0  0  0  0  0  0  0  0  0  0
  126.1800  106.0514  106.9923 H   0  0  0  0  0  0  0  0  0  0  0  0
  123.4843  108.7150  107.7530 H   0  0  0  0  0  0  0  0  0  0  0  0
  124.4494  110.1967  107.6376 H   0  0  0  0  0  0  0  0  0  0  0  0
  125.7753  108.2192  106.8728 H   0  0  0  0  0  0  0  0  0  0  0  0
  126.5150  108.9093  108.3382 H   0  0  0  0  0  0  0  0  0  0  0  0
  125.2302  112.0912  112.4601 H   0  0  0  0  0  0  0  0  0  0  0  0
  123.5443  112.1577  114.4008 H   0  0  0  0  0  0  0  0  0  0  0  0
  124.0049  110.5046  114.0708 H   0  0  0  0  0  0  0  0  0  0  0  0
  1  8  2  0  0  0  0
  1 10  1  0  0  0  0
  2  7  1  0  0  0  0
  2  8  1  0  0  0  0
  2  9  2  0  0  0  0
  3  7  1  0  0  0  0
  4 12  1  0  0  0  0
  5  6  1  0  0  0  0
  5 10  1  0  0  0  0
  6 12  1  0  0  0  0
  7 11  1  0  0  0  0
  9 10  1  0  0  0  0
  1 13  1  0  0  0  0
  3 14  1  0  0  0  0
  3 15  1  0  0  0  0
  3 16  1  0  0  0  0
  4 17  1  0  0  0  0
  4 18  1  0  0  0  0
  4 19  1  0  0  0  0
  5 20  1  0  0  0  0
  5 21  1  0  0  0  0
  6 22  1  0  0  0  0
  6 23  1  0  0  0  0
  7 24  1  0  0  0  0
 11 25  1  0  0  0  0
 11 26  1  0  0  0  0
M  END
> <FRED Chemgauss4 score>
-6.780951

$$$$
C38803766	P151018888
  -OEChem-05122015313D

 15 15  0     0  0  0  0  0  0999 V2000
  124.6512  106.0218  107.4989 C   0  0  0  0  0  0  0  0  0  0  0  0
  126.1106  107.4630  107.7683 C   0  0  0  0  0  0  0  0  0  0  0  0
  123.8737  104.7701  107.6518 C   0  0  0  0  0  0  0  0  0  0  0  0
  125.7752  106.2837  108.2269 N   0  0  0  0  0  0  0  0  0  0  0  0
  124.2881  106.9696  106.6296 N   0  0  0  0  0  0  0  0  0  0  0  0
  124.5314  103.6664  107.3992 N   0  0  0  0  0  0  0  0  0  0  0  0
  127.1504  108.2574  108.1067 N   0  0  0  0  0  0  0  0  0  0  0  0
  122.5438  104.7830  108.0343 N   0  0  0  0  0  0  0  0  0  0  0  0
  125.2756  107.9460  106.8113 O   0  0  0  0  0  0  0  0  0  0  0  0
  125.8525  103.9443  107.0341 O   0  0  0  0  0  0  0  0  0  0  0  0
  127.8109  108.0041  108.8553 H   0  0  0  0  0  0  0  0  0  0  0  0
  127.2775  109.1946  107.6989 H   0  0  0  0  0  0  0  0  0  0  0  0
  122.0412  105.6365  108.2496 H   0  0  0  0  0  0  0  0  0  0  0  0
  122.0349  103.9134  108.1530 H   0  0  0  0  0  0  0  0  0  0  0  0
  126.2044  103.0511  106.8817 H   0  0  0  0  0  0  0  0  0  0  0  0
  1  3  1  0  0  0  0
  1  4  1  0  0  0  0
  1  5  2  0  0  0  0
  2  4  2  0  0  0  0
  2  7  1  0  0  0  0
  2  9  1  0  0  0  0
  3  6  2  0  0  0  0
  3  8  1  0  0  0  0
  5  9  1  0  0  0  0
  6 10  1  0  0  0  0
  7 11  1  0  0  0  0
  7 12  1  0  0  0  0
  8 13  1  0  0  0  0
  8 14  1  0  0  0  0
 10 15  1  0  0  0  0
M  END
> <FRED Chemgauss4 score>
-6.778010

$$$$
C49689603	P74238009
  -OEChem-05122015313D

 29 29  0     1  0  0  0  0  0999 V2000
  121.4867  105.7157  107.4750 C   0  0  0  0  0  0  0  0  0  0  0  0
  120.2466  104.9976  106.9850 C   0  0  0  0  0  0  0  0  0  0  0  0
  122.1112  103.9665  106.0424 C   0  0  0  0  0  0  0  0  0  0  0  0
  122.5401  104.6383  107.3354 C   0  0  1  0  0  0  0  0  0  0  0  0
  123.9638  105.1602  107.3105 C   0  0  0  0  0  0  0  0  0  0  0  0
  124.6336  108.7344  108.2150 C   0  0  0  0  0  0  0  0  0  0  0  0
  125.5427  106.3757  108.5565 C   0  0  0  0  0  0  0  0  0  0  0  0
  125.5977  107.6538  107.7253 C   0  0  2  0  0  0  0  0  0  0  0  0
  124.7187  109.9230  107.3975 N   0  0  0  0  0  0  0  0  0  0  0  0
  120.6783  104.0504  105.9968 O   0  0  0  0  0  0  0  0  0  0  0  0
  126.9346  108.1553  107.7515 O   0  0  0  0  0  0  0  0  0  0  0  0
  124.2182  105.8596  108.5185 O   0  0  0  0  0  0  0  0  0  0  0  0
  121.7111  106.5636  106.8163 H   0  0  0  0  0  0  0  0  0  0  0  0
  121.3788  106.0956  108.4948 H   0  0  0  0  0  0  0  0  0  0  0  0
  119.7656  104.4387  107.7948 H   0  0  0  0  0  0  0  0  0  0  0  0
  119.5122  105.6790  106.5467 H   0  0  0  0  0  0  0  0  0  0  0  0
  122.5022  104.4824  105.1584 H   0  0  0  0  0  0  0  0  0  0  0  0
  122.4156  102.9168  105.9954 H   0  0  0  0  0  0  0  0  0  0  0  0
  122.4283  103.9261  108.1635 H   0  0  0  0  0  0  0  0  0  0  0  0
  124.1044  105.8436  106.4691 H   0  0  0  0  0  0  0  0  0  0  0  0
  124.6720  104.3319  107.2247 H   0  0  0  0  0  0  0  0  0  0  0  0
  123.6039  108.3637  108.1735 H   0  0  0  0  0  0  0  0  0  0  0  0
  124.8543  108.9967  109.2549 H   0  0  0  0  0  0  0  0  0  0  0  0
  125.7992  106.5747  109.6016 H   0  0  0  0  0  0  0  0  0  0  0  0
  126.2088  105.6057  108.1540 H   0  0  0  0  0  0  0  0  0  0  0  0
  125.3734  107.4156  106.6788 H   0  0  0  0  0  0  0  0  0  0  0  0
  124.4427  110.8038  107.7932 H   0  0  0  0  0  0  0  0  0  0  0  0
  124.8523  109.8212  106.4074 H   0  0  0  0  0  0  0  0  0  0  0  0
  126.9495  108.9247  107.1627 H   0  0  0  0  0  0  0  0  0  0  0  0
  1  2  1  0  0  0  0
  1  4  1  0  0  0  0
  2 10  1  0  0  0  0
  3  4  1  0  0  0  0
  3 10  1  0  0  0  0
  4  5  1  0  0  0  0
  5 12  1  0  0  0  0
  6  8  1  0  0  0  0
  6  9  1  0  0  0  0
  7  8  1  0  0  0  0
  7 12  1  0  0  0  0
  8 11  1  0  0  0  0
  1 13  1  0  0  0  0
  1 14  1  0  0  0  0
  2 15  1  0  0  0  0
  2 16  1  0  0  0  0
  3 17  1  0  0  0  0
  3 18  1  0  0  0  0
  4 19  1  0  0  0  0
  5 20  1  0  0  0  0
  5 21  1  0  0  0  0
  6 22  1  0  0  0  0
  6 23  1  0  0  0  0
  7 24  1  0  0  0  0
  7 25  1  0  0  0  0
  8 26  1  0  0  0  0
  9 27  1  0  0  0  0
  9 28  1  0  0  0  0
 11 29  1  0  0  0  0
M  END
> <FRED Chemgauss4 score>
-6.772301

$$$$
Glutamate
  -OEChem-05122015313D

 19 18  0     1  0  0  0  0  0999 V2000
  124.0426  106.0813  106.4486 C   0  0  0  0  0  0  0  0  0  0  0  0
  124.5806  108.8749  108.0252 C   0  0  0  0  0  0  0  0  0  0  0  0
  125.4418  105.8160  106.9447 C   0  0  0  0  0  0  0  0  0  0  0  0
  125.8522  106.6827  108.1384 C   0  0  0  0  0  0  0  0  0  0  0  0
  125.9317  108.1970  107.8822 C   0  0  1  0  0  0  0  0  0  0  0  0
  126.4550  108.5035  106.5526 N   0  0  0  0  0  0  0  0  0  0  0  0
  123.7766  106.8491  105.5329 O   0  0  0  0  0  0  0  0  0  0  0  0
  123.5317  108.3141  108.3150 O   0  0  0  0  0  0  0  0  0  0  0  0
  123.1047  105.3661  107.1177 O   0  0  0  0  0  0  0  0  0  0  0  0
  124.6551  110.2115  107.7885 O   0  0  0  0  0  0  0  0  0  0  0  0
  126.1364  105.9388  106.1066 H   0  0  0  0  0  0  0  0  0  0  0  0
  125.4950  104.7554  107.2206 H   0  0  0  0  0  0  0  0  0  0  0  0
  125.1728  106.5009  108.9809 H   0  0  0  0  0  0  0  0  0  0  0  0
  126.8404  106.3372  108.4683 H   0  0  0  0  0  0  0  0  0  0  0  0
  126.6130  108.6519  108.6115 H   0  0  0  0  0  0  0  0  0  0  0  0
  127.1734  107.9184  106.1860 H   0  0  0  0  0  0  0  0  0  0  0  0
  126.2280  109.3876  106.1528 H   0  0  0  0  0  0  0  0  0  0  0  0
  122.1812  105.5048  106.8168 H   0  0  0  0  0  0  0  0  0  0  0  0
  123.8073  110.6986  107.8660 H   0  0  0  0  0  0  0  0  0  0  0  0
  1  3  1  0  0  0  0
  1  7  2  0  0  0  0
  1  9  1  0  0  0  0
  2  5  1  0  0  0  0
  2  8  2  0  0  0  0
  2 10  1  0  0  0  0
  3  4  1  0  0  0  0
  4  5  1  0  0  0  0
  5  6  1  0  0  0  0
  3 11  1  0  0  0  0
  3 12  1  0  0  0  0
  4 13  1  0  0  0  0
  4 14  1  0  0  0  0
  5 15  1  0  0  0  0
  6 16  1  0  0  0  0
  6 17  1  0  0  0  0
  9 18  1  0  0  0  0
 10 19  1  0  0  0  0
M  END
> <FRED Chemgauss4 score>
-6.770858

$$$$
C72206524	P112174964
  -OEChem-05122015313D

 21 22  0     1  0  0  0  0  0999 V2000
  125.7382  104.5537  106.8632 C   0  0  0  0  0  0  0  0  0  0  0  0
  124.9526  104.6861  107.9842 C   0  0  0  0  0  0  0  0  0  0  0  0
  125.4330  106.6598  107.0902 C   0  0  0  0  0  0  0  0  0  0  0  0
  124.2840  108.1959  109.2066 C   0  0  0  0  0  0  0  0  0  0  0  0
  124.3437  108.8021  107.8022 C   0  0  0  0  0  0  0  0  0  0  0  0
  123.9857  106.6991  109.1326 C   0  0  0  0  0  0  0  0  0  0  0  0
  125.4676  108.1514  106.9769 C   0  0  2  0  0  0  0  0  0  0  0  0
  126.0379  105.7779  106.3175 N   0  0  0  0  0  0  0  0  0  0  0  0
  124.7743  106.0300  108.1184 N   0  0  0  0  0  0  0  0  0  0  0  0
  125.3557  108.5794  105.5833 N   0  0  0  0  0  0  0  0  0  0  0  0
  126.1028  103.6385  106.4199 H   0  0  0  0  0  0  0  0  0  0  0  0
  124.5211  103.9656  108.6648 H   0  0  0  0  0  0  0  0  0  0  0  0
  125.2437  108.3585  109.7132 H   0  0  0  0  0  0  0  0  0  0  0  0
  123.5147  108.6968  109.8044 H   0  0  0  0  0  0  0  0  0  0  0  0
  123.3706  108.6591  107.3124 H   0  0  0  0  0  0  0  0  0  0  0  0
  124.5093  109.8841  107.8732 H   0  0  0  0  0  0  0  0  0  0  0  0
  124.1892  106.2183  110.0951 H   0  0  0  0  0  0  0  0  0  0  0  0
  122.9350  106.5299  108.8705 H   0  0  0  0  0  0  0  0  0  0  0  0
  126.4340  108.4937  107.3681 H   0  0  0  0  0  0  0  0  0  0  0  0
  125.7825  108.0123  104.8845 H   0  0  0  0  0  0  0  0  0  0  0  0
  125.0427  109.5079  105.4035 H   0  0  0  0  0  0  0  0  0  0  0  0
  1  2  2  0  0  0  0
  1  8  1  0  0  0  0
  2  9  1  0  0  0  0
  3  7  1  0  0  0  0
  3  8  2  0  0  0  0
  3  9  1  0  0  0  0
  4  5  1  0  0  0  0
  4  6  1  0  0  0  0
  5  7  1  0  0  0  0
  6  9  1  0  0  0  0
  7 10  1  0  0  0  0
  1 11  1  0  0  0  0
  2 12  1  0  0  0  0
  4 13  1  0  0  0  0
  4 14  1  0  0  0  0
  5 15  1  0  0  0  0
  5 16  1  0  0  0  0
  6 17  1  0  0  0  0
  6 18  1  0  0  0  0
  7 19  1  0  0  0  0
 10 20  1  0  0  0  0
 10 21  1  0  0  0  0
M  END
> <FRED Chemgauss4 score>
-6.766477

$$$$
C82575973	P129060922
  -OEChem-05122015313D

 23 23  0     1  0  0  0  0  0999 V2000
  123.8678  112.2978  113.2964 C   0  0  0  0  0  0  0  0  0  0  0  0
  124.2299  112.6741  112.0218 C   0  0  0  0  0  0  0  0  0  0  0  0
  122.9367  110.3812  112.4661 C   0  0  0  0  0  0  0  0  0  0  0  0
  123.2981  110.7579  111.1913 C   0  0  0  0  0  0  0  0  0  0  0  0
  124.8974  108.5471  109.5630 C   0  0  0  0  0  0  0  0  0  0  0  0
  122.5182  107.7429  109.1273 C   0  0  0  0  0  0  0  0  0  0  0  0
  123.4471  108.5515  110.0358 C   0  0  2  0  0  0  0  0  0  0  0  0
  123.2148  111.1445  113.5415 N   0  0  0  0  0  0  0  0  0  0  0  0
  123.9515  111.9109  110.9463 N   0  0  0  0  0  0  0  0  0  0  0  0
  122.9080  106.3527  109.0640 N   0  0  0  0  0  0  0  0  0  0  0  0
  122.9743  109.9167  110.1424 N   0  0  0  0  0  0  0  0  0  0  0  0
  124.0909  112.9122  114.1598 H   0  0  0  0  0  0  0  0  0  0  0  0
  124.7556  113.6004  111.8255 H   0  0  0  0  0  0  0  0  0  0  0  0
  122.4114  109.4561  112.6746 H   0  0  0  0  0  0  0  0  0  0  0  0
  125.0032  108.9818  108.5630 H   0  0  0  0  0  0  0  0  0  0  0  0
  125.5240  109.1383  110.2402 H   0  0  0  0  0  0  0  0  0  0  0  0
  125.2962  107.5278  109.5381 H   0  0  0  0  0  0  0  0  0  0  0  0
  122.5321  108.1562  108.1125 H   0  0  0  0  0  0  0  0  0  0  0  0
  121.4871  107.8074  109.4915 H   0  0  0  0  0  0  0  0  0  0  0  0
  123.4152  108.1052  111.0367 H   0  0  0  0  0  0  0  0  0  0  0  0
  123.8856  106.1243  109.0458 H   0  0  0  0  0  0  0  0  0  0  0  0
  122.2127  105.6649  108.8360 H   0  0  0  0  0  0  0  0  0  0  0  0
  122.3763  110.2685  109.4061 H   0  0  0  0  0  0  0  0  0  0  0  0
  1  2  2  0  0  0  0
  1  8  1  0  0  0  0
  2  9  1  0  0  0  0
  3  4  1  0  0  0  0
  3  8  2  0  0  0  0
  4  9  2  0  0  0  0
  4 11  1  0  0  0  0
  5  7  1  0  0  0  0
  6  7  1  0  0  0  0
  6 10  1  0  0  0  0
  7 11  1  0  0  0  0
  1 12  1  0  0  0  0
  2 13  1  0  0  0  0
  3 14  1  0  0  0  0
  5 15  1  0  0  0  0
  5 16  1  0  0  0  0
  5 17  1  0  0  0  0
  6 18  1  0  0  0  0
  6 19  1  0  0  0  0
  7 20  1  0  0  0  0
 10 21  1  0  0  0  0
 10 22  1  0  0  0  0
 11 23  1  0  0  0  0
M  END
> <FRED Chemgauss4 score>
-6.764926

$$$$
C90697913	P141866415
  -OEChem-05122015313D

 19 19  0     1  0  0  0  0  0999 V2000
  126.4323  106.4408  107.9051 C   0  0  2  0  0  0  0  0  0  0  0  0
  125.8346  107.7834  107.5671 C   0  0  1  0  0  0  0  0  0  0  0  0
  125.4203  105.4706  107.3020 C   0  0  1  0  0  0  0  0  0  0  0  0
  125.2893  107.5232  106.1787 C   0  0  1  0  0  0  0  0  0  0  0  0
  124.3234  104.9949  108.2452 C   0  0  0  0  0  0  0  0  0  0  0  0
  124.8047  106.1697  106.1990 O   0  0  0  0  0  0  0  0  0  0  0  0
  126.6387  106.2662  109.2886 O   0  0  0  0  0  0  0  0  0  0  0  0
  124.2797  108.4637  105.8611 O   0  0  0  0  0  0  0  0  0  0  0  0
  123.4664  104.1164  107.5374 O   0  0  0  0  0  0  0  0  0  0  0  0
  124.7970  108.0393  108.4105 F   0  0  0  0  0  0  0  0  0  0  0  0
  127.3939  106.3313  107.3892 H   0  0  0  0  0  0  0  0  0  0  0  0
  126.5276  108.6257  107.6300 H   0  0  0  0  0  0  0  0  0  0  0  0
  125.9363  104.5919  106.8975 H   0  0  0  0  0  0  0  0  0  0  0  0
  126.0899  107.5825  105.4319 H   0  0  0  0  0  0  0  0  0  0  0  0
  123.7449  105.8463  108.6067 H   0  0  0  0  0  0  0  0  0  0  0  0
  124.7610  104.4641  109.0918 H   0  0  0  0  0  0  0  0  0  0  0  0
  127.0239  105.3804  109.4169 H   0  0  0  0  0  0  0  0  0  0  0  0
  123.9652  108.2536  104.9652 H   0  0  0  0  0  0  0  0  0  0  0  0
  122.7773  103.8281  108.1597 H   0  0  0  0  0  0  0  0  0  0  0  0
  1  2  1  0  0  0  0
  1  3  1  0  0  0  0
  1  7  1  0  0  0  0
  2  4  1  0  0  0  0
  2 10  1  0  0  0  0
  3  5  1  0  0  0  0
  3  6  1  0  0  0  0
  4  6  1  0  0  0  0
  4  8  1  0  0  0  0
  5  9  1  0  0  0  0
  1 11  1  0  0  0  0
  2 12  1  0  0  0  0
  3 13  1  0  0  0  0
  4 14  1  0  0  0  0
  5 15  1  0  0  0  0
  5 16  1  0  0  0  0
  7 17  1  0  0  0  0
  8 18  1  0  0  0  0
  9 19  1  0  0  0  0
M  END
> <FRED Chemgauss4 score>
-6.756211

$$$$
C87045598	P136260956
  -OEChem-05122015313D

 28 28  0     1  0  0  0  0  0999 V2000
  122.1530  106.1141  105.4764 C   0  0  0  0  0  0  0  0  0  0  0  0
  124.0011  105.3367  106.9785 C   0  0  0  0  0  0  0  0  0  0  0  0
  125.1899  106.0191  106.3431 C   0  0  0  0  0  0  0  0  0  0  0  0
  122.8879  106.3418  106.7604 C   0  0  1  0  0  0  0  0  0  0  0  0
  124.9172  107.4906  106.6072 C   0  0  2  0  0  0  0  0  0  0  0  0
  121.2083  104.2554  104.0985 C   0  0  0  0  0  0  0  0  0  0  0  0
  120.8314  104.2719  106.5350 C   0  0  0  0  0  0  0  0  0  0  0  0
  125.4991  107.9761  107.9283 C   0  0  0  0  0  0  0  0  0  0  0  0
  126.9149  107.7907  107.9414 N   0  0  0  0  0  0  0  0  0  0  0  0
  121.4264  104.9273  105.3731 N   0  0  0  0  0  0  0  0  0  0  0  0
  122.2197  106.9653  104.5856 O   0  0  0  0  0  0  0  0  0  0  0  0
  123.4879  107.6356  106.6582 O   0  0  0  0  0  0  0  0  0  0  0  0
  123.7946  104.3873  106.4670 H   0  0  0  0  0  0  0  0  0  0  0  0
  124.1579  105.1082  108.0380 H   0  0  0  0  0  0  0  0  0  0  0  0
  126.1123  105.6936  106.8494 H   0  0  0  0  0  0  0  0  0  0  0  0
  125.2994  105.7915  105.2738 H   0  0  0  0  0  0  0  0  0  0  0  0
  122.1730  106.3557  107.5903 H   0  0  0  0  0  0  0  0  0  0  0  0
  125.2874  108.1100  105.7917 H   0  0  0  0  0  0  0  0  0  0  0  0
  122.0143  103.5423  103.9069 H   0  0  0  0  0  0  0  0  0  0  0  0
  121.1841  104.9859  103.2853 H   0  0  0  0  0  0  0  0  0  0  0  0
  120.2574  103.7160  104.1134 H   0  0  0  0  0  0  0  0  0  0  0  0
  119.8161  104.6432  106.6968 H   0  0  0  0  0  0  0  0  0  0  0  0
  121.4269  104.4745  107.4294 H   0  0  0  0  0  0  0  0  0  0  0  0
  120.7900  103.1906  106.3790 H   0  0  0  0  0  0  0  0  0  0  0  0
  125.0626  107.4066  108.7429 H   0  0  0  0  0  0  0  0  0  0  0  0
  125.2823  109.0321  108.0539 H   0  0  0  0  0  0  0  0  0  0  0  0
  127.3178  106.9737  107.4994 H   0  0  0  0  0  0  0  0  0  0  0  0
  127.4887  108.3547  108.5565 H   0  0  0  0  0  0  0  0  0  0  0  0
  1  4  1  0  0  0  0
  1 10  1  0  0  0  0
  1 11  2  0  0  0  0
  2  3  1  0  0  0  0
  2  4  1  0  0  0  0
  3  5  1  0  0  0  0
  4 12  1  0  0  0  0
  5  8  1  0  0  0  0
  5 12  1  0  0  0  0
  6 10  1  0  0  0  0
  7 10  1  0  0  0  0
  8  9  1  0  0  0  0
  2 13  1  0  0  0  0
  2 14  1  0  0  0  0
  3 15  1  0  0  0  0
  3 16  1  0  0  0  0
  4 17  1  0  0  0  0
  5 18  1  0  0  0  0
  6 19  1  0  0  0  0
  6 20  1  0  0  0  0
  6 21  1  0  0  0  0
  7 22  1  0  0  0  0
  7 23  1  0  0  0  0
  7 24  1  0  0  0  0
  8 25  1  0  0  0  0
  8 26  1  0  0  0  0
  9 27  1  0  0  0  0
  9 28  1  0  0  0  0
M  END
> <FRED Chemgauss4 score>
-6.755167

$$$$
C85184419	P133304798
  -OEChem-05122015313D

 25 25  0     1  0  0  0  0  0999 V2000
  122.6454  106.9489  106.0380 C   0  0  0  0  0  0  0  0  0  0  0  0
  122.8523  104.9265  106.6683 C   0  0  0  0  0  0  0  0  0  0  0  0
  123.9768  106.7938  106.3443 C   0  0  0  0  0  0  0  0  0  0  0  0
  125.1245  103.3175  107.2528 C   0  0  0  0  0  0  0  0  0  0  0  0
  125.2986  104.8247  107.1783 C   0  0  0  0  0  0  0  0  0  0  0  0
  125.3593  108.5266  107.6067 C   0  0  0  0  0  0  0  0  0  0  0  0
  125.1445  107.7635  106.2903 C   0  0  2  0  0  0  0  0  0  0  0  0
  121.9508  105.7830  106.2421 N   0  0  0  0  0  0  0  0  0  0  0  0
  124.0940  105.4933  106.7470 N   0  0  0  0  0  0  0  0  0  0  0  0
  124.4257  109.6114  107.7624 N   0  0  0  0  0  0  0  0  0  0  0  0
  124.9824  108.7121  105.1819 N   0  0  0  0  0  0  0  0  0  0  0  0
  122.1493  107.8399  105.6808 H   0  0  0  0  0  0  0  0  0  0  0  0
  122.6671  103.8942  106.9327 H   0  0  0  0  0  0  0  0  0  0  0  0
  124.3257  103.0454  107.9509 H   0  0  0  0  0  0  0  0  0  0  0  0
  126.0509  102.8449  107.5932 H   0  0  0  0  0  0  0  0  0  0  0  0
  124.8680  102.9002  106.2733 H   0  0  0  0  0  0  0  0  0  0  0  0
  126.0995  105.0869  106.4778 H   0  0  0  0  0  0  0  0  0  0  0  0
  125.5774  105.2301  108.1576 H   0  0  0  0  0  0  0  0  0  0  0  0
  125.2079  107.8629  108.4656 H   0  0  0  0  0  0  0  0  0  0  0  0
  126.3669  108.9482  107.6874 H   0  0  0  0  0  0  0  0  0  0  0  0
  126.0583  107.1909  106.0840 H   0  0  0  0  0  0  0  0  0  0  0  0
  124.6710  110.3875  108.3550 H   0  0  0  0  0  0  0  0  0  0  0  0
  123.4763  109.4889  107.4500 H   0  0  0  0  0  0  0  0  0  0  0  0
  124.5474  108.3822  104.3520 H   0  0  0  0  0  0  0  0  0  0  0  0
  125.4874  109.5665  105.2282 H   0  0  0  0  0  0  0  0  0  0  0  0
  1  3  2  0  0  0  0
  1  8  1  0  0  0  0
  2  8  2  0  0  0  0
  2  9  1  0  0  0  0
  3  7  1  0  0  0  0
  3  9  1  0  0  0  0
  4  5  1  0  0  0  0
  5  9  1  0  0  0  0
  6  7  1  0  0  0  0
  6 10  1  0  0  0  0
  7 11  1  0  0  0  0
  1 12  1  0  0  0  0
  2 13  1  0  0  0  0
  4 14  1  0  0  0  0
  4 15  1  0  0  0  0
  4 16  1  0  0  0  0
  5 17  1  0  0  0  0
  5 18  1  0  0  0  0
  6 19  1  0  0  0  0
  6 20  1  0  0  0  0
  7 21  1  0  0  0  0
 10 22  1  0  0  0  0
 10 23  1  0  0  0  0
 11 24  1  0  0  0  0
 11 25  1  0  0  0  0
M  END
> <FRED Chemgauss4 score>
-6.753784

$$$$
C36853404	P120837088
  -OEChem-05122015313D

 17 17  0     1  0  0  0  0  0999 V2000
  123.9123  109.4519  109.9040 C   0  0  0  0  0  0  0  0  0  0  0  0
  125.1942  109.0177  108.0387 C   0  0  0  0  0  0  0  0  0  0  0  0
  123.9112  107.9538  109.7770 C   0  0  0  0  0  0  0  0  0  0  0  0
  124.8087  107.6655  108.5791 C   0  0  2  0  0  0  0  0  0  0  0  0
  126.9088  106.7927  107.8118 C   0  0  0  0  0  0  0  0  0  0  0  0
  124.6351  109.9668  108.8582 N   0  0  0  0  0  0  0  0  0  0  0  0
  126.0293  106.9700  108.9599 N   0  0  0  0  0  0  0  0  0  0  0  0
  123.3462  110.0777  110.7882 O   0  0  0  0  0  0  0  0  0  0  0  0
  125.8966  109.2165  107.0581 O   0  0  0  0  0  0  0  0  0  0  0  0
  124.2705  107.5038  110.7081 H   0  0  0  0  0  0  0  0  0  0  0  0
  122.8883  107.6100  109.5917 H   0  0  0  0  0  0  0  0  0  0  0  0
  124.2682  107.1018  107.8118 H   0  0  0  0  0  0  0  0  0  0  0  0
  126.4015  106.2137  107.0358 H   0  0  0  0  0  0  0  0  0  0  0  0
  127.8170  106.2619  108.1099 H   0  0  0  0  0  0  0  0  0  0  0  0
  127.1907  107.7647  107.3981 H   0  0  0  0  0  0  0  0  0  0  0  0
  124.7468  110.9628  108.7036 H   0  0  0  0  0  0  0  0  0  0  0  0
  126.5163  107.5113  109.6742 H   0  0  0  0  0  0  0  0  0  0  0  0
  1  3  1  0  0  0  0
  1  6  1  0  0  0  0
  1  8  2  0  0  0  0
  2  4  1  0  0  0  0
  2  6  1  0  0  0  0
  2  9  2  0  0  0  0
  3  4  1  0  0  0  0
  4  7  1  0  0  0  0
  5  7  1  0  0  0  0
  3 10  1  0  0  0  0
  3 11  1  0  0  0  0
  4 12  1  0  0  0  0
  5 13  1  0  0  0  0
  5 14  1  0  0  0  0
  5 15  1  0  0  0  0
  6 16  1  0  0  0  0
  7 17  1  0  0  0  0
M  END
> <FRED Chemgauss4 score>
-6.745138

$$$$
C38803740	P58769686
  -OEChem-05122015313D

 13 13  0     0  0  0  0  0  0999 V2000
  124.5376  108.8368  108.6976 C   0  0  0  0  0  0  0  0  0  0  0  0
  123.3432  108.2180  110.2692 C   0  0  0  0  0  0  0  0  0  0  0  0
  125.3591  108.7999  107.5264 C   0  0  0  0  0  0  0  0  0  0  0  0
  123.9923  107.7146  109.2499 N   0  0  0  0  0  0  0  0  0  0  0  0
  124.2582  109.9856  109.3206 N   0  0  0  0  0  0  0  0  0  0  0  0
  122.5927  107.5977  111.2065 N   0  0  0  0  0  0  0  0  0  0  0  0
  126.7443  108.6440  107.6832 N   0  0  0  0  0  0  0  0  0  0  0  0
  124.8849  108.9183  106.3695 O   0  0  0  0  0  0  0  0  0  0  0  0
  123.4494  109.5677  110.3849 O   0  0  0  0  0  0  0  0  0  0  0  0
  122.4102  106.5844  111.1782 H   0  0  0  0  0  0  0  0  0  0  0  0
  122.0907  108.1204  111.9385 H   0  0  0  0  0  0  0  0  0  0  0  0
  127.1246  108.5619  108.6199 H   0  0  0  0  0  0  0  0  0  0  0  0
  127.3793  108.6104  106.8922 H   0  0  0  0  0  0  0  0  0  0  0  0
  1  3  1  0  0  0  0
  1  4  1  0  0  0  0
  1  5  2  0  0  0  0
  2  4  2  0  0  0  0
  2  6  1  0  0  0  0
  2  9  1  0  0  0  0
  3  7  1  0  0  0  0
  3  8  2  0  0  0  0
  5  9  1  0  0  0  0
  6 10  1  0  0  0  0
  6 11  1  0  0  0  0
  7 12  1  0  0  0  0
  7 13  1  0  0  0  0
M  END
> <FRED Chemgauss4 score>
-6.742354

$$$$
C70184805	P108186127
  -OEChem-05122015313D

 23 23  0     1  0  0  0  0  0999 V2000
  118.6486  104.0180  106.2755 C   0  0  0  0  0  0  0  0  0  0  0  0
  117.8355  103.6117  105.2439 C   0  0  0  0  0  0  0  0  0  0  0  0
  118.8046  105.5394  104.7950 C   0  0  0  0  0  0  0  0  0  0  0  0
  116.7574  107.6083  103.9521 C   0  0  0  0  0  0  0  0  0  0  0  0
  117.2702  104.6197  103.0268 C   0  0  0  0  0  0  0  0  0  0  0  0
  118.1993  107.9445  104.3129 C   0  0  0  0  0  0  0  0  0  0  0  0
  119.1672  106.7867  104.0148 C   0  0  1  0  0  0  0  0  0  0  0  0
  119.2487  105.2189  105.9901 N   0  0  0  0  0  0  0  0  0  0  0  0
  117.9454  104.5965  104.3030 N   0  0  0  0  0  0  0  0  0  0  0  0
  120.5407  107.1618  104.2669 N   0  0  0  0  0  0  0  0  0  0  0  0
  118.8323  103.5071  107.2093 H   0  0  0  0  0  0  0  0  0  0  0  0
  117.2119  102.7397  105.1043 H   0  0  0  0  0  0  0  0  0  0  0  0
  116.4211  106.7090  104.4779 H   0  0  0  0  0  0  0  0  0  0  0  0
  116.0965  108.4333  104.2364 H   0  0  0  0  0  0  0  0  0  0  0  0
  116.6431  107.4426  102.8764 H   0  0  0  0  0  0  0  0  0  0  0  0
  116.3118  105.1279  103.1615 H   0  0  0  0  0  0  0  0  0  0  0  0
  117.8869  105.1534  102.2983 H   0  0  0  0  0  0  0  0  0  0  0  0
  117.1151  103.5938  102.6814 H   0  0  0  0  0  0  0  0  0  0  0  0
  118.4951  108.8488  103.7663 H   0  0  0  0  0  0  0  0  0  0  0  0
  118.2383  108.1928  105.3812 H   0  0  0  0  0  0  0  0  0  0  0  0
  119.1205  106.5630  102.9417 H   0  0  0  0  0  0  0  0  0  0  0  0
  120.8245  108.1076  104.0864 H   0  0  0  0  0  0  0  0  0  0  0  0
  121.2197  106.4379  104.4174 H   0  0  0  0  0  0  0  0  0  0  0  0
  1  2  2  0  0  0  0
  1  8  1  0  0  0  0
  2  9  1  0  0  0  0
  3  7  1  0  0  0  0
  3  8  2  0  0  0  0
  3  9  1  0  0  0  0
  4  6  1  0  0  0  0
  5  9  1  0  0  0  0
  6  7  1  0  0  0  0
  7 10  1  0  0  0  0
  1 11  1  0  0  0  0
  2 12  1  0  0  0  0
  4 13  1  0  0  0  0
  4 14  1  0  0  0  0
  4 15  1  0  0  0  0
  5 16  1  0  0  0  0
  5 17  1  0  0  0  0
  5 18  1  0  0  0  0
  6 19  1  0  0  0  0
  6 20  1  0  0  0  0
  7 21  1  0  0  0  0
 10 22  1  0  0  0  0
 10 23  1  0  0  0  0
M  END
> <FRED Chemgauss4 score>
-6.740990

$$$$
C98245623	P156263510
  -OEChem-05122015313D

 27 27  0     0  0  0  0  0  0999 V2000
  125.4208  105.1215  108.1139 C   0  0  0  0  0  0  0  0  0  0  0  0
  124.9813  106.9300  106.7546 C   0  0  0  0  0  0  0  0  0  0  0  0
  126.2742  106.2338  108.6514 C   0  0  0  0  0  0  0  0  0  0  0  0
  125.9821  107.4271  107.7571 C   0  0  0  0  0  0  0  0  0  0  0  0
  123.7830  104.8118  106.2631 C   0  0  0  0  0  0  0  0  0  0  0  0
  119.2178  103.4621  105.6929 C   0  0  0  0  0  0  0  0  0  0  0  0
  122.3873  104.9456  106.8442 C   0  0  0  0  0  0  0  0  0  0  0  0
  120.1497  104.2839  106.5645 C   0  0  0  0  0  0  0  0  0  0  0  0
  124.7120  105.6101  107.0398 N   0  0  0  0  0  0  0  0  0  0  0  0
  119.2248  104.0001  104.3133 N   0  0  0  0  0  0  0  0  0  0  0  0
  125.3980  103.9916  108.5822 O   0  0  0  0  0  0  0  0  0  0  0  0
  124.5152  107.6158  105.8551 O   0  0  0  0  0  0  0  0  0  0  0  0
  121.4743  104.1899  106.0586 O   0  0  0  0  0  0  0  0  0  0  0  0
  126.0030  106.4385  109.6913 H   0  0  0  0  0  0  0  0  0  0  0  0
  127.3288  105.9472  108.6018 H   0  0  0  0  0  0  0  0  0  0  0  0
  126.8841  107.7691  107.2410 H   0  0  0  0  0  0  0  0  0  0  0  0
  125.5537  108.2572  108.3264 H   0  0  0  0  0  0  0  0  0  0  0  0
  124.1237  103.7717  106.2842 H   0  0  0  0  0  0  0  0  0  0  0  0
  123.8021  105.1741  105.2308 H   0  0  0  0  0  0  0  0  0  0  0  0
  119.5318  102.4142  105.6540 H   0  0  0  0  0  0  0  0  0  0  0  0
  118.1937  103.5153  106.0745 H   0  0  0  0  0  0  0  0  0  0  0  0
  122.0693  105.9925  106.8183 H   0  0  0  0  0  0  0  0  0  0  0  0
  122.3452  104.5852  107.8772 H   0  0  0  0  0  0  0  0  0  0  0  0
  120.1498  103.8920  107.5864 H   0  0  0  0  0  0  0  0  0  0  0  0
  119.8552  105.3381  106.5865 H   0  0  0  0  0  0  0  0  0  0  0  0
  118.4258  103.8260  103.7598 H   0  0  0  0  0  0  0  0  0  0  0  0
  120.0907  104.3176  103.9601 H   0  0  0  0  0  0  0  0  0  0  0  0
  1  3  1  0  0  0  0
  1  9  1  0  0  0  0
  1 11  2  0  0  0  0
  2  4  1  0  0  0  0
  2  9  1  0  0  0  0
  2 12  2  0  0  0  0
  3  4  1  0  0  0  0
  5  7  1  0  0  0  0
  5  9  1  0  0  0  0
  6  8  1  0  0  0  0
  6 10  1  0  0  0  0
  7 13  1  0  0  0  0
  8 13  1  0  0  0  0
  3 14  1  0  0  0  0
  3 15  1  0  0  0  0
  4 16  1  0  0  0  0
  4 17  1  0  0  0  0
  5 18  1  0  0  0  0
  5 19  1  0  0  0  0
  6 20  1  0  0  0  0
  6 21  1  0  0  0  0
  7 22  1  0  0  0  0
  7 23  1  0  0  0  0
  8 24  1  0  0  0  0
  8 25  1  0  0  0  0
 10 26  1  0  0  0  0
 10 27  1  0  0  0  0
M  END
> <FRED Chemgauss4 score>
-6.740199

$$$$
C95534816	P150162202
  -OEChem-05122015313D

 28 28  0     1  0  0  0  0  0999 V2000
  123.3260  106.6259  106.1235 C   0  0  0  0  0  0  0  0  0  0  0  0
  121.7237  105.2880  106.1254 C   0  0  0  0  0  0  0  0  0  0  0  0
  120.7747  104.1853  106.3617 C   0  0  0  0  0  0  0  0  0  0  0  0
  126.9432  106.8256  107.5385 C   0  0  0  0  0  0  0  0  0  0  0  0
  124.8975  106.7229  108.9630 C   0  0  0  0  0  0  0  0  0  0  0  0
  120.3689  106.4576  104.3477 C   0  0  0  0  0  0  0  0  0  0  0  0
  124.6562  107.2608  106.4875 C   0  0  1  0  0  0  0  0  0  0  0  0
  125.4519  106.4664  107.5545 C   0  0  0  0  0  0  0  0  0  0  0  0
  122.8778  105.4823  106.7201 N   0  0  0  0  0  0  0  0  0  0  0  0
  122.5217  107.1515  105.1971 N   0  0  0  0  0  0  0  0  0  0  0  0
  121.5044  106.2769  105.2177 N   0  0  0  0  0  0  0  0  0  0  0  0
  125.4133  107.4243  105.2650 N   0  0  0  0  0  0  0  0  0  0  0  0
  120.0496  104.4447  107.1514 H   0  0  0  0  0  0  0  0  0  0  0  0
  120.2011  103.9285  105.4538 H   0  0  0  0  0  0  0  0  0  0  0  0
  121.2854  103.2560  106.6701 H   0  0  0  0  0  0  0  0  0  0  0  0
  127.0953  107.8936  107.7284 H   0  0  0  0  0  0  0  0  0  0  0  0
  127.4853  106.2658  108.3085 H   0  0  0  0  0  0  0  0  0  0  0  0
  127.4053  106.5806  106.5772 H   0  0  0  0  0  0  0  0  0  0  0  0
  124.9579  107.7846  109.2255 H   0  0  0  0  0  0  0  0  0  0  0  0
  125.4630  106.1574  109.7117 H   0  0  0  0  0  0  0  0  0  0  0  0
  123.8514  106.4108  109.0429 H   0  0  0  0  0  0  0  0  0  0  0  0
  119.6323  107.0679  104.8768 H   0  0  0  0  0  0  0  0  0  0  0  0
  120.6898  106.9566  103.4291 H   0  0  0  0  0  0  0  0  0  0  0  0
  119.9475  105.4804  104.0959 H   0  0  0  0  0  0  0  0  0  0  0  0
  124.4898  108.2791  106.8624 H   0  0  0  0  0  0  0  0  0  0  0  0
  125.3605  105.3898  107.3596 H   0  0  0  0  0  0  0  0  0  0  0  0
  126.4085  107.5350  105.3253 H   0  0  0  0  0  0  0  0  0  0  0  0
  124.9193  107.6266  104.4155 H   0  0  0  0  0  0  0  0  0  0  0  0
  1  7  1  0  0  0  0
  1  9  1  0  0  0  0
  1 10  2  0  0  0  0
  2  3  1  0  0  0  0
  2  9  2  0  0  0  0
  2 11  1  0  0  0  0
  4  8  1  0  0  0  0
  5  8  1  0  0  0  0
  6 11  1  0  0  0  0
  7  8  1  0  0  0  0
  7 12  1  0  0  0  0
 10 11  1  0  0  0  0
  3 13  1  0  0  0  0
  3 14  1  0  0  0  0
  3 15  1  0  0  0  0
  4 16  1  0  0  0  0
  4 17  1  0  0  0  0
  4 18  1  0  0  0  0
  5 19  1  0  0  0  0
  5 20  1  0  0  0  0
  5 21  1  0  0  0  0
  6 22  1  0  0  0  0
  6 23  1  0  0  0  0
  6 24  1  0  0  0  0
  7 25  1  0  0  0  0
  8 26  1  0  0  0  0
 12 27  1  0  0  0  0
 12 28  1  0  0  0  0
M  END
> <FRED Chemgauss4 score>
-6.734163

$$$$
C83812008	P131108696
  -OEChem-05122015313D

 18 18  0     1  0  0  0  0  0999 V2000
  124.8885  106.8354  106.5830 C   0  0  0  0  0  0  0  0  0  0  0  0
  126.2709  108.2677  107.1460 C   0  0  0  0  0  0  0  0  0  0  0  0
  124.1232  104.6018  107.4943 C   0  0  0  0  0  0  0  0  0  0  0  0
  123.9644  105.6521  106.3918 C   0  0  1  0  0  0  0  0  0  0  0  0
  125.7704  107.0561  107.5248 N   0  0  0  0  0  0  0  0  0  0  0  0
  125.7454  108.7916  106.0346 N   0  0  0  0  0  0  0  0  0  0  0  0
  127.2403  108.8357  107.9085 N   0  0  0  0  0  0  0  0  0  0  0  0
  122.5873  106.0867  106.2945 N   0  0  0  0  0  0  0  0  0  0  0  0
  124.8092  107.8225  105.6525 O   0  0  0  0  0  0  0  0  0  0  0  0
  123.7912  105.1857  108.7498 O   0  0  0  0  0  0  0  0  0  0  0  0
  123.4438  103.7578  107.3315 H   0  0  0  0  0  0  0  0  0  0  0  0
  125.1486  104.2207  107.5527 H   0  0  0  0  0  0  0  0  0  0  0  0
  124.1771  105.1752  105.4266 H   0  0  0  0  0  0  0  0  0  0  0  0
  127.5669  108.4011  108.7794 H   0  0  0  0  0  0  0  0  0  0  0  0
  127.6184  109.7663  107.6965 H   0  0  0  0  0  0  0  0  0  0  0  0
  121.8582  105.4254  106.4879 H   0  0  0  0  0  0  0  0  0  0  0  0
  122.3886  106.9616  105.8457 H   0  0  0  0  0  0  0  0  0  0  0  0
  123.9042  104.4910  109.4175 H   0  0  0  0  0  0  0  0  0  0  0  0
  1  4  1  0  0  0  0
  1  5  2  0  0  0  0
  1  9  1  0  0  0  0
  2  5  1  0  0  0  0
  2  6  2  0  0  0  0
  2  7  1  0  0  0  0
  3  4  1  0  0  0  0
  3 10  1  0  0  0  0
  4  8  1  0  0  0  0
  6  9  1  0  0  0  0
  3 11  1  0  0  0  0
  3 12  1  0  0  0  0
  4 13  1  0  0  0  0
  7 14  1  0  0  0  0
  7 15  1  0  0  0  0
  8 16  1  0  0  0  0
  8 17  1  0  0  0  0
 10 18  1  0  0  0  0
M  END
> <FRED Chemgauss4 score>
-6.726677

$$$$
C14516428	P134522179
  -OEChem-05122015313D

 20 20  0     1  0  0  0  0  0999 V2000
  126.4192  107.9033  107.0419 C   0  0  0  0  0  0  0  0  0  0  0  0
  124.8946  108.9351  108.7101 C   0  0  0  0  0  0  0  0  0  0  0  0
  125.9272  106.5335  107.4595 C   0  0  1  0  0  0  0  0  0  0  0  0
  124.4616  107.5421  109.1320 C   0  0  1  0  0  0  0  0  0  0  0  0
  126.9144  105.8799  108.4218 C   0  0  0  0  0  0  0  0  0  0  0  0
  123.0198  107.5458  109.6337 C   0  0  0  0  0  0  0  0  0  0  0  0
  125.8757  108.9786  107.7284 N   0  0  0  0  0  0  0  0  0  0  0  0
  124.5690  106.6355  107.9916 N   0  0  0  0  0  0  0  0  0  0  0  0
  127.2869  108.0363  106.1780 O   0  0  0  0  0  0  0  0  0  0  0  0
  124.4503  109.9534  109.2405 O   0  0  0  0  0  0  0  0  0  0  0  0
  125.8733  105.9175  106.5537 H   0  0  0  0  0  0  0  0  0  0  0  0
  125.1053  107.2182  109.9569 H   0  0  0  0  0  0  0  0  0  0  0  0
  126.9895  106.4709  109.3338 H   0  0  0  0  0  0  0  0  0  0  0  0
  127.8977  105.8164  107.9575 H   0  0  0  0  0  0  0  0  0  0  0  0
  126.5754  104.8762  108.6754 H   0  0  0  0  0  0  0  0  0  0  0  0
  122.3512  107.8643  108.8353 H   0  0  0  0  0  0  0  0  0  0  0  0
  122.9226  108.2313  110.4742 H   0  0  0  0  0  0  0  0  0  0  0  0
  122.7380  106.5445  109.9561 H   0  0  0  0  0  0  0  0  0  0  0  0
  126.2344  109.8982  107.4869 H   0  0  0  0  0  0  0  0  0  0  0  0
  123.9335  106.9359  107.2522 H   0  0  0  0  0  0  0  0  0  0  0  0
  1  3  1  0  0  0  0
  1  7  1  0  0  0  0
  1  9  2  0  0  0  0
  2  4  1  0  0  0  0
  2  7  1  0  0  0  0
  2 10  2  0  0  0  0
  3  5  1  0  0  0  0
  3  8  1  0  0  0  0
  4  6  1  0  0  0  0
  4  8  1  0  0  0  0
  3 11  1  0  0  0  0
  4 12  1  0  0  0  0
  5 13  1  0  0  0  0
  5 14  1  0  0  0  0
  5 15  1  0  0  0  0
  6 16  1  0  0  0  0
  6 17  1  0  0  0  0
  6 18  1  0  0  0  0
  7 19  1  0  0  0  0
  8 20  1  0  0  0  0
M  END
> <FRED Chemgauss4 score>
-6.722568

$$$$
C39059147	P59177984
  -OEChem-05122015313D

 21 21  0     1  0  0  0  0  0999 V2000
  124.0762  107.1857  106.7804 C   0  0  0  0  0  0  0  0  0  0  0  0
  125.5336  107.4110  106.4062 C   0  0  2  0  0  0  0  0  0  0  0  0
  126.1958  107.8760  107.7032 C   0  0  1  0  0  0  0  0  0  0  0  0
  125.1478  107.6624  108.8071 C   0  0  1  0  0  0  0  0  0  0  0  0
  124.5430  108.9931  109.2626 C   0  0  0  0  0  0  0  0  0  0  0  0
  124.0855  106.8289  108.2059 N   0  0  2  0  0  0  0  0  0  0  0  0
  125.6244  108.4123  105.4052 O   0  0  0  0  0  0  0  0  0  0  0  0
  127.3464  107.0756  107.9609 O   0  0  0  0  0  0  0  0  0  0  0  0
  124.3535  109.8144  108.1251 O   0  0  0  0  0  0  0  0  0  0  0  0
  124.6218  105.4731  108.2319 O   0  0  0  0  0  0  0  0  0  0  0  0
  123.4298  108.0410  106.5708 H   0  0  0  0  0  0  0  0  0  0  0  0
  123.6866  106.3268  106.2261 H   0  0  0  0  0  0  0  0  0  0  0  0
  125.9796  106.4906  106.0106 H   0  0  0  0  0  0  0  0  0  0  0  0
  126.5255  108.9225  107.6371 H   0  0  0  0  0  0  0  0  0  0  0  0
  125.5536  107.1814  109.6608 H   0  0  0  0  0  0  0  0  0  0  0  0
  125.2195  109.4902  109.9576 H   0  0  0  0  0  0  0  0  0  0  0  0
  123.5817  108.8187  109.7457 H   0  0  0  0  0  0  0  0  0  0  0  0
  125.1206  108.0900  104.6404 H   0  0  0  0  0  0  0  0  0  0  0  0
  127.7369  107.4007  108.7890 H   0  0  0  0  0  0  0  0  0  0  0  0
  123.9696  110.6514  108.4378 H   0  0  0  0  0  0  0  0  0  0  0  0
  124.5948  105.3170  109.1897 H   0  0  0  0  0  0  0  0  0  0  0  0
  1  2  1  0  0  0  0
  1  6  1  0  0  0  0
  2  3  1  0  0  0  0
  2  7  1  0  0  0  0
  3  4  1  0  0  0  0
  3  8  1  0  0  0  0
  4  5  1  0  0  0  0
  4  6  1  0  0  0  0
  5  9  1  0  0  0  0
  6 10  1  0  0  0  0
  1 11  1  0  0  0  0
  1 12  1  0  0  0  0
  2 13  1  0  0  0  0
  3 14  1  0  0  0  0
  4 15  1  0  0  0  0
  5 16  1  0  0  0  0
  5 17  1  0  0  0  0
  7 18  1  0  0  0  0
  8 19  1  0  0  0  0
  9 20  1  0  0  0  0
 10 21  1  0  0  0  0
M  END
> <FRED Chemgauss4 score>
-6.703464

$$$$
C82596055	P129090670
  -OEChem-05122015313D

 29 28  0     1  0  0  0  0  0999 V2000
  123.5107  104.7382  106.9297 C   0  0  0  0  0  0  0  0  0  0  0  0
  124.7504  109.8259  109.3180 C   0  0  0  0  0  0  0  0  0  0  0  0
  125.5854  104.8327  108.1376 C   0  0  0  0  0  0  0  0  0  0  0  0
  125.0134  106.5825  106.5936 C   0  0  0  0  0  0  0  0  0  0  0  0
  126.2897  105.6474  109.2071 C   0  0  0  0  0  0  0  0  0  0  0  0
  123.7463  108.5417  107.6254 C   0  0  0  0  0  0  0  0  0  0  0  0
  124.0353  107.7394  106.3545 C   0  0  1  0  0  0  0  0  0  0  0  0
  124.5674  108.6213  105.3357 N   0  0  0  0  0  0  0  0  0  0  0  0
  124.4953  105.6199  107.5591 N   0  0  1  0  0  0  0  0  0  0  0  0
  126.8489  106.8152  108.6195 O   0  0  0  0  0  0  0  0  0  0  0  0
  124.9615  109.0976  108.1172 O   0  0  0  0  0  0  0  0  0  0  0  0
  122.6983  105.3292  106.4988 H   0  0  0  0  0  0  0  0  0  0  0  0
  123.0917  104.0506  107.6693 H   0  0  0  0  0  0  0  0  0  0  0  0
  123.9807  104.1536  106.1343 H   0  0  0  0  0  0  0  0  0  0  0  0
  125.7005  110.2378  109.6671 H   0  0  0  0  0  0  0  0  0  0  0  0
  124.3274  109.1635  110.0774 H   0  0  0  0  0  0  0  0  0  0  0  0
  124.0524  110.6429  109.1203 H   0  0  0  0  0  0  0  0  0  0  0  0
  126.2733  104.5558  107.3324 H   0  0  0  0  0  0  0  0  0  0  0  0
  125.1572  103.9240  108.5712 H   0  0  0  0  0  0  0  0  0  0  0  0
  125.9686  106.9742  106.9638 H   0  0  0  0  0  0  0  0  0  0  0  0
  125.2269  106.0657  105.6504 H   0  0  0  0  0  0  0  0  0  0  0  0
  127.1066  105.0650  109.6446 H   0  0  0  0  0  0  0  0  0  0  0  0
  125.6004  105.9489  110.0026 H   0  0  0  0  0  0  0  0  0  0  0  0
  123.0462  109.3608  107.4282 H   0  0  0  0  0  0  0  0  0  0  0  0
  123.3334  107.9057  108.4142 H   0  0  0  0  0  0  0  0  0  0  0  0
  123.0945  107.3533  105.9427 H   0  0  0  0  0  0  0  0  0  0  0  0
  124.2316  109.5649  105.2937 H   0  0  0  0  0  0  0  0  0  0  0  0
  125.0942  108.2221  104.5820 H   0  0  0  0  0  0  0  0  0  0  0  0
  127.2873  107.3049  109.3338 H   0  0  0  0  0  0  0  0  0  0  0  0
  1  9  1  0  0  0  0
  2 11  1  0  0  0  0
  3  5  1  0  0  0  0
  3  9  1  0  0  0  0
  4  7  1  0  0  0  0
  4  9  1  0  0  0  0
  5 10  1  0  0  0  0
  6  7  1  0  0  0  0
  6 11  1  0  0  0  0
  7  8  1  0  0  0  0
  1 12  1  0  0  0  0
  1 13  1  0  0  0  0
  1 14  1  0  0  0  0
  2 15  1  0  0  0  0
  2 16  1  0  0  0  0
  2 17  1  0  0  0  0
  3 18  1  0  0  0  0
  3 19  1  0  0  0  0
  4 20  1  0  0  0  0
  4 21  1  0  0  0  0
  5 22  1  0  0  0  0
  5 23  1  0  0  0  0
  6 24  1  0  0  0  0
  6 25  1  0  0  0  0
  7 26  1  0  0  0  0
  8 27  1  0  0  0  0
  8 28  1  0  0  0  0
 10 29  1  0  0  0  0
M  END
> <FRED Chemgauss4 score>
-6.700847

$$$$
C19801101	P29402537
  -OEChem-05122015313D

 14 14  0     0  0  0  0  0  0999 V2000
  125.8280  107.6666  107.0680 C   0  0  0  0  0  0  0  0  0  0  0  0
  125.2588  106.6460  107.7855 C   0  0  0  0  0  0  0  0  0  0  0  0
  123.4064  106.8221  106.5059 C   0  0  0  0  0  0  0  0  0  0  0  0
  122.0308  106.3638  106.1637 C   0  0  0  0  0  0  0  0  0  0  0  0
  125.1596  108.2579  106.0613 N   0  0  0  0  0  0  0  0  0  0  0  0
  124.0235  106.1956  107.5187 N   0  0  0  0  0  0  0  0  0  0  0  0
  123.9146  107.8285  105.7677 N   0  0  0  0  0  0  0  0  0  0  0  0
  126.0068  106.0622  108.8318 N   0  0  0  0  0  0  0  0  0  0  0  0
  126.8226  108.0474  107.2638 H   0  0  0  0  0  0  0  0  0  0  0  0
  121.2847  106.9286  106.7368 H   0  0  0  0  0  0  0  0  0  0  0  0
  121.8194  106.4964  105.0941 H   0  0  0  0  0  0  0  0  0  0  0  0
  121.8994  105.2952  106.3818 H   0  0  0  0  0  0  0  0  0  0  0  0
  126.9427  106.3725  108.9917 H   0  0  0  0  0  0  0  0  0  0  0  0
  125.6213  105.2871  109.3304 H   0  0  0  0  0  0  0  0  0  0  0  0
  1  2  1  0  0  0  0
  1  5  2  0  0  0  0
  2  6  2  0  0  0  0
  2  8  1  0  0  0  0
  3  4  1  0  0  0  0
  3  6  1  0  0  0  0
  3  7  2  0  0  0  0
  5  7  1  0  0  0  0
  1  9  1  0  0  0  0
  4 10  1  0  0  0  0
  4 11  1  0  0  0  0
  4 12  1  0  0  0  0
  8 13  1  0  0  0  0
  8 14  1  0  0  0  0
M  END
> <FRED Chemgauss4 score>
-6.685602

$$$$
C95641616	P150394477
  -OEChem-05122015313D

 21 21  0     1  0  0  0  0  0999 V2000
  122.9264  105.3015  106.7439 C   0  0  0  0  0  0  0  0  0  0  0  0
  124.0906  105.4576  107.4880 C   0  0  0  0  0  0  0  0  0  0  0  0
  122.6032  106.2915  105.8300 C   0  0  0  0  0  0  0  0  0  0  0  0
  124.8847  106.5830  107.2981 C   0  0  0  0  0  0  0  0  0  0  0  0
  124.4740  107.5155  106.3592 C   0  0  0  0  0  0  0  0  0  0  0  0
  126.4021  105.5945  109.0973 C   0  0  0  0  0  0  0  0  0  0  0  0
  126.1560  106.7483  108.1126 C   0  0  1  0  0  0  0  0  0  0  0  0
  123.3496  107.3984  105.6177 N   0  0  0  0  0  0  0  0  0  0  0  0
  127.5944  105.7947  109.8790 N   0  0  0  0  0  0  0  0  0  0  0  0
  127.3223  106.9029  107.2349 N   0  0  0  0  0  0  0  0  0  0  0  0
  125.3687  108.9486  106.0358 Cl  0  0  0  0  0  0  0  0  0  0  0  0
  122.2924  104.4320  106.8747 H   0  0  0  0  0  0  0  0  0  0  0  0
  124.3701  104.6976  108.2125 H   0  0  0  0  0  0  0  0  0  0  0  0
  121.7056  106.2173  105.2252 H   0  0  0  0  0  0  0  0  0  0  0  0
  125.5744  105.5144  109.8112 H   0  0  0  0  0  0  0  0  0  0  0  0
  126.4999  104.6269  108.5936 H   0  0  0  0  0  0  0  0  0  0  0  0
  126.0734  107.6750  108.6955 H   0  0  0  0  0  0  0  0  0  0  0  0
  128.0628  104.9945  110.2715 H   0  0  0  0  0  0  0  0  0  0  0  0
  127.8254  106.7239  110.1904 H   0  0  0  0  0  0  0  0  0  0  0  0
  128.2171  106.7015  107.6166 H   0  0  0  0  0  0  0  0  0  0  0  0
  127.1939  107.3893  106.3782 H   0  0  0  0  0  0  0  0  0  0  0  0
  1  2  1  0  0  0  0
  1  3  2  0  0  0  0
  2  4  2  0  0  0  0
  3  8  1  0  0  0  0
  4  5  1  0  0  0  0
  4  7  1  0  0  0  0
  5  8  2  0  0  0  0
  5 11  1  0  0  0  0
  6  7  1  0  0  0  0
  6  9  1  0  0  0  0
  7 10  1  0  0  0  0
  1 12  1  0  0  0  0
  2 13  1  0  0  0  0
  3 14  1  0  0  0  0
  6 15  1  0  0  0  0
  6 16  1  0  0  0  0
  7 17  1  0  0  0  0
  9 18  1  0  0  0  0
  9 19  1  0  0  0  0
 10 20  1  0  0  0  0
 10 21  1  0  0  0  0
M  END
> <FRED Chemgauss4 score>
-6.681588

$$$$
C44469494	P67171936
  -OEChem-05122015313D

 22 22  0     1  0  0  0  0  0999 V2000
  126.2101  107.8604  107.1401 C   0  0  0  0  0  0  0  0  0  0  0  0
  124.8773  109.0998  108.2436 C   0  0  0  0  0  0  0  0  0  0  0  0
  125.8057  107.1014  108.2128 C   0  0  0  0  0  0  0  0  0  0  0  0
  124.2509  107.5811  110.1293 C   0  0  0  0  0  0  0  0  0  0  0  0
  124.9325  104.7532  108.6937 C   0  0  0  0  0  0  0  0  0  0  0  0
  126.1535  105.6845  108.6352 C   0  0  2  0  0  0  0  0  0  0  0  0
  125.6289  109.1034  107.1651 N   0  0  0  0  0  0  0  0  0  0  0  0
  124.9525  107.9089  108.9109 N   0  0  0  0  0  0  0  0  0  0  0  0
  124.2963  104.6130  107.4099 N   0  0  0  0  0  0  0  0  0  0  0  0
  126.8478  105.6825  109.9285 N   0  0  0  0  0  0  0  0  0  0  0  0
  126.8902  107.5771  106.3496 H   0  0  0  0  0  0  0  0  0  0  0  0
  124.2637  109.9211  108.5881 H   0  0  0  0  0  0  0  0  0  0  0  0
  123.2879  107.1415  109.8562 H   0  0  0  0  0  0  0  0  0  0  0  0
  124.8442  106.8704  110.7113 H   0  0  0  0  0  0  0  0  0  0  0  0
  124.1038  108.4911  110.7177 H   0  0  0  0  0  0  0  0  0  0  0  0
  125.2318  103.7449  109.0021 H   0  0  0  0  0  0  0  0  0  0  0  0
  124.1716  105.1032  109.3993 H   0  0  0  0  0  0  0  0  0  0  0  0
  126.8550  105.2686  107.9002 H   0  0  0  0  0  0  0  0  0  0  0  0
  123.3238  104.3553  107.3708 H   0  0  0  0  0  0  0  0  0  0  0  0
  124.8680  104.5724  106.5820 H   0  0  0  0  0  0  0  0  0  0  0  0
  127.4544  106.4435  110.1278 H   0  0  0  0  0  0  0  0  0  0  0  0
  126.8438  104.8388  110.4530 H   0  0  0  0  0  0  0  0  0  0  0  0
  1  3  2  0  0  0  0
  1  7  1  0  0  0  0
  2  7  2  0  0  0  0
  2  8  1  0  0  0  0
  3  6  1  0  0  0  0
  3  8  1  0  0  0  0
  4  8  1  0  0  0  0
  5  6  1  0  0  0  0
  5  9  1  0  0  0  0
  6 10  1  0  0  0  0
  1 11  1  0  0  0  0
  2 12  1  0  0  0  0
  4 13  1  0  0  0  0
  4 14  1  0  0  0  0
  4 15  1  0  0  0  0
  5 16  1  0  0  0  0
  5 17  1  0  0  0  0
  6 18  1  0  0  0  0
  9 19  1  0  0  0  0
  9 20  1  0  0  0  0
 10 21  1  0  0  0  0
 10 22  1  0  0  0  0
M  END
> <FRED Chemgauss4 score>
-6.678020

$$$$
C37491501	P55758377
  -OEChem-05122015313D

 26 25  0     0  0  0  0  0  0999 V2000
  123.9367  106.4542  106.3762 C   0  0  0  0  0  0  0  0  0  0  0  0
  123.6065  109.2788  111.9275 C   0  0  0  0  0  0  0  0  0  0  0  0
  123.6726  108.6926  110.5234 C   0  0  0  0  0  0  0  0  0  0  0  0
  124.3036  109.0216  108.2312 C   0  0  0  0  0  0  0  0  0  0  0  0
  123.0241  108.3069  112.9466 C   0  0  0  0  0  0  0  0  0  0  0  0
  125.4480  108.0362  108.0913 C   0  0  0  0  0  0  0  0  0  0  0  0
  124.2400  109.6075  109.5709 N   0  0  0  0  0  0  0  0  0  0  0  0
  125.5051  108.3516  105.4971 O   0  0  0  0  0  0  0  0  0  0  0  0
  126.5419  106.2782  106.4959 O   0  0  0  0  0  0  0  0  0  0  0  0
  122.9866  108.9440  114.2167 O   0  0  0  0  0  0  0  0  0  0  0  0
  125.5010  107.2918  106.4911 S   0  0  0  0  0  0  0  0  0  0  0  0
  123.8817  105.9590  105.4055 H   0  0  0  0  0  0  0  0  0  0  0  0
  123.8782  105.7219  107.1829 H   0  0  0  0  0  0  0  0  0  0  0  0
  123.1416  107.1949  106.4734 H   0  0  0  0  0  0  0  0  0  0  0  0
  124.6157  109.5667  112.2475 H   0  0  0  0  0  0  0  0  0  0  0  0
  123.0163  110.2038  111.9291 H   0  0  0  0  0  0  0  0  0  0  0  0
  124.3014  107.7969  110.5189 H   0  0  0  0  0  0  0  0  0  0  0  0
  122.6762  108.4130  110.1663 H   0  0  0  0  0  0  0  0  0  0  0  0
  124.3919  109.8443  107.5148 H   0  0  0  0  0  0  0  0  0  0  0  0
  123.3485  108.5159  108.0597 H   0  0  0  0  0  0  0  0  0  0  0  0
  122.0044  108.0139  112.6780 H   0  0  0  0  0  0  0  0  0  0  0  0
  123.6441  107.4083  113.0269 H   0  0  0  0  0  0  0  0  0  0  0  0
  125.3339  107.2161  108.8064 H   0  0  0  0  0  0  0  0  0  0  0  0
  126.4185  108.5145  108.2544 H   0  0  0  0  0  0  0  0  0  0  0  0
  123.6762  110.4635  109.5220 H   0  0  0  0  0  0  0  0  0  0  0  0
  122.6123  108.3017  114.8411 H   0  0  0  0  0  0  0  0  0  0  0  0
  1 11  1  0  0  0  0
  2  3  1  0  0  0  0
  2  5  1  0  0  0  0
  3  7  1  0  0  0  0
  4  6  1  0  0  0  0
  4  7  1  0  0  0  0
  5 10  1  0  0  0  0
  6 11  1  0  0  0  0
  8 11  2  0  0  0  0
  9 11  2  0  0  0  0
  1 12  1  0  0  0  0
  1 13  1  0  0  0  0
  1 14  1  0  0  0  0
  2 15  1  0  0  0  0
  2 16  1  0  0  0  0
  3 17  1  0  0  0  0
  3 18  1  0  0  0  0
  4 19  1  0  0  0  0
  4 20  1  0  0  0  0
  5 21  1  0  0  0  0
  5 22  1  0  0  0  0
  6 23  1  0  0  0  0
  6 24  1  0  0  0  0
  7 25  1  0  0  0  0
 10 26  1  0  0  0  0
M  END
> <FRED Chemgauss4 score>
-6.676394

$$$$
C19476287	P28820268
  -OEChem-05122015313D

 18 18  0     0  0  0  0  0  0999 V2000
  124.1848  109.8621  109.0723 C   0  0  0  0  0  0  0  0  0  0  0  0
  124.5119  107.8434  109.4910 C   0  0  0  0  0  0  0  0  0  0  0  0
  124.3969  106.1774  106.3890 C   0  0  0  0  0  0  0  0  0  0  0  0
  125.6609  107.0080  106.2892 C   0  0  0  0  0  0  0  0  0  0  0  0
  126.2088  107.4190  107.6586 C   0  0  0  0  0  0  0  0  0  0  0  0
  123.8031  108.8618  109.9199 N   0  0  0  0  0  0  0  0  0  0  0  0
  125.0851  109.5266  108.1458 N   0  0  0  0  0  0  0  0  0  0  0  0
  125.2773  108.2307  108.4355 N   0  0  0  0  0  0  0  0  0  0  0  0
  124.4967  105.0491  107.1586 N   0  0  0  0  0  0  0  0  0  0  0  0
  122.9783  106.6015  105.6132 S   0  0  0  0  0  0  0  0  0  0  0  0
  123.7960  110.8675  109.1325 H   0  0  0  0  0  0  0  0  0  0  0  0
  124.5116  106.8409  109.8949 H   0  0  0  0  0  0  0  0  0  0  0  0
  125.4958  107.8890  105.6578 H   0  0  0  0  0  0  0  0  0  0  0  0
  126.4199  106.3927  105.7889 H   0  0  0  0  0  0  0  0  0  0  0  0
  127.1202  108.0160  107.5328 H   0  0  0  0  0  0  0  0  0  0  0  0
  126.4812  106.5453  108.2618 H   0  0  0  0  0  0  0  0  0  0  0  0
  125.3576  104.7874  107.6278 H   0  0  0  0  0  0  0  0  0  0  0  0
  123.7033  104.4293  107.2838 H   0  0  0  0  0  0  0  0  0  0  0  0
  1  6  1  0  0  0  0
  1  7  2  0  0  0  0
  2  6  2  0  0  0  0
  2  8  1  0  0  0  0
  3  4  1  0  0  0  0
  3  9  1  0  0  0  0
  3 10  2  0  0  0  0
  4  5  1  0  0  0  0
  5  8  1  0  0  0  0
  7  8  1  0  0  0  0
  1 11  1  0  0  0  0
  2 12  1  0  0  0  0
  4 13  1  0  0  0  0
  4 14  1  0  0  0  0
  5 15  1  0  0  0  0
  5 16  1  0  0  0  0
  9 17  1  0  0  0  0
  9 18  1  0  0  0  0
M  END
> <FRED Chemgauss4 score>
-6.676258

$$$$
C95532417	P150161681
  -OEChem-05122015313D

 26 27  0     1  0  0  0  0  0999 V2000
  124.5328  109.3372  108.3305 C   0  0  0  0  0  0  0  0  0  0  0  0
  123.7119  107.6550  109.7190 C   0  0  0  0  0  0  0  0  0  0  0  0
  125.2330  105.9953  106.6367 C   0  0  0  0  0  0  0  0  0  0  0  0
  124.4689  108.0558  107.5495 C   0  0  2  0  0  0  0  0  0  0  0  0
  124.6113  107.0454  108.6830 C   0  0  2  0  0  0  0  0  0  0  0  0
  125.5019  107.5293  106.5851 C   0  0  2  0  0  0  0  0  0  0  0  0
  124.4855  105.7119  107.9801 C   0  0  1  0  0  0  0  0  0  0  0  0
  123.4429  110.0392  110.4702 C   0  0  0  0  0  0  0  0  0  0  0  0
  123.8793  109.0304  109.5275 N   0  0  0  0  0  0  0  0  0  0  0  0
  125.3565  108.0773  105.2479 N   0  0  0  0  0  0  0  0  0  0  0  0
  123.1054  105.3016  107.7429 N   0  0  0  0  0  0  0  0  0  0  0  0
  124.9769  110.4027  107.9402 O   0  0  0  0  0  0  0  0  0  0  0  0
  123.0774  107.0579  110.5705 O   0  0  0  0  0  0  0  0  0  0  0  0
  124.6407  105.6565  105.7769 H   0  0  0  0  0  0  0  0  0  0  0  0
  126.1824  105.4479  106.5975 H   0  0  0  0  0  0  0  0  0  0  0  0
  123.4653  108.0276  107.0963 H   0  0  0  0  0  0  0  0  0  0  0  0
  125.6219  107.0936  109.1247 H   0  0  0  0  0  0  0  0  0  0  0  0
  126.5151  107.7443  106.9473 H   0  0  0  0  0  0  0  0  0  0  0  0
  124.9910  104.9183  108.5399 H   0  0  0  0  0  0  0  0  0  0  0  0
  122.4240  110.3576  110.2349 H   0  0  0  0  0  0  0  0  0  0  0  0
  124.1030  110.9097  110.4247 H   0  0  0  0  0  0  0  0  0  0  0  0
  123.4605  109.6388  111.4874 H   0  0  0  0  0  0  0  0  0  0  0  0
  125.6869  107.5376  104.4727 H   0  0  0  0  0  0  0  0  0  0  0  0
  125.1239  109.0459  105.1522 H   0  0  0  0  0  0  0  0  0  0  0  0
  122.4374  105.4575  108.4670 H   0  0  0  0  0  0  0  0  0  0  0  0
  122.9194  104.7050  106.9653 H   0  0  0  0  0  0  0  0  0  0  0  0
  1  4  1  0  0  0  0
  1  9  1  0  0  0  0
  1 12  2  0  0  0  0
  2  5  1  0  0  0  0
  2  9  1  0  0  0  0
  2 13  2  0  0  0  0
  3  6  1  0  0  0  0
  3  7  1  0  0  0  0
  4  5  1  0  0  0  0
  4  6  1  0  0  0  0
  5  7  1  0  0  0  0
  6 10  1  0  0  0  0
  7 11  1  0  0  0  0
  8  9  1  0  0  0  0
  3 14  1  0  0  0  0
  3 15  1  0  0  0  0
  4 16  1  0  0  0  0
  5 17  1  0  0  0  0
  6 18  1  0  0  0  0
  7 19  1  0  0  0  0
  8 20  1  0  0  0  0
  8 21  1  0  0  0  0
  8 22  1  0  0  0  0
 10 23  1  0  0  0  0
 10 24  1  0  0  0  0
 11 25  1  0  0  0  0
 11 26  1  0  0  0  0
M  END
> <FRED Chemgauss4 score>
-6.673085

$$$$
C39053143	P59168293
  -OEChem-05122015313D

 15 15  0     0  0  0  0  0  0999 V2000
  124.9129  109.2835  108.5969 C   0  0  0  0  0  0  0  0  0  0  0  0
  123.8962  107.7911  110.1266 C   0  0  0  0  0  0  0  0  0  0  0  0
  124.7268  108.0054  108.9274 C   0  0  0  0  0  0  0  0  0  0  0  0
  123.5756  110.0465  110.4716 C   0  0  0  0  0  0  0  0  0  0  0  0
  126.0225  107.0528  107.1218 C   0  0  0  0  0  0  0  0  0  0  0  0
  123.3622  108.7282  110.8433 N   0  0  0  0  0  0  0  0  0  0  0  0
  124.3568  110.2881  109.3419 N   0  0  0  0  0  0  0  0  0  0  0  0
  125.2357  106.9434  108.2529 N   0  0  0  0  0  0  0  0  0  0  0  0
  123.0978  110.9868  111.1080 O   0  0  0  0  0  0  0  0  0  0  0  0
  126.3851  108.0743  106.5516 O   0  0  0  0  0  0  0  0  0  0  0  0
  125.4985  109.5994  107.7421 H   0  0  0  0  0  0  0  0  0  0  0  0
  123.7290  106.7415  110.4199 H   0  0  0  0  0  0  0  0  0  0  0  0
  126.3147  106.0547  106.7548 H   0  0  0  0  0  0  0  0  0  0  0  0
  124.5259  111.2466  109.0521 H   0  0  0  0  0  0  0  0  0  0  0  0
  125.0251  106.0093  108.6012 H   0  0  0  0  0  0  0  0  0  0  0  0
  1  3  2  0  0  0  0
  1  7  1  0  0  0  0
  2  3  1  0  0  0  0
  2  6  2  0  0  0  0
  3  8  1  0  0  0  0
  4  6  1  0  0  0  0
  4  7  1  0  0  0  0
  4  9  2  0  0  0  0
  5  8  1  0  0  0  0
  5 10  2  0  0  0  0
  1 11  1  0  0  0  0
  2 12  1  0  0  0  0
  5 13  1  0  0  0  0
  7 14  1  0  0  0  0
  8 15  1  0  0  0  0
M  END
> <FRED Chemgauss4 score>
-6.670882

$$$$
C85247316	P133396585
  -OEChem-05122015313D

 26 26  0     1  0  0  0  0  0999 V2000
  125.5978  105.2946  107.7573 C   0  0  0  0  0  0  0  0  0  0  0  0
  124.3657  104.6376  107.1527 C   0  0  0  0  0  0  0  0  0  0  0  0
  124.7550  107.2251  106.5311 C   0  0  0  0  0  0  0  0  0  0  0  0
  125.3146  106.7913  107.8841 C   0  0  1  0  0  0  0  0  0  0  0  0
  124.4362  108.4553  109.3824 C   0  0  0  0  0  0  0  0  0  0  0  0
  123.4981  110.1923  110.9991 C   0  0  0  0  0  0  0  0  0  0  0  0
  123.4578  108.7441  110.5209 C   0  0  1  0  0  0  0  0  0  0  0  0
  124.3593  107.0641  108.9593 N   0  0  0  0  0  0  0  0  0  0  0  0
  123.1908  111.0477  109.9024 O   0  0  0  0  0  0  0  0  0  0  0  0
  122.1264  108.4473  110.0983 O   0  0  0  0  0  0  0  0  0  0  0  0
  123.7504  105.8314  105.9328 S   0  0  0  0  0  0  0  0  0  0  0  0
  125.8123  104.8497  108.7458 H   0  0  0  0  0  0  0  0  0  0  0  0
  126.4859  105.1007  107.1336 H   0  0  0  0  0  0  0  0  0  0  0  0
  124.6285  103.7096  106.6365 H   0  0  0  0  0  0  0  0  0  0  0  0
  123.6070  104.4185  107.9082 H   0  0  0  0  0  0  0  0  0  0  0  0
  124.1008  108.1061  106.6187 H   0  0  0  0  0  0  0  0  0  0  0  0
  125.5535  107.4697  105.8154 H   0  0  0  0  0  0  0  0  0  0  0  0
  126.2381  107.3284  108.0989 H   0  0  0  0  0  0  0  0  0  0  0  0
  124.2036  109.0885  108.5196 H   0  0  0  0  0  0  0  0  0  0  0  0
  125.4609  108.6793  109.6967 H   0  0  0  0  0  0  0  0  0  0  0  0
  124.4940  110.4574  111.3672 H   0  0  0  0  0  0  0  0  0  0  0  0
  122.7549  110.3780  111.7811 H   0  0  0  0  0  0  0  0  0  0  0  0
  123.6755  108.0770  111.3634 H   0  0  0  0  0  0  0  0  0  0  0  0
  124.5673  106.4590  109.7527 H   0  0  0  0  0  0  0  0  0  0  0  0
  123.2254  111.9559  110.2413 H   0  0  0  0  0  0  0  0  0  0  0  0
  122.1170  107.5069  109.8648 H   0  0  0  0  0  0  0  0  0  0  0  0
  1  2  1  0  0  0  0
  1  4  1  0  0  0  0
  2 11  1  0  0  0  0
  3  4  1  0  0  0  0
  3 11  1  0  0  0  0
  4  8  1  0  0  0  0
  5  7  1  0  0  0  0
  5  8  1  0  0  0  0
  6  7  1  0  0  0  0
  6  9  1  0  0  0  0
  7 10  1  0  0  0  0
  1 12  1  0  0  0  0
  1 13  1  0  0  0  0
  2 14  1  0  0  0  0
  2 15  1  0  0  0  0
  3 16  1  0  0  0  0
  3 17  1  0  0  0  0
  4 18  1  0  0  0  0
  5 19  1  0  0  0  0
  5 20  1  0  0  0  0
  6 21  1  0  0  0  0
  6 22  1  0  0  0  0
  7 23  1  0  0  0  0
  8 24  1  0  0  0  0
  9 25  1  0  0  0  0
 10 26  1  0  0  0  0
M  END
> <FRED Chemgauss4 score>
-6.670434

$$$$
C38643687	P58506679
  -OEChem-05122015313D

 26 26  0     1  0  0  0  0  0999 V2000
  123.3984  106.1349  108.1722 C   0  0  0  0  0  0  0  0  0  0  0  0
  124.0652  106.6090  106.9038 C   0  0  1  0  0  0  0  0  0  0  0  0
  125.1457  104.7732  107.6865 C   0  0  0  0  0  0  0  0  0  0  0  0
  125.2310  103.6048  106.7127 C   0  0  0  0  0  0  0  0  0  0  0  0
  126.1977  104.6589  108.7824 C   0  0  0  0  0  0  0  0  0  0  0  0
  125.0665  108.6843  107.9143 C   0  0  0  0  0  0  0  0  0  0  0  0
  124.1877  108.1140  106.7993 C   0  0  1  0  0  0  0  0  0  0  0  0
  125.1658  110.1206  107.7855 N   0  0  0  0  0  0  0  0  0  0  0  0
  123.8378  104.7802  108.2822 O   0  0  0  0  0  0  0  0  0  0  0  0
  125.3588  106.0029  106.9738 O   0  0  0  0  0  0  0  0  0  0  0  0
  124.7849  108.4464  105.5439 O   0  0  0  0  0  0  0  0  0  0  0  0
  123.7478  106.6778  109.0576 H   0  0  0  0  0  0  0  0  0  0  0  0
  122.3070  106.1806  108.1297 H   0  0  0  0  0  0  0  0  0  0  0  0
  123.5556  106.2039  106.0212 H   0  0  0  0  0  0  0  0  0  0  0  0
  124.4702  103.7078  105.9388 H   0  0  0  0  0  0  0  0  0  0  0  0
  125.0716  102.6655  107.2424 H   0  0  0  0  0  0  0  0  0  0  0  0
  126.2139  103.5828  106.2417 H   0  0  0  0  0  0  0  0  0  0  0  0
  126.1175  105.5043  109.4659 H   0  0  0  0  0  0  0  0  0  0  0  0
  127.1951  104.6531  108.3427 H   0  0  0  0  0  0  0  0  0  0  0  0
  126.0530  103.7355  109.3434 H   0  0  0  0  0  0  0  0  0  0  0  0
  124.6445  108.4503  108.8976 H   0  0  0  0  0  0  0  0  0  0  0  0
  126.0743  108.2594  107.8631 H   0  0  0  0  0  0  0  0  0  0  0  0
  123.1922  108.5795  106.8269 H   0  0  0  0  0  0  0  0  0  0  0  0
  125.9644  110.5874  108.1761 H   0  0  0  0  0  0  0  0  0  0  0  0
  124.3549  110.6377  107.4973 H   0  0  0  0  0  0  0  0  0  0  0  0
  124.8443  109.4128  105.5183 H   0  0  0  0  0  0  0  0  0  0  0  0
  1  2  1  0  0  0  0
  1  9  1  0  0  0  0
  2  7  1  0  0  0  0
  2 10  1  0  0  0  0
  3  4  1  0  0  0  0
  3  5  1  0  0  0  0
  3  9  1  0  0  0  0
  3 10  1  0  0  0  0
  6  7  1  0  0  0  0
  6  8  1  0  0  0  0
  7 11  1  0  0  0  0
  1 12  1  0  0  0  0
  1 13  1  0  0  0  0
  2 14  1  0  0  0  0
  4 15  1  0  0  0  0
  4 16  1  0  0  0  0
  4 17  1  0  0  0  0
  5 18  1  0  0  0  0
  5 19  1  0  0  0  0
  5 20  1  0  0  0  0
  6 21  1  0  0  0  0
  6 22  1  0  0  0  0
  7 23  1  0  0  0  0
  8 24  1  0  0  0  0
  8 25  1  0  0  0  0
 11 26  1  0  0  0  0
M  END
> <FRED Chemgauss4 score>
-6.668707

$$$$
C38700903	P81224313
  -OEChem-05122015313D

 12 12  0     0  0  0  0  0  0999 V2000
  123.6739  106.7691  106.2892 C   0  0  0  0  0  0  0  0  0  0  0  0
  125.6680  108.1151  107.2625 C   0  0  0  0  0  0  0  0  0  0  0  0
  124.1292  107.7291  105.5452 N   0  0  0  0  0  0  0  0  0  0  0  0
  125.2218  108.4664  106.0787 N   0  0  0  0  0  0  0  0  0  0  0  0
  124.1267  106.3934  107.5189 N   0  0  0  0  0  0  0  0  0  0  0  0
  125.1517  107.0854  108.0198 N   0  0  0  0  0  0  0  0  0  0  0  0
  126.7170  108.7605  107.8670 N   0  0  0  0  0  0  0  0  0  0  0  0
  122.8294  106.1550  105.9397 H   0  0  0  0  0  0  0  0  0  0  0  0
  123.7281  105.6282  108.0511 H   0  0  0  0  0  0  0  0  0  0  0  0
  125.5161  106.8427  108.9344 H   0  0  0  0  0  0  0  0  0  0  0  0
  127.1445  109.5157  107.3844 H   0  0  0  0  0  0  0  0  0  0  0  0
  127.0075  108.4470  108.7634 H   0  0  0  0  0  0  0  0  0  0  0  0
  1  3  2  0  0  0  0
  1  5  1  0  0  0  0
  2  4  2  0  0  0  0
  2  6  1  0  0  0  0
  2  7  1  0  0  0  0
  3  4  1  0  0  0  0
  5  6  1  0  0  0  0
  1  8  1  0  0  0  0
  5  9  1  0  0  0  0
  6 10  1  0  0  0  0
  7 11  1  0  0  0  0
  7 12  1  0  0  0  0
M  END
> <FRED Chemgauss4 score>
-6.665730

$$$$
C87694178	P137171372
  -OEChem-05122015313D

 15 15  0     0  0  0  0  0  0999 V2000
  125.4555  106.6888  107.9333 C   0  0  0  0  0  0  0  0  0  0  0  0
  124.9500  108.9280  108.4789 C   0  0  0  0  0  0  0  0  0  0  0  0
  125.6029  105.2203  107.8877 C   0  0  0  0  0  0  0  0  0  0  0  0
  125.9189  107.5272  107.0310 N   0  0  0  0  0  0  0  0  0  0  0  0
  125.6233  108.8407  107.3515 N   0  0  0  0  0  0  0  0  0  0  0  0
  124.0595  110.1801  110.3661 N   0  0  0  0  0  0  0  0  0  0  0  0
  124.5217  110.0858  109.0441 N   0  0  0  0  0  0  0  0  0  0  0  0
  126.5926  104.8007  108.8267 O   0  0  0  0  0  0  0  0  0  0  0  0
  124.6232  107.4259  109.2394 S   0  0  0  0  0  0  0  0  0  0  0  0
  124.6600  104.7001  108.1315 H   0  0  0  0  0  0  0  0  0  0  0  0
  125.9090  104.8682  106.8871 H   0  0  0  0  0  0  0  0  0  0  0  0
  123.2221  110.7596  110.4003 H   0  0  0  0  0  0  0  0  0  0  0  0
  124.7614  110.6674  110.9216 H   0  0  0  0  0  0  0  0  0  0  0  0
  124.7152  110.9970  108.5911 H   0  0  0  0  0  0  0  0  0  0  0  0
  126.6473  103.8358  108.7545 H   0  0  0  0  0  0  0  0  0  0  0  0
  1  3  1  0  0  0  0
  1  4  2  0  0  0  0
  1  9  1  0  0  0  0
  2  5  2  0  0  0  0
  2  7  1  0  0  0  0
  2  9  1  0  0  0  0
  3  8  1  0  0  0  0
  4  5  1  0  0  0  0
  6  7  1  0  0  0  0
  3 10  1  0  0  0  0
  3 11  1  0  0  0  0
  6 12  1  0  0  0  0
  6 13  1  0  0  0  0
  7 14  1  0  0  0  0
  8 15  1  0  0  0  0
M  END
> <FRED Chemgauss4 score>
-6.665174

$$$$
Aspartate
  -OEChem-05122015313D

 16 15  0     1  0  0  0  0  0999 V2000
  126.2879  106.5660  107.8230 C   0  0  0  0  0  0  0  0  0  0  0  0
  124.4104  109.0693  108.4327 C   0  0  0  0  0  0  0  0  0  0  0  0
  124.8326  106.6111  108.2395 C   0  0  0  0  0  0  0  0  0  0  0  0
  124.5252  107.7628  109.2006 C   0  0  2  0  0  0  0  0  0  0  0  0
  123.3293  107.4972  109.9635 N   0  0  0  0  0  0  0  0  0  0  0  0
  126.7026  106.6386  106.6748 O   0  0  0  0  0  0  0  0  0  0  0  0
  125.0386  109.3157  107.4101 O   0  0  0  0  0  0  0  0  0  0  0  0
  127.1068  106.4290  108.8988 O   0  0  0  0  0  0  0  0  0  0  0  0
  123.5435  109.9474  108.9915 O   0  0  0  0  0  0  0  0  0  0  0  0
  124.2432  106.7197  107.3210 H   0  0  0  0  0  0  0  0  0  0  0  0
  124.5749  105.6522  108.7053 H   0  0  0  0  0  0  0  0  0  0  0  0
  125.3265  107.8978  109.9359 H   0  0  0  0  0  0  0  0  0  0  0  0
  122.8090  108.2717  110.3373 H   0  0  0  0  0  0  0  0  0  0  0  0
  123.1517  106.5592  110.2780 H   0  0  0  0  0  0  0  0  0  0  0  0
  128.0645  106.3920  108.6884 H   0  0  0  0  0  0  0  0  0  0  0  0
  123.4884  110.7834  108.4811 H   0  0  0  0  0  0  0  0  0  0  0  0
  1  3  1  0  0  0  0
  1  6  2  0  0  0  0
  1  8  1  0  0  0  0
  2  4  1  0  0  0  0
  2  7  2  0  0  0  0
  2  9  1  0  0  0  0
  3  4  1  0  0  0  0
  4  5  1  0  0  0  0
  3 10  1  0  0  0  0
  3 11  1  0  0  0  0
  4 12  1  0  0  0  0
  5 13  1  0  0  0  0
  5 14  1  0  0  0  0
  8 15  1  0  0  0  0
  9 16  1  0  0  0  0
M  END
> <FRED Chemgauss4 score>
-6.654050

$$$$
C84249743	P131855991
  -OEChem-05122015313D

 21 21  0     1  0  0  0  0  0999 V2000
  126.3951  105.2564  109.2583 C   0  0  0  0  0  0  0  0  0  0  0  0
  125.3834  104.7149  108.2787 C   0  0  0  0  0  0  0  0  0  0  0  0
  125.1630  105.8874  107.3249 C   0  0  0  0  0  0  0  0  0  0  0  0
  125.4068  107.1282  108.1914 C   0  0  2  0  0  0  0  0  0  0  0  0
  124.1295  107.5642  108.9180 C   0  0  0  0  0  0  0  0  0  0  0  0
  125.9692  108.2868  107.3701 C   0  0  0  0  0  0  0  0  0  0  0  0
  126.3826  106.6426  109.1456 N   0  0  0  0  0  0  0  0  0  0  0  0
  125.0552  108.6309  106.3337 N   0  0  0  0  0  0  0  0  0  0  0  0
  127.0640  104.5834  110.0272 O   0  0  0  0  0  0  0  0  0  0  0  0
  125.7739  103.8370  107.7582 H   0  0  0  0  0  0  0  0  0  0  0  0
  124.4683  104.4545  108.8188 H   0  0  0  0  0  0  0  0  0  0  0  0
  125.9050  105.8255  106.5178 H   0  0  0  0  0  0  0  0  0  0  0  0
  124.1716  105.8653  106.8615 H   0  0  0  0  0  0  0  0  0  0  0  0
  124.3369  108.4439  109.5217 H   0  0  0  0  0  0  0  0  0  0  0  0
  123.7840  106.7587  109.5607 H   0  0  0  0  0  0  0  0  0  0  0  0
  123.3589  107.8001  108.1887 H   0  0  0  0  0  0  0  0  0  0  0  0
  126.9088  107.9775  106.9321 H   0  0  0  0  0  0  0  0  0  0  0  0
  126.1134  109.1400  108.0189 H   0  0  0  0  0  0  0  0  0  0  0  0
  126.9953  107.2524  109.6781 H   0  0  0  0  0  0  0  0  0  0  0  0
  124.5190  107.9045  105.8710 H   0  0  0  0  0  0  0  0  0  0  0  0
  125.0857  109.5569  105.9200 H   0  0  0  0  0  0  0  0  0  0  0  0
  1  2  1  0  0  0  0
  1  7  1  0  0  0  0
  1  9  2  0  0  0  0
  2  3  1  0  0  0  0
  3  4  1  0  0  0  0
  4  5  1  0  0  0  0
  4  6  1  0  0  0  0
  4  7  1  0  0  0  0
  6  8  1  0  0  0  0
  2 10  1  0  0  0  0
  2 11  1  0  0  0  0
  3 12  1  0  0  0  0
  3 13  1  0  0  0  0
  5 14  1  0  0  0  0
  5 15  1  0  0  0  0
  5 16  1  0  0  0  0
  6 17  1  0  0  0  0
  6 18  1  0  0  0  0
  7 19  1  0  0  0  0
  8 20  1  0  0  0  0
  8 21  1  0  0  0  0
M  END
> <FRED Chemgauss4 score>
-6.649095

$$$$
C38995816	P59081245
  -OEChem-05122015313D

 15 15  0     0  0  0  0  0  0999 V2000
  125.8611  104.7216  107.2903 C   0  0  0  0  0  0  0  0  0  0  0  0
  125.3927  104.8758  108.5737 C   0  0  0  0  0  0  0  0  0  0  0  0
  125.7797  106.8232  107.6175 C   0  0  0  0  0  0  0  0  0  0  0  0
  125.8577  108.2912  107.4793 C   0  0  0  0  0  0  0  0  0  0  0  0
  126.1004  105.9376  106.7006 N   0  0  0  0  0  0  0  0  0  0  0  0
  125.3463  106.2274  108.7692 N   0  0  0  0  0  0  0  0  0  0  0  0
  127.1424  108.7519  107.9127 O   0  0  0  0  0  0  0  0  0  0  0  0
  125.6344  108.6638  106.1147 O   0  0  0  0  0  0  0  0  0  0  0  0
  124.9351  106.8664  109.9261 O   0  0  0  0  0  0  0  0  0  0  0  0
  126.0394  103.7970  106.7611 H   0  0  0  0  0  0  0  0  0  0  0  0
  125.0976  104.1699  109.3371 H   0  0  0  0  0  0  0  0  0  0  0  0
  125.0939  108.8060  108.0942 H   0  0  0  0  0  0  0  0  0  0  0  0
  127.1676  109.7186  107.8118 H   0  0  0  0  0  0  0  0  0  0  0  0
  125.6910  109.6324  106.0515 H   0  0  0  0  0  0  0  0  0  0  0  0
  124.7146  106.1023  110.4899 H   0  0  0  0  0  0  0  0  0  0  0  0
  1  2  2  0  0  0  0
  1  5  1  0  0  0  0
  2  6  1  0  0  0  0
  3  4  1  0  0  0  0
  3  5  2  0  0  0  0
  3  6  1  0  0  0  0
  4  7  1  0  0  0  0
  4  8  1  0  0  0  0
  6  9  1  0  0  0  0
  1 10  1  0  0  0  0
  2 11  1  0  0  0  0
  4 12  1  0  0  0  0
  7 13  1  0  0  0  0
  8 14  1  0  0  0  0
  9 15  1  0  0  0  0
M  END
> <FRED Chemgauss4 score>
-6.640429

$$$$
C85254253	P133385080
  -OEChem-05122015313D

 25 24  0     1  0  0  0  0  0999 V2000
  120.5177  105.1339  104.5413 C   0  0  0  0  0  0  0  0  0  0  0  0
  118.9561  103.7267  105.8307 C   0  0  0  0  0  0  0  0  0  0  0  0
  124.7064  104.7881  107.8215 C   0  0  0  0  0  0  0  0  0  0  0  0
  122.4987  104.3956  106.7140 C   0  0  0  0  0  0  0  0  0  0  0  0
  122.8179  106.3792  108.3196 C   0  0  0  0  0  0  0  0  0  0  0  0
  120.4117  104.0899  105.5688 C   0  0  2  0  0  0  0  0  0  0  0  0
  123.1879  104.9269  107.9834 C   0  0  2  0  0  0  0  0  0  0  0  0
  120.6016  105.9566  103.7271 N   0  0  0  0  0  0  0  0  0  0  0  0
  121.0622  104.5348  106.7985 N   0  0  0  0  0  0  0  0  0  0  0  0
  121.4175  106.5179  108.5021 O   0  0  0  0  0  0  0  0  0  0  0  0
  122.8175  104.1029  109.0926 O   0  0  0  0  0  0  0  0  0  0  0  0
  118.3785  104.5972  106.1639 H   0  0  0  0  0  0  0  0  0  0  0  0
  118.8805  102.9627  106.6124 H   0  0  0  0  0  0  0  0  0  0  0  0
  118.4780  103.3357  104.9257 H   0  0  0  0  0  0  0  0  0  0  0  0
  125.2285  105.1588  108.7113 H   0  0  0  0  0  0  0  0  0  0  0  0
  125.0071  103.7494  107.6507 H   0  0  0  0  0  0  0  0  0  0  0  0
  125.0652  105.3938  106.9811 H   0  0  0  0  0  0  0  0  0  0  0  0
  122.7437  103.3413  106.5460 H   0  0  0  0  0  0  0  0  0  0  0  0
  122.8384  104.9595  105.8378 H   0  0  0  0  0  0  0  0  0  0  0  0
  123.1409  107.0637  107.5272 H   0  0  0  0  0  0  0  0  0  0  0  0
  123.3264  106.7012  109.2360 H   0  0  0  0  0  0  0  0  0  0  0  0
  120.9496  103.1943  105.2393 H   0  0  0  0  0  0  0  0  0  0  0  0
  120.7054  103.9770  107.5787 H   0  0  0  0  0  0  0  0  0  0  0  0
  121.2511  107.4521  108.7105 H   0  0  0  0  0  0  0  0  0  0  0  0
  123.0818  103.2009  108.8601 H   0  0  0  0  0  0  0  0  0  0  0  0
  1  6  1  0  0  0  0
  1  8  3  0  0  0  0
  2  6  1  0  0  0  0
  3  7  1  0  0  0  0
  4  7  1  0  0  0  0
  4  9  1  0  0  0  0
  5  7  1  0  0  0  0
  5 10  1  0  0  0  0
  6  9  1  0  0  0  0
  7 11  1  0  0  0  0
  2 12  1  0  0  0  0
  2 13  1  0  0  0  0
  2 14  1  0  0  0  0
  3 15  1  0  0  0  0
  3 16  1  0  0  0  0
  3 17  1  0  0  0  0
  4 18  1  0  0  0  0
  4 19  1  0  0  0  0
  5 20  1  0  0  0  0
  5 21  1  0  0  0  0
  6 22  1  0  0  0  0
  9 23  1  0  0  0  0
 10 24  1  0  0  0  0
 11 25  1  0  0  0  0
M  END
> <FRED Chemgauss4 score>
-6.638126

$$$$
C88062048	P137749640
  -OEChem-05122015313D

 26 25  0     0  0  0  0  0  0999 V2000
  120.4790  104.6154  106.5350 C   0  0  0  0  0  0  0  0  0  0  0  0
  125.3321  109.2979  108.4437 C   0  0  0  0  0  0  0  0  0  0  0  0
  121.9637  104.4346  106.3016 C   0  0  0  0  0  0  0  0  0  0  0  0
  124.0846  104.9855  107.1508 C   0  0  0  0  0  0  0  0  0  0  0  0
  125.0829  107.8414  108.1020 C   0  0  0  0  0  0  0  0  0  0  0  0
  124.5901  105.9657  106.1103 C   0  0  0  0  0  0  0  0  0  0  0  0
  124.1120  110.0546  108.5154 N   0  0  0  0  0  0  0  0  0  0  0  0
  124.8724  108.5105  105.5839 O   0  0  0  0  0  0  0  0  0  0  0  0
  122.8084  107.7427  106.8177 O   0  0  0  0  0  0  0  0  0  0  0  0
  122.6792  105.1209  107.3195 O   0  0  0  0  0  0  0  0  0  0  0  0
  124.2360  107.6479  106.5648 S   0  0  0  0  0  0  0  0  0  0  0  0
  120.1839  104.2063  107.5053 H   0  0  0  0  0  0  0  0  0  0  0  0
  120.2093  105.6761  106.5017 H   0  0  0  0  0  0  0  0  0  0  0  0
  119.9013  104.1154  105.7505 H   0  0  0  0  0  0  0  0  0  0  0  0
  125.8430  109.4032  109.4058 H   0  0  0  0  0  0  0  0  0  0  0  0
  125.9509  109.7650  107.6715 H   0  0  0  0  0  0  0  0  0  0  0  0
  122.2522  104.8458  105.3296 H   0  0  0  0  0  0  0  0  0  0  0  0
  122.2316  103.3744  106.3360 H   0  0  0  0  0  0  0  0  0  0  0  0
  124.2875  103.9567  106.8373 H   0  0  0  0  0  0  0  0  0  0  0  0
  124.5619  105.1484  108.1219 H   0  0  0  0  0  0  0  0  0  0  0  0
  124.4482  107.3753  108.8616 H   0  0  0  0  0  0  0  0  0  0  0  0
  126.0167  107.2761  108.0267 H   0  0  0  0  0  0  0  0  0  0  0  0
  124.1191  105.8018  105.1367 H   0  0  0  0  0  0  0  0  0  0  0  0
  125.6764  105.8951  106.0059 H   0  0  0  0  0  0  0  0  0  0  0  0
  124.1368  111.0461  108.3363 H   0  0  0  0  0  0  0  0  0  0  0  0
  123.2975  109.6358  108.9364 H   0  0  0  0  0  0  0  0  0  0  0  0
  1  3  1  0  0  0  0
  2  5  1  0  0  0  0
  2  7  1  0  0  0  0
  3 10  1  0  0  0  0
  4  6  1  0  0  0  0
  4 10  1  0  0  0  0
  5 11  1  0  0  0  0
  6 11  1  0  0  0  0
  8 11  2  0  0  0  0
  9 11  2  0  0  0  0
  1 12  1  0  0  0  0
  1 13  1  0  0  0  0
  1 14  1  0  0  0  0
  2 15  1  0  0  0  0
  2 16  1  0  0  0  0
  3 17  1  0  0  0  0
  3 18  1  0  0  0  0
  4 19  1  0  0  0  0
  4 20  1  0  0  0  0
  5 21  1  0  0  0  0
  5 22  1  0  0  0  0
  6 23  1  0  0  0  0
  6 24  1  0  0  0  0
  7 25  1  0  0  0  0
  7 26  1  0  0  0  0
M  END
> <FRED Chemgauss4 score>
-6.632781

$$$$
C04578981	P112129092
  -OEChem-05122015313D

 23 23  0     1  0  0  0  0  0999 V2000
  126.2146  106.5320  107.6559 C   0  0  2  0  0  0  0  0  0  0  0  0
  125.8624  107.9683  107.3301 C   0  0  1  0  0  0  0  0  0  0  0  0
  124.8358  105.8891  107.5726 C   0  0  2  0  0  0  0  0  0  0  0  0
  124.5593  108.1539  108.0977 C   0  0  1  0  0  0  0  0  0  0  0  0
  125.3605  103.6038  107.5868 C   0  0  0  0  0  0  0  0  0  0  0  0
  123.6049  109.1559  110.0043 C   0  0  0  0  0  0  0  0  0  0  0  0
  123.8979  106.8748  108.0494 O   0  0  0  0  0  0  0  0  0  0  0  0
  126.7197  106.4301  108.9842 O   0  0  0  0  0  0  0  0  0  0  0  0
  126.8561  108.8999  107.6911 O   0  0  0  0  0  0  0  0  0  0  0  0
  124.7862  104.6819  108.3120 O   0  0  0  0  0  0  0  0  0  0  0  0
  124.7688  108.5563  109.4469 O   0  0  0  0  0  0  0  0  0  0  0  0
  126.8843  106.1281  106.9622 H   0  0  0  0  0  0  0  0  0  0  0  0
  125.6965  108.1112  106.2093 H   0  0  0  0  0  0  0  0  0  0  0  0
  124.5900  105.6420  106.5092 H   0  0  0  0  0  0  0  0  0  0  0  0
  123.9111  108.8712  107.6015 H   0  0  0  0  0  0  0  0  0  0  0  0
  125.3055  102.6910  108.1850 H   0  0  0  0  0  0  0  0  0  0  0  0
  126.4023  103.8358  107.3516 H   0  0  0  0  0  0  0  0  0  0  0  0
  124.8022  103.4624  106.6584 H   0  0  0  0  0  0  0  0  0  0  0  0
  123.8050  109.4503  111.0374 H   0  0  0  0  0  0  0  0  0  0  0  0
  122.7759  108.4445  109.9709 H   0  0  0  0  0  0  0  0  0  0  0  0
  123.3462  110.0415  109.4191 H   0  0  0  0  0  0  0  0  0  0  0  0
  126.9307  105.4926  109.1454 H   0  0  0  0  0  0  0  0  0  0  0  0
  127.6558  108.6560  107.1994 H   0  0  0  0  0  0  0  0  0  0  0  0
  1  2  1  0  0  0  0
  1  3  1  0  0  0  0
  1  8  1  0  0  0  0
  2  4  1  0  0  0  0
  2  9  1  0  0  0  0
  3  7  1  0  0  0  0
  3 10  1  0  0  0  0
  4  7  1  0  0  0  0
  4 11  1  0  0  0  0
  5 10  1  0  0  0  0
  6 11  1  0  0  0  0
  1 12  1  0  0  0  0
  2 13  1  0  0  0  0
  3 14  1  0  0  0  0
  4 15  1  0  0  0  0
  5 16  1  0  0  0  0
  5 17  1  0  0  0  0
  5 18  1  0  0  0  0
  6 19  1  0  0  0  0
  6 20  1  0  0  0  0
  6 21  1  0  0  0  0
  8 22  1  0  0  0  0
  9 23  1  0  0  0  0
M  END
> <FRED Chemgauss4 score>
-6.625509

$$$$
C87777191	P137311341
  -OEChem-05122015313D

 19 19  0     0  0  0  0  0  0999 V2000
  125.5371  108.8242  107.8053 C   0  0  0  0  0  0  0  0  0  0  0  0
  123.8366  108.8160  109.0158 C   0  0  0  0  0  0  0  0  0  0  0  0
  122.7246  109.1623  109.8967 C   0  0  0  0  0  0  0  0  0  0  0  0
  125.6796  106.3783  107.1029 C   0  0  0  0  0  0  0  0  0  0  0  0
  125.0494  105.1034  107.6397 C   0  0  0  0  0  0  0  0  0  0  0  0
  124.7527  109.6423  108.5669 N   0  0  0  0  0  0  0  0  0  0  0  0
  124.0742  107.5653  108.5371 N   0  0  0  0  0  0  0  0  0  0  0  0
  125.1640  107.5437  107.7547 N   0  0  0  0  0  0  0  0  0  0  0  0
  122.4914  110.5928  109.9995 N   0  0  0  0  0  0  0  0  0  0  0  0
  125.5749  104.0329  106.9851 F   0  0  0  0  0  0  0  0  0  0  0  0
  126.4070  109.1943  107.2771 H   0  0  0  0  0  0  0  0  0  0  0  0
  121.7623  108.7182  109.5647 H   0  0  0  0  0  0  0  0  0  0  0  0
  122.8669  108.8023  110.9375 H   0  0  0  0  0  0  0  0  0  0  0  0
  126.7672  106.3390  107.2375 H   0  0  0  0  0  0  0  0  0  0  0  0
  125.4994  106.4571  106.0240 H   0  0  0  0  0  0  0  0  0  0  0  0
  125.2274  104.9678  108.7109 H   0  0  0  0  0  0  0  0  0  0  0  0
  123.9707  105.1020  107.4587 H   0  0  0  0  0  0  0  0  0  0  0  0
  122.0758  110.9487  110.8370 H   0  0  0  0  0  0  0  0  0  0  0  0
  122.5594  111.1473  109.1696 H   0  0  0  0  0  0  0  0  0  0  0  0
  1  6  2  0  0  0  0
  1  8  1  0  0  0  0
  2  3  1  0  0  0  0
  2  6  1  0  0  0  0
  2  7  2  0  0  0  0
  3  9  1  0  0  0  0
  4  5  1  0  0  0  0
  4  8  1  0  0  0  0
  5 10  1  0  0  0  0
  7  8  1  0  0  0  0
  1 11  1  0  0  0  0
  3 12  1  0  0  0  0
  3 13  1  0  0  0  0
  4 14  1  0  0  0  0
  4 15  1  0  0  0  0
  5 16  1  0  0  0  0
  5 17  1  0  0  0  0
  9 18  1  0  0  0  0
  9 19  1  0  0  0  0
M  END
> <FRED Chemgauss4 score>
-6.618713

$$$$
C20286182	P156342109
  -OEChem-05122015313D

 20 20  0     1  0  0  0  0  0999 V2000
  125.5556  108.3719  108.0625 C   0  0  0  0  0  0  0  0  0  0  0  0
  125.4495  106.9801  107.8661 C   0  0  0  0  0  0  0  0  0  0  0  0
  125.9837  105.9841  108.6006 C   0  0  0  0  0  0  0  0  0  0  0  0
  124.6902  106.3117  106.7739 C   0  0  0  0  0  0  0  0  0  0  0  0
  124.8316  104.8052  106.8843 C   0  0  2  0  0  0  0  0  0  0  0  0
  122.5946  104.2749  105.9027 C   0  0  0  0  0  0  0  0  0  0  0  0
  123.4999  104.1164  107.0868 C   0  0  0  0  0  0  0  0  0  0  0  0
  125.6428  109.5173  108.2238 N   0  0  0  0  0  0  0  0  0  0  0  0
  125.6403  104.7484  108.0791 N   0  0  0  0  0  0  0  0  0  0  0  0
  126.7587  106.1513  109.7112 N   0  0  0  0  0  0  0  0  0  0  0  0
  124.0478  106.9035  105.9209 O   0  0  0  0  0  0  0  0  0  0  0  0
  125.3831  104.4176  106.0227 H   0  0  0  0  0  0  0  0  0  0  0  0
  122.4223  105.3384  105.6998 H   0  0  0  0  0  0  0  0  0  0  0  0
  121.6243  103.8039  106.0923 H   0  0  0  0  0  0  0  0  0  0  0  0
  123.0444  103.8273  105.0102 H   0  0  0  0  0  0  0  0  0  0  0  0
  123.6596  103.0462  107.2730 H   0  0  0  0  0  0  0  0  0  0  0  0
  123.0008  104.5261  107.9747 H   0  0  0  0  0  0  0  0  0  0  0  0
  125.9740  103.8928  108.5031 H   0  0  0  0  0  0  0  0  0  0  0  0
  126.9566  107.0781  110.0194 H   0  0  0  0  0  0  0  0  0  0  0  0
  127.1026  105.3415  110.1793 H   0  0  0  0  0  0  0  0  0  0  0  0
  1  2  1  0  0  0  0
  1  8  3  0  0  0  0
  2  3  2  0  0  0  0
  2  4  1  0  0  0  0
  3  9  1  0  0  0  0
  3 10  1  0  0  0  0
  4  5  1  0  0  0  0
  4 11  2  0  0  0  0
  5  7  1  0  0  0  0
  5  9  1  0  0  0  0
  6  7  1  0  0  0  0
  5 12  1  0  0  0  0
  6 13  1  0  0  0  0
  6 14  1  0  0  0  0
  6 15  1  0  0  0  0
  7 16  1  0  0  0  0
  7 17  1  0  0  0  0
  9 18  1  0  0  0  0
 10 19  1  0  0  0  0
 10 20  1  0  0  0  0
M  END
> <FRED Chemgauss4 score>
-6.615612

$$$$
C19167104	P56654440
  -OEChem-05122015313D

 32 32  0     0  0  0  0  0  0999 V2000
  120.3964  106.2469  104.5545 C   0  0  0  0  0  0  0  0  0  0  0  0
  119.3766  104.8866  106.2649 C   0  0  0  0  0  0  0  0  0  0  0  0
  121.7709  105.6656  104.9086 C   0  0  0  0  0  0  0  0  0  0  0  0
  120.7492  104.3029  106.6223 C   0  0  0  0  0  0  0  0  0  0  0  0
  119.1533  104.2546  103.9288 C   0  0  0  0  0  0  0  0  0  0  0  0
  124.1569  105.7793  106.9877 C   0  0  0  0  0  0  0  0  0  0  0  0
  123.1274  104.7017  106.6538 C   0  0  0  0  0  0  0  0  0  0  0  0
  125.5266  105.2250  107.3736 C   0  0  0  0  0  0  0  0  0  0  0  0
  119.2731  105.3589  104.8785 N   0  0  0  0  0  0  0  0  0  0  0  0
  121.8192  105.2602  106.3182 N   0  0  0  0  0  0  0  0  0  0  0  0
  126.2754  106.7294  108.9990 N   0  0  0  0  0  0  0  0  0  0  0  0
  126.4807  106.2612  107.6594 N   0  0  0  0  0  0  0  0  0  0  0  0
  120.2733  107.2298  105.0597 H   0  0  0  0  0  0  0  0  0  0  0  0
  120.3882  106.4698  103.4676 H   0  0  0  0  0  0  0  0  0  0  0  0
  118.6132  104.1016  106.4445 H   0  0  0  0  0  0  0  0  0  0  0  0
  119.1311  105.7068  106.9746 H   0  0  0  0  0  0  0  0  0  0  0  0
  121.9932  104.8165  104.2481 H   0  0  0  0  0  0  0  0  0  0  0  0
  122.5291  106.4347  104.7175 H   0  0  0  0  0  0  0  0  0  0  0  0
  120.7547  104.0686  107.6938 H   0  0  0  0  0  0  0  0  0  0  0  0
  120.9010  103.3592  106.0808 H   0  0  0  0  0  0  0  0  0  0  0  0
  118.3090  103.6156  104.2001 H   0  0  0  0  0  0  0  0  0  0  0  0
  120.0659  103.6523  103.9324 H   0  0  0  0  0  0  0  0  0  0  0  0
  118.9922  104.6406  102.9187 H   0  0  0  0  0  0  0  0  0  0  0  0
  123.7683  106.3910  107.8112 H   0  0  0  0  0  0  0  0  0  0  0  0
  124.2795  106.4435  106.1233 H   0  0  0  0  0  0  0  0  0  0  0  0
  123.4531  104.0831  105.8120 H   0  0  0  0  0  0  0  0  0  0  0  0
  122.9806  104.0463  107.5181 H   0  0  0  0  0  0  0  0  0  0  0  0
  125.9361  104.6355  106.5472 H   0  0  0  0  0  0  0  0  0  0  0  0
  125.4635  104.5765  108.2528 H   0  0  0  0  0  0  0  0  0  0  0  0
  126.0150  107.7149  108.9738 H   0  0  0  0  0  0  0  0  0  0  0  0
  125.4810  106.2421  109.4119 H   0  0  0  0  0  0  0  0  0  0  0  0
  127.4377  105.8989  107.5876 H   0  0  0  0  0  0  0  0  0  0  0  0
  1  3  1  0  0  0  0
  1  9  1  0  0  0  0
  2  4  1  0  0  0  0
  2  9  1  0  0  0  0
  3 10  1  0  0  0  0
  4 10  1  0  0  0  0
  5  9  1  0  0  0  0
  6  7  1  0  0  0  0
  6  8  1  0  0  0  0
  7 10  1  0  0  0  0
  8 12  1  0  0  0  0
 11 12  1  0  0  0  0
  1 13  1  0  0  0  0
  1 14  1  0  0  0  0
  2 15  1  0  0  0  0
  2 16  1  0  0  0  0
  3 17  1  0  0  0  0
  3 18  1  0  0  0  0
  4 19  1  0  0  0  0
  4 20  1  0  0  0  0
  5 21  1  0  0  0  0
  5 22  1  0  0  0  0
  5 23  1  0  0  0  0
  6 24  1  0  0  0  0
  6 25  1  0  0  0  0
  7 26  1  0  0  0  0
  7 27  1  0  0  0  0
  8 28  1  0  0  0  0
  8 29  1  0  0  0  0
 11 30  1  0  0  0  0
 11 31  1  0  0  0  0
 12 32  1  0  0  0  0
M  END
> <FRED Chemgauss4 score>
-6.614046

$$$$
C20216428	P30109106
  -OEChem-05122015313D

 14 14  0     1  0  0  0  0  0999 V2000
  125.4433  108.4233  108.0214 C   0  0  0  0  0  0  0  0  0  0  0  0
  125.6244  106.3887  106.8589 C   0  0  0  0  0  0  0  0  0  0  0  0
  124.7201  107.6098  106.9857 C   0  0  2  0  0  0  0  0  0  0  0  0
  126.2713  107.5374  108.6924 N   0  0  0  0  0  0  0  0  0  0  0  0
  126.2081  106.2413  108.1972 N   0  0  0  0  0  0  0  0  0  0  0  0
  124.5903  108.3687  105.7557 N   0  0  0  0  0  0  0  0  0  0  0  0
  125.3002  109.6150  108.2448 O   0  0  0  0  0  0  0  0  0  0  0  0
  125.0742  105.4938  106.5512 H   0  0  0  0  0  0  0  0  0  0  0  0
  126.4336  106.5515  106.1356 H   0  0  0  0  0  0  0  0  0  0  0  0
  123.7337  107.3344  107.3916 H   0  0  0  0  0  0  0  0  0  0  0  0
  126.8875  107.7768  109.4600 H   0  0  0  0  0  0  0  0  0  0  0  0
  127.1745  105.9267  108.1072 H   0  0  0  0  0  0  0  0  0  0  0  0
  124.4271  109.3552  105.8163 H   0  0  0  0  0  0  0  0  0  0  0  0
  124.4631  107.8699  104.8962 H   0  0  0  0  0  0  0  0  0  0  0  0
  1  3  1  0  0  0  0
  1  4  1  0  0  0  0
  1  7  2  0  0  0  0
  2  3  1  0  0  0  0
  2  5  1  0  0  0  0
  3  6  1  0  0  0  0
  4  5  1  0  0  0  0
  2  8  1  0  0  0  0
  2  9  1  0  0  0  0
  3 10  1  0  0  0  0
  4 11  1  0  0  0  0
  5 12  1  0  0  0  0
  6 13  1  0  0  0  0
  6 14  1  0  0  0  0
M  END
> <FRED Chemgauss4 score>
-6.602182

$$$$
C36264814	P53889379
  -OEChem-05122015313D

 19 19  0     1  0  0  0  0  0999 V2000
  126.8585  106.4035  107.3098 C   0  0  0  0  0  0  0  0  0  0  0  0
  126.6915  105.7018  108.6308 C   0  0  2  0  0  0  0  0  0  0  0  0
  125.6852  106.7310  108.1897 C   0  0  1  0  0  0  0  0  0  0  0  0
  123.5279  109.4264  109.9314 C   0  0  0  0  0  0  0  0  0  0  0  0
  127.6220  105.9816  109.7280 N   0  0  0  0  0  0  0  0  0  0  0  0
  125.5515  108.0453  108.8416 N   0  0  0  0  0  0  0  0  0  0  0  0
  123.3336  108.3637  107.5475 O   0  0  0  0  0  0  0  0  0  0  0  0
  124.8736  110.3307  107.8877 O   0  0  0  0  0  0  0  0  0  0  0  0
  124.2895  109.0901  108.3602 S   0  0  0  0  0  0  0  0  0  0  0  0
  127.6468  107.1403  107.2104 H   0  0  0  0  0  0  0  0  0  0  0  0
  126.6685  105.8328  106.4086 H   0  0  0  0  0  0  0  0  0  0  0  0
  126.3699  104.6657  108.5890 H   0  0  0  0  0  0  0  0  0  0  0  0
  124.7163  106.3628  107.8703 H   0  0  0  0  0  0  0  0  0  0  0  0
  122.6847  110.0994  109.7684 H   0  0  0  0  0  0  0  0  0  0  0  0
  123.1864  108.4819  110.3577 H   0  0  0  0  0  0  0  0  0  0  0  0
  124.2699  109.8933  110.5808 H   0  0  0  0  0  0  0  0  0  0  0  0
  128.5854  105.7836  109.5810 H   0  0  0  0  0  0  0  0  0  0  0  0
  127.2377  106.1598  110.6279 H   0  0  0  0  0  0  0  0  0  0  0  0
  126.4492  108.4836  109.0866 H   0  0  0  0  0  0  0  0  0  0  0  0
  1  2  1  0  0  0  0
  1  3  1  0  0  0  0
  2  3  1  0  0  0  0
  2  5  1  0  0  0  0
  3  6  1  0  0  0  0
  4  9  1  0  0  0  0
  6  9  1  0  0  0  0
  7  9  2  0  0  0  0
  8  9  2  0  0  0  0
  1 10  1  0  0  0  0
  1 11  1  0  0  0  0
  2 12  1  0  0  0  0
  3 13  1  0  0  0  0
  4 14  1  0  0  0  0
  4 15  1  0  0  0  0
  4 16  1  0  0  0  0
  5 17  1  0  0  0  0
  5 18  1  0  0  0  0
  6 19  1  0  0  0  0
M  END
> <FRED Chemgauss4 score>
-6.596905

$$$$
C39118106	P138006491
  -OEChem-05122015313D

 18 18  0     1  0  0  0  0  0999 V2000
  124.6158  106.7645  109.1650 C   0  0  0  0  0  0  0  0  0  0  0  0
  125.8818  106.0984  108.6335 C   0  0  0  0  0  0  0  0  0  0  0  0
  126.5555  108.2962  107.6688 C   0  0  0  0  0  0  0  0  0  0  0  0
  125.2696  108.8915  108.2434 C   0  0  2  0  0  0  0  0  0  0  0  0
  124.2111  107.8829  108.3080 N   0  5  0  0  0  0  0  0  0  0  0  0
  124.8013  109.9586  107.3640 N   0  0  0  0  0  0  0  0  0  0  0  0
  126.9600  107.1300  108.5183 N   0  3  0  0  0  0  0  0  0  0  0  0
  123.8205  106.0109  109.2080 H   0  0  0  0  0  0  0  0  0  0  0  0
  124.7773  107.0903  110.2011 H   0  0  0  0  0  0  0  0  0  0  0  0
  126.2493  105.3255  109.3149 H   0  0  0  0  0  0  0  0  0  0  0  0
  125.7396  105.6677  107.6363 H   0  0  0  0  0  0  0  0  0  0  0  0
  126.4344  107.9156  106.6474 H   0  0  0  0  0  0  0  0  0  0  0  0
  127.3871  109.0081  107.6911 H   0  0  0  0  0  0  0  0  0  0  0  0
  125.4748  109.3263  109.2302 H   0  0  0  0  0  0  0  0  0  0  0  0
  125.4837  110.5308  106.9156 H   0  0  0  0  0  0  0  0  0  0  0  0
  123.8363  110.2075  107.4007 H   0  0  0  0  0  0  0  0  0  0  0  0
  127.2201  107.4630  109.4573 H   0  0  0  0  0  0  0  0  0  0  0  0
  127.8088  106.6979  108.1283 H   0  0  0  0  0  0  0  0  0  0  0  0
  1  2  1  0  0  0  0
  1  5  1  0  0  0  0
  2  7  1  0  0  0  0
  3  4  1  0  0  0  0
  3  7  1  0  0  0  0
  4  5  1  0  0  0  0
  4  6  1  0  0  0  0
  1  8  1  0  0  0  0
  1  9  1  0  0  0  0
  2 10  1  0  0  0  0
  2 11  1  0  0  0  0
  3 12  1  0  0  0  0
  3 13  1  0  0  0  0
  4 14  1  0  0  0  0
  6 15  1  0  0  0  0
  6 16  1  0  0  0  0
  7 17  1  0  0  0  0
  7 18  1  0  0  0  0
M  CHG  2   5  -1   7   1
M  END
> <FRED Chemgauss4 score>
-6.595181

$$$$
C22212436	P33050508
  -OEChem-05122015313D

 30 30  0     1  0  0  0  0  0999 V2000
  122.3837  110.5460  109.8758 C   0  0  0  0  0  0  0  0  0  0  0  0
  123.9766  110.3078  111.6556 C   0  0  0  0  0  0  0  0  0  0  0  0
  121.8932  111.8441  110.5082 C   0  0  0  0  0  0  0  0  0  0  0  0
  123.4628  111.6045  112.2939 C   0  0  1  0  0  0  0  0  0  0  0  0
  124.3405  112.8190  111.9949 C   0  0  0  0  0  0  0  0  0  0  0  0
  124.2924  109.1004  109.5910 C   0  0  0  0  0  0  0  0  0  0  0  0
  125.2168  107.9833  107.4951 C   0  0  0  0  0  0  0  0  0  0  0  0
  124.6904  109.2733  108.1245 C   0  0  2  0  0  0  0  0  0  0  0  0
  123.8015  110.3368  110.1968 N   0  0  1  0  0  0  0  0  0  0  0  0
  125.5683  108.2158  106.1114 N   0  0  0  0  0  0  0  0  0  0  0  0
  122.0994  111.8386  111.9208 O   0  0  0  0  0  0  0  0  0  0  0  0
  125.7003  110.2772  108.0232 O   0  0  0  0  0  0  0  0  0  0  0  0
  121.7805  109.7139  110.2587 H   0  0  0  0  0  0  0  0  0  0  0  0
  122.2426  110.5939  108.7874 H   0  0  0  0  0  0  0  0  0  0  0  0
  125.0421  110.1660  111.9037 H   0  0  0  0  0  0  0  0  0  0  0  0
  123.4259  109.4544  112.0813 H   0  0  0  0  0  0  0  0  0  0  0  0
  122.4515  112.6940  110.0949 H   0  0  0  0  0  0  0  0  0  0  0  0
  120.8285  112.0215  110.2950 H   0  0  0  0  0  0  0  0  0  0  0  0
  123.4685  111.4660  113.4257 H   0  0  0  0  0  0  0  0  0  0  0  0
  124.3730  113.0014  110.9203 H   0  0  0  0  0  0  0  0  0  0  0  0
  125.3551  112.6445  112.3540 H   0  0  0  0  0  0  0  0  0  0  0  0
  123.9376  113.7027  112.4907 H   0  0  0  0  0  0  0  0  0  0  0  0
  123.5032  108.3491  109.6945 H   0  0  0  0  0  0  0  0  0  0  0  0
  125.1541  108.7837  110.1872 H   0  0  0  0  0  0  0  0  0  0  0  0
  124.4611  107.1916  107.5272 H   0  0  0  0  0  0  0  0  0  0  0  0
  126.1084  107.6341  108.0260 H   0  0  0  0  0  0  0  0  0  0  0  0
  123.8188  109.6322  107.5634 H   0  0  0  0  0  0  0  0  0  0  0  0
  124.9876  108.8213  105.5607 H   0  0  0  0  0  0  0  0  0  0  0  0
  126.2511  107.6200  105.6800 H   0  0  0  0  0  0  0  0  0  0  0  0
  125.9193  110.3514  107.0821 H   0  0  0  0  0  0  0  0  0  0  0  0
  1  3  1  0  0  0  0
  1  9  1  0  0  0  0
  2  4  1  0  0  0  0
  2  9  1  0  0  0  0
  3 11  1  0  0  0  0
  4  5  1  0  0  0  0
  4 11  1  0  0  0  0
  6  8  1  0  0  0  0
  6  9  1  0  0  0  0
  7  8  1  0  0  0  0
  7 10  1  0  0  0  0
  8 12  1  0  0  0  0
  1 13  1  0  0  0  0
  1 14  1  0  0  0  0
  2 15  1  0  0  0  0
  2 16  1  0  0  0  0
  3 17  1  0  0  0  0
  3 18  1  0  0  0  0
  4 19  1  0  0  0  0
  5 20  1  0  0  0  0
  5 21  1  0  0  0  0
  5 22  1  0  0  0  0
  6 23  1  0  0  0  0
  6 24  1  0  0  0  0
  7 25  1  0  0  0  0
  7 26  1  0  0  0  0
  8 27  1  0  0  0  0
 10 28  1  0  0  0  0
 10 29  1  0  0  0  0
 12 30  1  0  0  0  0
M  END
> <FRED Chemgauss4 score>
-6.594785

$$$$
C25629123	P37871821
  -OEChem-05122015313D

 17 17  0     1  0  0  0  0  0999 V2000
  121.7262  105.1149  106.6708 C   0  0  0  0  0  0  0  0  0  0  0  0
  121.8396  105.9466  105.5755 C   0  0  0  0  0  0  0  0  0  0  0  0
  122.5861  105.3837  107.7161 C   0  0  0  0  0  0  0  0  0  0  0  0
  123.5037  107.1254  106.5797 C   0  0  0  0  0  0  0  0  0  0  0  0
  122.7205  106.9654  105.4959 N   0  0  0  0  0  0  0  0  0  0  0  0
  123.4908  106.3845  107.7042 N   0  0  0  0  0  0  0  0  0  0  0  0
  120.9748  105.7046  104.4802 N   0  0  0  0  0  0  0  0  0  0  0  0
  122.5023  104.5527  108.8601 N   0  0  0  0  0  0  0  0  0  0  0  0
  124.5235  109.1441  105.1870 O   0  0  0  0  0  0  0  0  0  0  0  0
  123.9583  109.3512  107.6463 O   0  0  0  0  0  0  0  0  0  0  0  0
  124.6680  108.4422  106.5199 S   0  0  1  0  0  0  0  0  0  0  0  0
  121.0086  104.3032  106.7077 H   0  0  0  0  0  0  0  0  0  0  0  0
  120.3561  104.9237  104.5181 H   0  0  0  0  0  0  0  0  0  0  0  0
  121.0699  106.2622  103.6591 H   0  0  0  0  0  0  0  0  0  0  0  0
  121.8028  103.8428  108.8898 H   0  0  0  0  0  0  0  0  0  0  0  0
  123.0802  104.7564  109.6467 H   0  0  0  0  0  0  0  0  0  0  0  0
  124.3713  110.2445  107.7066 H   0  0  0  0  0  0  0  0  0  0  0  0
  1  2  2  0  0  0  0
  1  3  1  0  0  0  0
  2  5  1  0  0  0  0
  2  7  1  0  0  0  0
  3  6  2  0  0  0  0
  3  8  1  0  0  0  0
  4  5  2  0  0  0  0
  4  6  1  0  0  0  0
  4 11  1  0  0  0  0
  9 11  2  0  0  0  0
 10 11  1  0  0  0  0
  1 12  1  0  0  0  0
  7 13  1  0  0  0  0
  7 14  1  0  0  0  0
  8 15  1  0  0  0  0
  8 16  1  0  0  0  0
 10 17  1  0  0  0  0
M  END
> <FRED Chemgauss4 score>
-6.592890

$$$$
C31319449	P46145132
  -OEChem-05122015313D

 22 22  0     0  0  0  0  0  0999 V2000
  124.6382  106.9313  106.3611 C   0  0  0  0  0  0  0  0  0  0  0  0
  124.0619  104.5441  106.8935 C   0  0  0  0  0  0  0  0  0  0  0  0
  125.9952  105.4714  107.8916 C   0  0  0  0  0  0  0  0  0  0  0  0
  122.6514  105.8537  105.3282 C   0  0  0  0  0  0  0  0  0  0  0  0
  126.7104  107.8001  107.4228 C   0  0  0  0  0  0  0  0  0  0  0  0
  124.7586  104.7522  108.1529 N   0  0  0  0  0  0  0  0  0  0  0  0
  123.7760  105.8240  106.2528 N   0  0  0  0  0  0  0  0  0  0  0  0
  125.7130  106.7529  107.2525 N   0  0  0  0  0  0  0  0  0  0  0  0
  124.4547  107.9823  105.7401 O   0  0  0  0  0  0  0  0  0  0  0  0
  121.6106  105.0451  105.8417 O   0  0  0  0  0  0  0  0  0  0  0  0
  126.1030  109.0571  107.1947 O   0  0  0  0  0  0  0  0  0  0  0  0
  124.6477  103.9308  106.1994 H   0  0  0  0  0  0  0  0  0  0  0  0
  123.1170  104.0270  107.0909 H   0  0  0  0  0  0  0  0  0  0  0  0
  126.5073  105.6547  108.8421 H   0  0  0  0  0  0  0  0  0  0  0  0
  126.6704  104.9002  107.2441 H   0  0  0  0  0  0  0  0  0  0  0  0
  122.9824  105.4654  104.3619 H   0  0  0  0  0  0  0  0  0  0  0  0
  122.3076  106.8863  105.2314 H   0  0  0  0  0  0  0  0  0  0  0  0
  127.5144  107.6386  106.7006 H   0  0  0  0  0  0  0  0  0  0  0  0
  127.0946  107.7519  108.4445 H   0  0  0  0  0  0  0  0  0  0  0  0
  124.1715  105.3136  108.7689 H   0  0  0  0  0  0  0  0  0  0  0  0
  121.3595  105.4168  106.7044 H   0  0  0  0  0  0  0  0  0  0  0  0
  126.7917  109.7328  107.3154 H   0  0  0  0  0  0  0  0  0  0  0  0
  1  7  1  0  0  0  0
  1  8  1  0  0  0  0
  1  9  2  0  0  0  0
  2  6  1  0  0  0  0
  2  7  1  0  0  0  0
  3  6  1  0  0  0  0
  3  8  1  0  0  0  0
  4  7  1  0  0  0  0
  4 10  1  0  0  0  0
  5  8  1  0  0  0  0
  5 11  1  0  0  0  0
  2 12  1  0  0  0  0
  2 13  1  0  0  0  0
  3 14  1  0  0  0  0
  3 15  1  0  0  0  0
  4 16  1  0  0  0  0
  4 17  1  0  0  0  0
  5 18  1  0  0  0  0
  5 19  1  0  0  0  0
  6 20  1  0  0  0  0
 10 21  1  0  0  0  0
 11 22  1  0  0  0  0
M  END
> <FRED Chemgauss4 score>
-6.589994

$$$$
C87589505	P137000350
  -OEChem-05122015313D

 15 15  0     1  0  0  0  0  0999 V2000
  124.5648  109.3563  108.4933 C   0  0  0  0  0  0  0  0  0  0  0  0
  124.5310  108.6288  107.5385 C   0  0  0  0  0  0  0  0  0  0  0  0
  125.6873  105.7114  107.4027 C   0  0  0  0  0  0  0  0  0  0  0  0
  123.8920  104.2109  106.8303 C   0  0  0  0  0  0  0  0  0  0  0  0
  124.6154  106.2796  106.7469 C   0  0  0  0  0  0  0  0  0  0  0  0
  124.4846  107.7390  106.3672 C   0  0  2  0  0  0  0  0  0  0  0  0
  123.5851  105.4206  106.4175 N   0  0  0  0  0  0  0  0  0  0  0  0
  125.4914  108.1214  105.4050 N   0  0  0  0  0  0  0  0  0  0  0  0
  125.4039  104.0344  107.6229 S   0  0  0  0  0  0  0  0  0  0  0  0
  124.5948  110.0014  109.3400 H   0  0  0  0  0  0  0  0  0  0  0  0
  126.5950  106.1812  107.7547 H   0  0  0  0  0  0  0  0  0  0  0  0
  123.2317  103.3675  106.6818 H   0  0  0  0  0  0  0  0  0  0  0  0
  123.5260  107.8938  105.8569 H   0  0  0  0  0  0  0  0  0  0  0  0
  125.7297  109.0929  105.3121 H   0  0  0  0  0  0  0  0  0  0  0  0
  125.7824  107.4514  104.7151 H   0  0  0  0  0  0  0  0  0  0  0  0
  1  2  3  0  0  0  0
  2  6  1  0  0  0  0
  3  5  2  0  0  0  0
  3  9  1  0  0  0  0
  4  7  2  0  0  0  0
  4  9  1  0  0  0  0
  5  6  1  0  0  0  0
  5  7  1  0  0  0  0
  6  8  1  0  0  0  0
  1 10  1  0  0  0  0
  3 11  1  0  0  0  0
  4 12  1  0  0  0  0
  6 13  1  0  0  0  0
  8 14  1  0  0  0  0
  8 15  1  0  0  0  0
M  END
> <FRED Chemgauss4 score>
-6.580154

$$$$
C39135257	P59285826
  -OEChem-05122015313D

 19 18  0     0  0  0  0  0  0999 V2000
  125.1802  104.1822  107.2828 C   0  0  0  0  0  0  0  0  0  0  0  0
  125.2288  105.5890  107.5568 C   0  0  0  0  0  0  0  0  0  0  0  0
  126.0494  106.0862  108.5284 C   0  0  0  0  0  0  0  0  0  0  0  0
  124.3512  106.4935  106.7396 C   0  0  0  0  0  0  0  0  0  0  0  0
  122.2918  106.5575  105.5755 C   0  0  0  0  0  0  0  0  0  0  0  0
  125.1394  103.0440  107.0599 N   0  0  0  0  0  0  0  0  0  0  0  0
  126.0784  107.4493  108.7741 N   0  0  0  0  0  0  0  0  0  0  0  0
  127.8024  105.7275  110.1731 N   0  0  0  0  0  0  0  0  0  0  0  0
  126.8531  105.2467  109.2934 N   0  0  0  0  0  0  0  0  0  0  0  0
  124.6086  107.6545  106.4580 O   0  0  0  0  0  0  0  0  0  0  0  0
  123.2287  105.8167  106.3651 O   0  0  0  0  0  0  0  0  0  0  0  0
  121.4359  105.9226  105.3334 H   0  0  0  0  0  0  0  0  0  0  0  0
  122.7770  106.8988  104.6577 H   0  0  0  0  0  0  0  0  0  0  0  0
  121.9501  107.4229  106.1483 H   0  0  0  0  0  0  0  0  0  0  0  0
  125.4812  108.0497  108.2193 H   0  0  0  0  0  0  0  0  0  0  0  0
  126.6752  107.8467  109.4873 H   0  0  0  0  0  0  0  0  0  0  0  0
  128.3744  106.4161  109.6861 H   0  0  0  0  0  0  0  0  0  0  0  0
  127.3253  106.2344  110.9175 H   0  0  0  0  0  0  0  0  0  0  0  0
  126.8247  104.2486  109.1220 H   0  0  0  0  0  0  0  0  0  0  0  0
  1  2  1  0  0  0  0
  1  6  3  0  0  0  0
  2  3  2  0  0  0  0
  2  4  1  0  0  0  0
  3  7  1  0  0  0  0
  3  9  1  0  0  0  0
  4 10  2  0  0  0  0
  4 11  1  0  0  0  0
  5 11  1  0  0  0  0
  8  9  1  0  0  0  0
  5 12  1  0  0  0  0
  5 13  1  0  0  0  0
  5 14  1  0  0  0  0
  7 15  1  0  0  0  0
  7 16  1  0  0  0  0
  8 17  1  0  0  0  0
  8 18  1  0  0  0  0
  9 19  1  0  0  0  0
M  END
> <FRED Chemgauss4 score>
-6.566125

$$$$
C39113939	P59254499
  -OEChem-05122015313D

 22 22  0     1  0  0  0  0  0999 V2000
  124.7714  107.6664  106.2504 C   0  0  0  0  0  0  0  0  0  0  0  0
  124.7150  105.2850  107.8826 C   0  0  0  0  0  0  0  0  0  0  0  0
  123.9240  106.4633  105.8608 C   0  0  1  0  0  0  0  0  0  0  0  0
  126.0313  105.9387  107.4869 C   0  0  1  0  0  0  0  0  0  0  0  0
  122.3253  105.0997  107.2591 C   0  0  0  0  0  0  0  0  0  0  0  0
  126.6896  108.3668  107.6530 C   0  0  0  0  0  0  0  0  0  0  0  0
  123.6464  105.6845  107.0688 N   0  0  0  0  0  0  0  0  0  0  0  0
  125.7609  107.3459  107.1877 N   0  0  0  0  0  0  0  0  0  0  0  0
  124.6274  108.7654  105.7183 O   0  0  0  0  0  0  0  0  0  0  0  0
  124.6522  104.4345  108.7685 O   0  0  0  0  0  0  0  0  0  0  0  0
  122.7415  106.9093  105.2248 O   0  0  0  0  0  0  0  0  0  0  0  0
  126.9643  105.7973  108.5408 O   0  0  0  0  0  0  0  0  0  0  0  0
  124.4887  105.8296  105.1615 H   0  0  0  0  0  0  0  0  0  0  0  0
  126.4286  105.4589  106.5856 H   0  0  0  0  0  0  0  0  0  0  0  0
  121.7524  105.6915  107.9777 H   0  0  0  0  0  0  0  0  0  0  0  0
  122.4153  104.0777  107.6371 H   0  0  0  0  0  0  0  0  0  0  0  0
  121.7823  105.0760  106.3104 H   0  0  0  0  0  0  0  0  0  0  0  0
  126.2846  108.8692  108.5352 H   0  0  0  0  0  0  0  0  0  0  0  0
  126.8565  109.1111  106.8697 H   0  0  0  0  0  0  0  0  0  0  0  0
  127.6492  107.9133  107.9157 H   0  0  0  0  0  0  0  0  0  0  0  0
  123.0118  107.4093  104.4355 H   0  0  0  0  0  0  0  0  0  0  0  0
  127.0866  104.8437  108.6895 H   0  0  0  0  0  0  0  0  0  0  0  0
  1  3  1  0  0  0  0
  1  8  1  0  0  0  0
  1  9  2  0  0  0  0
  2  4  1  0  0  0  0
  2  7  1  0  0  0  0
  2 10  2  0  0  0  0
  3  7  1  0  0  0  0
  3 11  1  0  0  0  0
  4  8  1  0  0  0  0
  4 12  1  0  0  0  0
  5  7  1  0  0  0  0
  6  8  1  0  0  0  0
  3 13  1  0  0  0  0
  4 14  1  0  0  0  0
  5 15  1  0  0  0  0
  5 16  1  0  0  0  0
  5 17  1  0  0  0  0
  6 18  1  0  0  0  0
  6 19  1  0  0  0  0
  6 20  1  0  0  0  0
 11 21  1  0  0  0  0
 12 22  1  0  0  0  0
M  END
> <FRED Chemgauss4 score>
-6.560106

$$$$
C01236370	P12545962
  -OEChem-05122015313D

 14 14  0     0  0  0  0  0  0999 V2000
  126.7152  107.5217  107.3748 C   0  0  0  0  0  0  0  0  0  0  0  0
  126.5569  106.5147  108.2438 C   0  0  0  0  0  0  0  0  0  0  0  0
  125.2775  105.7416  108.1847 C   0  0  0  0  0  0  0  0  0  0  0  0
  124.5590  107.2133  106.3166 C   0  0  0  0  0  0  0  0  0  0  0  0
  125.7717  107.8693  106.4481 N   0  0  0  0  0  0  0  0  0  0  0  0
  124.3760  106.1606  107.2145 N   0  0  0  0  0  0  0  0  0  0  0  0
  127.4655  106.1305  109.1838 N   0  0  0  0  0  0  0  0  0  0  0  0
  125.0579  104.8053  108.9498 O   0  0  0  0  0  0  0  0  0  0  0  0
  123.7125  107.5302  105.4805 O   0  0  0  0  0  0  0  0  0  0  0  0
  127.6144  108.1274  107.3570 H   0  0  0  0  0  0  0  0  0  0  0  0
  125.9700  108.6468  105.8254 H   0  0  0  0  0  0  0  0  0  0  0  0
  123.4987  105.6517  107.1526 H   0  0  0  0  0  0  0  0  0  0  0  0
  128.3280  106.6276  109.2474 H   0  0  0  0  0  0  0  0  0  0  0  0
  127.2417  105.3634  109.7809 H   0  0  0  0  0  0  0  0  0  0  0  0
  1  2  2  0  0  0  0
  1  5  1  0  0  0  0
  2  3  1  0  0  0  0
  2  7  1  0  0  0  0
  3  6  1  0  0  0  0
  3  8  2  0  0  0  0
  4  5  1  0  0  0  0
  4  6  1  0  0  0  0
  4  9  2  0  0  0  0
  1 10  1  0  0  0  0
  5 11  1  0  0  0  0
  6 12  1  0  0  0  0
  7 13  1  0  0  0  0
  7 14  1  0  0  0  0
M  END
> <FRED Chemgauss4 score>
-6.549831

$$$$
C51004195	P76349427
  -OEChem-05122015313D

 18 18  0     0  0  0  0  0  0999 V2000
  123.9205  105.5553  107.9914 C   0  0  0  0  0  0  0  0  0  0  0  0
  123.5024  109.3207  110.0166 C   0  0  0  0  0  0  0  0  0  0  0  0
  123.5401  107.9473  110.0711 C   0  0  0  0  0  0  0  0  0  0  0  0
  124.9794  108.7355  108.6000 C   0  0  0  0  0  0  0  0  0  0  0  0
  124.8928  106.2343  108.8518 C   0  0  0  0  0  0  0  0  0  0  0  0
  126.0320  108.7210  107.5638 C   0  0  0  0  0  0  0  0  0  0  0  0
  123.1517  105.0157  107.3100 N   0  0  0  0  0  0  0  0  0  0  0  0
  124.4005  109.8051  109.0987 N   0  0  0  0  0  0  0  0  0  0  0  0
  124.4905  107.5869  109.1578 N   0  0  0  0  0  0  0  0  0  0  0  0
  127.3457  108.4425  108.1011 N   0  0  0  0  0  0  0  0  0  0  0  0
  122.8742  109.9853  110.5915 H   0  0  0  0  0  0  0  0  0  0  0  0
  122.9929  107.2236  110.6588 H   0  0  0  0  0  0  0  0  0  0  0  0
  125.0192  105.7014  109.8009 H   0  0  0  0  0  0  0  0  0  0  0  0
  125.8777  106.2796  108.3737 H   0  0  0  0  0  0  0  0  0  0  0  0
  125.8354  107.9583  106.7898 H   0  0  0  0  0  0  0  0  0  0  0  0
  126.1058  109.6848  107.0306 H   0  0  0  0  0  0  0  0  0  0  0  0
  128.1508  108.7900  107.6130 H   0  0  0  0  0  0  0  0  0  0  0  0
  127.4360  107.7486  108.8206 H   0  0  0  0  0  0  0  0  0  0  0  0
  1  5  1  0  0  0  0
  1  7  3  0  0  0  0
  2  3  2  0  0  0  0
  2  8  1  0  0  0  0
  3  9  1  0  0  0  0
  4  6  1  0  0  0  0
  4  8  2  0  0  0  0
  4  9  1  0  0  0  0
  5  9  1  0  0  0  0
  6 10  1  0  0  0  0
  2 11  1  0  0  0  0
  3 12  1  0  0  0  0
  5 13  1  0  0  0  0
  5 14  1  0  0  0  0
  6 15  1  0  0  0  0
  6 16  1  0  0  0  0
 10 17  1  0  0  0  0
 10 18  1  0  0  0  0
M  END
> <FRED Chemgauss4 score>
-6.541239

$$$$
C95922224	P151021538
  -OEChem-05122015313D

 16 16  0     1  0  0  0  0  0999 V2000
  124.4592  107.6726  106.6113 C   0  0  0  0  0  0  0  0  0  0  0  0
  124.2090  105.1949  106.8052 C   0  0  0  0  0  0  0  0  0  0  0  0
  124.5947  104.1152  107.4802 C   0  0  0  0  0  0  0  0  0  0  0  0
  125.6259  106.7563  108.1156 C   0  0  0  0  0  0  0  0  0  0  0  0
  125.4450  108.2347  107.6672 C   0  0  1  0  0  0  0  0  0  0  0  0
  124.6548  106.4276  107.0919 N   0  0  0  0  0  0  0  0  0  0  0  0
  126.6883  108.7181  107.0745 N   0  0  0  0  0  0  0  0  0  0  0  0
  123.7807  108.1203  105.7161 O   0  0  0  0  0  0  0  0  0  0  0  0
  125.4654  104.1973  108.5030 F   0  0  0  0  0  0  0  0  0  0  0  0
  123.5084  105.1323  105.9820 H   0  0  0  0  0  0  0  0  0  0  0  0
  124.2832  103.0950  107.3111 H   0  0  0  0  0  0  0  0  0  0  0  0
  126.6062  106.2963  107.9536 H   0  0  0  0  0  0  0  0  0  0  0  0
  125.2754  106.5424  109.1301 H   0  0  0  0  0  0  0  0  0  0  0  0
  124.9845  108.9028  108.3997 H   0  0  0  0  0  0  0  0  0  0  0  0
  127.5364  108.5728  107.5785 H   0  0  0  0  0  0  0  0  0  0  0  0
  126.6273  109.3458  106.3019 H   0  0  0  0  0  0  0  0  0  0  0  0
  1  5  1  0  0  0  0
  1  6  1  0  0  0  0
  1  8  2  0  0  0  0
  2  3  2  0  0  0  0
  2  6  1  0  0  0  0
  3  9  1  0  0  0  0
  4  5  1  0  0  0  0
  4  6  1  0  0  0  0
  5  7  1  0  0  0  0
  2 10  1  0  0  0  0
  3 11  1  0  0  0  0
  4 12  1  0  0  0  0
  4 13  1  0  0  0  0
  5 14  1  0  0  0  0
  7 15  1  0  0  0  0
  7 16  1  0  0  0  0
M  END
> <FRED Chemgauss4 score>
-6.537370

$$$$
C69791155	P107540367
  -OEChem-05122015313D

 19 18  0     0  0  0  0  0  0999 V2000
  117.4239  104.6440  105.6960 C   0  0  0  0  0  0  0  0  0  0  0  0
  118.5243  104.2621  105.9869 C   0  0  0  0  0  0  0  0  0  0  0  0
  123.3735  105.1872  106.5118 C   0  0  0  0  0  0  0  0  0  0  0  0
  119.8712  103.7900  106.3434 C   0  0  0  0  0  0  0  0  0  0  0  0
  124.5843  104.4248  106.9862 C   0  0  0  0  0  0  0  0  0  0  0  0
  120.9231  104.8811  106.1716 C   0  0  0  0  0  0  0  0  0  0  0  0
  125.7708  105.2902  106.9158 N   0  0  0  0  0  0  0  0  0  0  0  0
  122.2294  104.4041  106.5650 N   0  0  0  0  0  0  0  0  0  0  0  0
  123.4158  106.3546  106.1327 O   0  0  0  0  0  0  0  0  0  0  0  0
  116.4479  104.9829  105.4375 H   0  0  0  0  0  0  0  0  0  0  0  0
  120.1288  102.9148  105.7348 H   0  0  0  0  0  0  0  0  0  0  0  0
  119.8673  103.4629  107.3898 H   0  0  0  0  0  0  0  0  0  0  0  0
  124.4346  104.1023  108.0208 H   0  0  0  0  0  0  0  0  0  0  0  0
  124.7417  103.5472  106.3524 H   0  0  0  0  0  0  0  0  0  0  0  0
  120.9611  105.2273  105.1328 H   0  0  0  0  0  0  0  0  0  0  0  0
  120.6645  105.7411  106.7979 H   0  0  0  0  0  0  0  0  0  0  0  0
  126.6573  104.8493  106.8494 H   0  0  0  0  0  0  0  0  0  0  0  0
  125.6532  106.2496  107.1406 H   0  0  0  0  0  0  0  0  0  0  0  0
  122.3141  103.4477  106.8971 H   0  0  0  0  0  0  0  0  0  0  0  0
  1  2  3  0  0  0  0
  2  4  1  0  0  0  0
  3  5  1  0  0  0  0
  3  8  1  0  0  0  0
  3  9  2  0  0  0  0
  4  6  1  0  0  0  0
  5  7  1  0  0  0  0
  6  8  1  0  0  0  0
  1 10  1  0  0  0  0
  4 11  1  0  0  0  0
  4 12  1  0  0  0  0
  5 13  1  0  0  0  0
  5 14  1  0  0  0  0
  6 15  1  0  0  0  0
  6 16  1  0  0  0  0
  7 17  1  0  0  0  0
  7 18  1  0  0  0  0
  8 19  1  0  0  0  0
M  END
> <FRED Chemgauss4 score>
-6.532387

$$$$
C31992619	P138009253
  -OEChem-05122015313D

 21 22  0     1  0  0  0  0  0999 V2000
  126.0224  107.0473  107.3310 C   0  0  0  0  0  0  0  0  0  0  0  0
  124.4019  107.8673  108.7567 C   0  0  0  0  0  0  0  0  0  0  0  0
  126.3888  108.4887  107.5497 C   0  0  0  0  0  0  0  0  0  0  0  0
  124.2710  104.5528  106.9559 C   0  0  0  0  0  0  0  0  0  0  0  0
  125.1595  104.2050  108.1149 C   0  0  0  0  0  0  0  0  0  0  0  0
  125.2509  109.0549  108.3861 C   0  0  1  0  0  0  0  0  0  0  0  0
  124.3147  105.4487  108.1637 C   0  0  0  0  0  0  0  0  0  0  0  0
  124.9141  106.7678  108.1006 N   0  0  0  0  0  0  0  0  0  0  0  0
  124.4042  109.9546  107.6548 N   0  0  0  0  0  0  0  0  0  0  0  0
  126.6439  106.2856  106.6029 O   0  0  0  0  0  0  0  0  0  0  0  0
  123.4011  107.9225  109.4588 O   0  0  0  0  0  0  0  0  0  0  0  0
  127.3360  108.5337  108.0975 H   0  0  0  0  0  0  0  0  0  0  0  0
  126.5153  108.9945  106.5873 H   0  0  0  0  0  0  0  0  0  0  0  0
  124.7443  104.8932  106.0430 H   0  0  0  0  0  0  0  0  0  0  0  0
  123.3812  103.9542  106.8039 H   0  0  0  0  0  0  0  0  0  0  0  0
  124.8672  103.3725  108.7429 H   0  0  0  0  0  0  0  0  0  0  0  0
  126.2286  104.3120  107.9783 H   0  0  0  0  0  0  0  0  0  0  0  0
  125.6252  109.5291  109.2961 H   0  0  0  0  0  0  0  0  0  0  0  0
  123.4521  105.4234  108.8207 H   0  0  0  0  0  0  0  0  0  0  0  0
  124.8346  110.6189  107.0460 H   0  0  0  0  0  0  0  0  0  0  0  0
  123.4457  110.0267  107.9258 H   0  0  0  0  0  0  0  0  0  0  0  0
  1  3  1  0  0  0  0
  1  8  1  0  0  0  0
  1 10  2  0  0  0  0
  2  6  1  0  0  0  0
  2  8  1  0  0  0  0
  2 11  2  0  0  0  0
  3  6  1  0  0  0  0
  4  5  1  0  0  0  0
  4  7  1  0  0  0  0
  5  7  1  0  0  0  0
  6  9  1  0  0  0  0
  7  8  1  0  0  0  0
  3 12  1  0  0  0  0
  3 13  1  0  0  0  0
  4 14  1  0  0  0  0
  4 15  1  0  0  0  0
  5 16  1  0  0  0  0
  5 17  1  0  0  0  0
  6 18  1  0  0  0  0
  7 19  1  0  0  0  0
  9 20  1  0  0  0  0
  9 21  1  0  0  0  0
M  END
> <FRED Chemgauss4 score>
-6.529094

$$$$
C95924454	P151032095
  -OEChem-05122015313D

 20 20  0     1  0  0  0  0  0999 V2000
  125.5564  107.9780  107.6943 C   0  0  0  0  0  0  0  0  0  0  0  0
  124.3471  108.7727  109.5202 C   0  0  0  0  0  0  0  0  0  0  0  0
  124.6074  109.0799  108.0561 C   0  0  1  0  0  0  0  0  0  0  0  0
  124.7777  104.3669  107.3712 C   0  0  0  0  0  0  0  0  0  0  0  0
  126.0315  105.7224  108.8222 C   0  0  0  0  0  0  0  0  0  0  0  0
  125.3755  106.9940  108.6337 N   0  0  0  0  0  0  0  0  0  0  0  0
  125.2390  110.3690  107.8582 N   0  0  0  0  0  0  0  0  0  0  0  0
  126.3113  107.9660  106.7339 O   0  0  0  0  0  0  0  0  0  0  0  0
  124.4292  107.3477  109.6156 O   0  0  0  0  0  0  0  0  0  0  0  0
  125.0603  104.6916  108.7256 O   0  0  0  0  0  0  0  0  0  0  0  0
  125.1007  109.2023  110.1916 H   0  0  0  0  0  0  0  0  0  0  0  0
  123.3576  109.1111  109.8419 H   0  0  0  0  0  0  0  0  0  0  0  0
  123.7065  108.9716  107.4531 H   0  0  0  0  0  0  0  0  0  0  0  0
  124.0284  103.5723  107.3349 H   0  0  0  0  0  0  0  0  0  0  0  0
  125.6950  104.0403  106.8748 H   0  0  0  0  0  0  0  0  0  0  0  0
  124.3889  105.2545  106.8665 H   0  0  0  0  0  0  0  0  0  0  0  0
  126.4976  105.7249  109.8121 H   0  0  0  0  0  0  0  0  0  0  0  0
  126.7913  105.6145  108.0422 H   0  0  0  0  0  0  0  0  0  0  0  0
  124.8979  111.1548  108.3777 H   0  0  0  0  0  0  0  0  0  0  0  0
  125.8509  110.4876  107.0737 H   0  0  0  0  0  0  0  0  0  0  0  0
  1  3  1  0  0  0  0
  1  6  1  0  0  0  0
  1  8  2  0  0  0  0
  2  3  1  0  0  0  0
  2  9  1  0  0  0  0
  3  7  1  0  0  0  0
  4 10  1  0  0  0  0
  5  6  1  0  0  0  0
  5 10  1  0  0  0  0
  6  9  1  0  0  0  0
  2 11  1  0  0  0  0
  2 12  1  0  0  0  0
  3 13  1  0  0  0  0
  4 14  1  0  0  0  0
  4 15  1  0  0  0  0
  4 16  1  0  0  0  0
  5 17  1  0  0  0  0
  5 18  1  0  0  0  0
  7 19  1  0  0  0  0
  7 20  1  0  0  0  0
M  END
> <FRED Chemgauss4 score>
-6.516576

$$$$
C86781265	P135835082
  -OEChem-05122015313D

 20 20  0     0  0  0  0  0  0999 V2000
  124.0077  107.3588  105.8099 C   0  0  0  0  0  0  0  0  0  0  0  0
  125.0786  106.2660  107.3891 C   0  0  0  0  0  0  0  0  0  0  0  0
  123.9363  106.2154  106.6281 C   0  0  0  0  0  0  0  0  0  0  0  0
  121.7617  105.1406  105.9195 C   0  0  0  0  0  0  0  0  0  0  0  0
  126.9989  107.8711  107.5122 C   0  0  0  0  0  0  0  0  0  0  0  0
  125.1081  108.0829  106.0305 N   0  0  0  0  0  0  0  0  0  0  0  0
  125.7388  107.3929  106.9960 N   0  0  0  0  0  0  0  0  0  0  0  0
  119.8391  103.7389  105.6381 N   0  0  0  0  0  0  0  0  0  0  0  0
  122.9324  105.2207  106.6798 N   0  0  0  0  0  0  0  0  0  0  0  0
  121.0347  104.0024  106.2745 N   0  0  0  0  0  0  0  0  0  0  0  0
  121.3941  105.9370  105.0583 O   0  0  0  0  0  0  0  0  0  0  0  0
  123.3054  107.6965  105.0609 H   0  0  0  0  0  0  0  0  0  0  0  0
  125.4689  105.6130  108.1582 H   0  0  0  0  0  0  0  0  0  0  0  0
  127.7984  107.4342  106.9081 H   0  0  0  0  0  0  0  0  0  0  0  0
  127.0267  108.9626  107.4514 H   0  0  0  0  0  0  0  0  0  0  0  0
  127.0993  107.5680  108.5582 H   0  0  0  0  0  0  0  0  0  0  0  0
  119.2322  103.2915  106.3235 H   0  0  0  0  0  0  0  0  0  0  0  0
  119.4104  104.6397  105.4296 H   0  0  0  0  0  0  0  0  0  0  0  0
  123.0837  104.4736  107.3530 H   0  0  0  0  0  0  0  0  0  0  0  0
  121.3565  103.3567  106.9877 H   0  0  0  0  0  0  0  0  0  0  0  0
  1  3  1  0  0  0  0
  1  6  2  0  0  0  0
  2  3  2  0  0  0  0
  2  7  1  0  0  0  0
  3  9  1  0  0  0  0
  4  9  1  0  0  0  0
  4 10  1  0  0  0  0
  4 11  2  0  0  0  0
  5  7  1  0  0  0  0
  6  7  1  0  0  0  0
  8 10  1  0  0  0  0
  1 12  1  0  0  0  0
  2 13  1  0  0  0  0
  5 14  1  0  0  0  0
  5 15  1  0  0  0  0
  5 16  1  0  0  0  0
  8 17  1  0  0  0  0
  8 18  1  0  0  0  0
  9 19  1  0  0  0  0
 10 20  1  0  0  0  0
M  END
> <FRED Chemgauss4 score>
-6.511818

$$$$
C82410506	P128782164
  -OEChem-05122015313D

 19 19  0     1  0  0  0  0  0999 V2000
  126.8605  107.8705  107.1504 C   0  0  0  0  0  0  0  0  0  0  0  0
  126.6923  106.6272  107.7191 C   0  0  0  0  0  0  0  0  0  0  0  0
  124.7906  107.7120  106.1914 C   0  0  0  0  0  0  0  0  0  0  0  0
  124.6226  106.4684  106.7594 C   0  0  0  0  0  0  0  0  0  0  0  0
  122.6013  105.3865  107.8316 C   0  0  0  0  0  0  0  0  0  0  0  0
  123.3485  105.6846  106.5290 C   0  0  1  0  0  0  0  0  0  0  0  0
  125.9127  108.4353  106.3764 N   0  0  0  0  0  0  0  0  0  0  0  0
  125.5703  105.9038  107.5337 N   0  0  0  0  0  0  0  0  0  0  0  0
  122.4862  106.3710  105.5908 N   0  0  0  0  0  0  0  0  0  0  0  0
  123.2337  104.2977  108.4965 O   0  0  0  0  0  0  0  0  0  0  0  0
  127.7625  108.4510  107.2997 H   0  0  0  0  0  0  0  0  0  0  0  0
  127.4543  106.1741  108.3410 H   0  0  0  0  0  0  0  0  0  0  0  0
  124.0330  108.1724  105.5681 H   0  0  0  0  0  0  0  0  0  0  0  0
  122.6316  106.2492  108.5062 H   0  0  0  0  0  0  0  0  0  0  0  0
  121.5546  105.1183  107.6515 H   0  0  0  0  0  0  0  0  0  0  0  0
  123.5896  104.7309  106.0426 H   0  0  0  0  0  0  0  0  0  0  0  0
  121.5071  106.1528  105.5874 H   0  0  0  0  0  0  0  0  0  0  0  0
  122.9054  106.8875  104.8399 H   0  0  0  0  0  0  0  0  0  0  0  0
  122.7324  104.1419  109.3123 H   0  0  0  0  0  0  0  0  0  0  0  0
  1  2  1  0  0  0  0
  1  7  2  0  0  0  0
  2  8  2  0  0  0  0
  3  4  2  0  0  0  0
  3  7  1  0  0  0  0
  4  6  1  0  0  0  0
  4  8  1  0  0  0  0
  5  6  1  0  0  0  0
  5 10  1  0  0  0  0
  6  9  1  0  0  0  0
  1 11  1  0  0  0  0
  2 12  1  0  0  0  0
  3 13  1  0  0  0  0
  5 14  1  0  0  0  0
  5 15  1  0  0  0  0
  6 16  1  0  0  0  0
  9 17  1  0  0  0  0
  9 18  1  0  0  0  0
 10 19  1  0  0  0  0
M  END
> <FRED Chemgauss4 score>
-6.497247

$$$$
C38759430	P117559224
  -OEChem-05122015313D

 18 18  0     0  0  0  0  0  0999 V2000
  124.8712  106.2422  108.5674 C   0  0  0  0  0  0  0  0  0  0  0  0
  125.2454  108.9025  108.0320 C   0  0  0  0  0  0  0  0  0  0  0  0
  124.4548  108.4334  109.0247 C   0  0  0  0  0  0  0  0  0  0  0  0
  125.9594  107.8933  107.1741 C   0  0  0  0  0  0  0  0  0  0  0  0
  123.6875  109.3396  109.9545 C   0  0  0  0  0  0  0  0  0  0  0  0
  124.2531  107.0976  109.3102 N   0  0  0  0  0  0  0  0  0  0  0  0
  125.7017  106.5808  107.5291 N   0  0  0  0  0  0  0  0  0  0  0  0
  125.4842  110.2055  107.7025 N   0  0  0  0  0  0  0  0  0  0  0  0
  126.3026  105.5550  106.8137 N   0  0  0  0  0  0  0  0  0  0  0  0
  126.6935  108.2498  106.2547 O   0  0  0  0  0  0  0  0  0  0  0  0
  124.7564  105.1600  108.7397 H   0  0  0  0  0  0  0  0  0  0  0  0
  122.7087  109.5368  109.5299 H   0  0  0  0  0  0  0  0  0  0  0  0
  124.2338  110.2695  110.0752 H   0  0  0  0  0  0  0  0  0  0  0  0
  123.5825  108.8523  110.9184 H   0  0  0  0  0  0  0  0  0  0  0  0
  125.0399  110.9207  108.2352 H   0  0  0  0  0  0  0  0  0  0  0  0
  126.0951  110.3999  106.9397 H   0  0  0  0  0  0  0  0  0  0  0  0
  126.4925  104.7448  107.4214 H   0  0  0  0  0  0  0  0  0  0  0  0
  127.2305  105.8429  106.4711 H   0  0  0  0  0  0  0  0  0  0  0  0
  1  6  2  0  0  0  0
  1  7  1  0  0  0  0
  2  3  2  0  0  0  0
  2  4  1  0  0  0  0
  2  8  1  0  0  0  0
  3  5  1  0  0  0  0
  3  6  1  0  0  0  0
  4  7  1  0  0  0  0
  4 10  2  0  0  0  0
  7  9  1  0  0  0  0
  1 11  1  0  0  0  0
  5 12  1  0  0  0  0
  5 13  1  0  0  0  0
  5 14  1  0  0  0  0
  8 15  1  0  0  0  0
  8 16  1  0  0  0  0
  9 17  1  0  0  0  0
  9 18  1  0  0  0  0
M  END
> <FRED Chemgauss4 score>
-6.496020

$$$$
C85253675	P133384185
  -OEChem-05122015313D

 22 21  0     1  0  0  0  0  0999 V2000
  121.8746  104.5747  106.6601 C   0  0  0  0  0  0  0  0  0  0  0  0
  123.8771  108.5413  107.3812 C   0  0  0  0  0  0  0  0  0  0  0  0
  123.2719  104.3679  107.0364 C   0  0  0  0  0  0  0  0  0  0  0  0
  124.2829  106.3764  106.1967 C   0  0  0  0  0  0  0  0  0  0  0  0
  126.2261  107.6332  107.3188 C   0  0  0  0  0  0  0  0  0  0  0  0
  124.8951  107.7410  106.5599 C   0  0  2  0  0  0  0  0  0  0  0  0
  120.7652  104.7352  106.3604 N   0  0  0  0  0  0  0  0  0  0  0  0
  123.9110  105.6352  107.3810 N   0  0  0  0  0  0  0  0  0  0  0  0
  126.7569  108.9190  107.5995 O   0  0  0  0  0  0  0  0  0  0  0  0
  125.1245  108.4820  105.3579 O   0  0  0  0  0  0  0  0  0  0  0  0
  124.2834  109.5215  107.6569 H   0  0  0  0  0  0  0  0  0  0  0  0
  122.9406  108.6952  106.8355 H   0  0  0  0  0  0  0  0  0  0  0  0
  123.6477  108.0289  108.3228 H   0  0  0  0  0  0  0  0  0  0  0  0
  123.3527  103.7096  107.9060 H   0  0  0  0  0  0  0  0  0  0  0  0
  123.8400  103.9241  106.2139 H   0  0  0  0  0  0  0  0  0  0  0  0
  124.9843  105.7755  105.6078 H   0  0  0  0  0  0  0  0  0  0  0  0
  123.3790  106.5185  105.5935 H   0  0  0  0  0  0  0  0  0  0  0  0
  126.9647  107.0634  106.7440 H   0  0  0  0  0  0  0  0  0  0  0  0
  126.0849  107.0961  108.2642 H   0  0  0  0  0  0  0  0  0  0  0  0
  124.7433  105.4407  107.9436 H   0  0  0  0  0  0  0  0  0  0  0  0
  127.5919  108.7817  108.0768 H   0  0  0  0  0  0  0  0  0  0  0  0
  124.2666  108.5509  104.9143 H   0  0  0  0  0  0  0  0  0  0  0  0
  1  3  1  0  0  0  0
  1  7  3  0  0  0  0
  2  6  1  0  0  0  0
  3  8  1  0  0  0  0
  4  6  1  0  0  0  0
  4  8  1  0  0  0  0
  5  6  1  0  0  0  0
  5  9  1  0  0  0  0
  6 10  1  0  0  0  0
  2 11  1  0  0  0  0
  2 12  1  0  0  0  0
  2 13  1  0  0  0  0
  3 14  1  0  0  0  0
  3 15  1  0  0  0  0
  4 16  1  0  0  0  0
  4 17  1  0  0  0  0
  5 18  1  0  0  0  0
  5 19  1  0  0  0  0
  8 20  1  0  0  0  0
  9 21  1  0  0  0  0
 10 22  1  0  0  0  0
M  END
> <FRED Chemgauss4 score>
-6.486306

$$$$
L-Alanine	P10000028
  -OEChem-05122015313D

 13 12  0     1  0  0  0  0  0999 V2000
  124.7574  107.3975  106.1872 C   0  0  0  0  0  0  0  0  0  0  0  0
  125.3812  106.7364  108.5970 C   0  0  0  0  0  0  0  0  0  0  0  0
  125.8064  107.4265  107.3095 C   0  0  2  0  0  0  0  0  0  0  0  0
  126.2232  108.8187  107.6650 N   0  3  0  0  0  0  0  0  0  0  0  0
  124.7438  108.3865  105.4035 O   0  5  0  0  0  0  0  0  0  0  0  0
  124.0178  106.3707  106.1903 O   0  0  0  0  0  0  0  0  0  0  0  0
  124.4753  107.1976  109.0054 H   0  0  0  0  0  0  0  0  0  0  0  0
  125.1631  105.6767  108.4240 H   0  0  0  0  0  0  0  0  0  0  0  0
  126.1620  106.7999  109.3633 H   0  0  0  0  0  0  0  0  0  0  0  0
  126.7131  106.9412  106.9292 H   0  0  0  0  0  0  0  0  0  0  0  0
  125.7985  109.4904  107.0237 H   0  0  0  0  0  0  0  0  0  0  0  0
  127.2388  108.9096  107.6071 H   0  0  0  0  0  0  0  0  0  0  0  0
  125.9289  109.0446  108.6164 H   0  0  0  0  0  0  0  0  0  0  0  0
  1  3  1  0  0  0  0
  1  5  1  0  0  0  0
  1  6  2  0  0  0  0
  2  3  1  0  0  0  0
  3  4  1  0  0  0  0
  2  7  1  0  0  0  0
  2  8  1  0  0  0  0
  2  9  1  0  0  0  0
  3 10  1  0  0  0  0
  4 11  1  0  0  0  0
  4 12  1  0  0  0  0
  4 13  1  0  0  0  0
M  CHG  2   4   1   5  -1
M  END
> <FRED Chemgauss4 score>
-6.482545

$$$$
C73738921	P114858598
  -OEChem-05122015313D

 16 16  0     0  0  0  0  0  0999 V2000
  123.7549  107.9116  106.9113 C   0  0  0  0  0  0  0  0  0  0  0  0
  126.2698  107.6228  107.2705 C   0  0  0  0  0  0  0  0  0  0  0  0
  124.6934  108.3271  109.0016 C   0  0  0  0  0  0  0  0  0  0  0  0
  125.1276  107.7572  106.3107 C   0  0  0  0  0  0  0  0  0  0  0  0
  123.6542  108.3204  108.2196 N   0  0  0  0  0  0  0  0  0  0  0  0
  125.9551  107.9585  108.5687 N   0  0  0  0  0  0  0  0  0  0  0  0
  123.3578  108.9890  110.7835 N   0  0  0  0  0  0  0  0  0  0  0  0
  124.6094  108.6959  110.3188 N   0  0  0  0  0  0  0  0  0  0  0  0
  122.7649  107.7219  106.2043 O   0  0  0  0  0  0  0  0  0  0  0  0
  127.3924  107.2812  106.9048 O   0  0  0  0  0  0  0  0  0  0  0  0
  125.1187  106.8613  105.6797 H   0  0  0  0  0  0  0  0  0  0  0  0
  125.3184  108.6340  105.6825 H   0  0  0  0  0  0  0  0  0  0  0  0
  126.7019  107.9338  109.2569 H   0  0  0  0  0  0  0  0  0  0  0  0
  123.3000  108.6622  111.7471 H   0  0  0  0  0  0  0  0  0  0  0  0
  122.6865  108.4313  110.2571 H   0  0  0  0  0  0  0  0  0  0  0  0
  125.4181  108.6928  110.8961 H   0  0  0  0  0  0  0  0  0  0  0  0
  1  4  1  0  0  0  0
  1  5  1  0  0  0  0
  1  9  2  0  0  0  0
  2  4  1  0  0  0  0
  2  6  1  0  0  0  0
  2 10  2  0  0  0  0
  3  5  2  0  0  0  0
  3  6  1  0  0  0  0
  3  8  1  0  0  0  0
  7  8  1  0  0  0  0
  4 11  1  0  0  0  0
  4 12  1  0  0  0  0
  6 13  1  0  0  0  0
  7 14  1  0  0  0  0
  7 15  1  0  0  0  0
  8 16  1  0  0  0  0
M  END
> <FRED Chemgauss4 score>
-6.481986

$$$$
C82095284	P128109048
  -OEChem-05122015313D

 22 23  0     1  0  0  0  0  0999 V2000
  124.6387  107.7442  109.1855 C   0  0  0  0  0  0  0  0  0  0  0  0
  124.4619  108.8504  108.1449 C   0  0  0  0  0  0  0  0  0  0  0  0
  126.3391  107.6122  107.5722 C   0  0  0  0  0  0  0  0  0  0  0  0
  124.4188  107.2569  106.3283 C   0  0  0  0  0  0  0  0  0  0  0  0
  125.4441  106.7051  108.3997 C   0  0  2  0  0  0  0  0  0  0  0  0
  124.5241  106.0960  107.3309 C   0  0  2  0  0  0  0  0  0  0  0  0
  125.2077  108.3574  106.9544 N   0  0  1  0  0  0  0  0  0  0  0  0
  125.1534  103.8700  107.6703 N   0  0  0  0  0  0  0  0  0  0  0  0
  125.1043  104.9161  106.7007 N   0  0  0  0  0  0  0  0  0  0  0  0
  125.2136  108.1128  110.0428 H   0  0  0  0  0  0  0  0  0  0  0  0
  123.6827  107.3522  109.5464 H   0  0  0  0  0  0  0  0  0  0  0  0
  123.4091  109.0554  107.9209 H   0  0  0  0  0  0  0  0  0  0  0  0
  124.9086  109.7863  108.5002 H   0  0  0  0  0  0  0  0  0  0  0  0
  126.9882  108.2645  108.1681 H   0  0  0  0  0  0  0  0  0  0  0  0
  126.9512  107.0910  106.8275 H   0  0  0  0  0  0  0  0  0  0  0  0
  124.8607  107.0115  105.3543 H   0  0  0  0  0  0  0  0  0  0  0  0
  123.3793  107.5491  106.1393 H   0  0  0  0  0  0  0  0  0  0  0  0
  125.9552  105.9792  109.0363 H   0  0  0  0  0  0  0  0  0  0  0  0
  123.5437  105.8371  107.7467 H   0  0  0  0  0  0  0  0  0  0  0  0
  126.1238  103.6033  107.8343 H   0  0  0  0  0  0  0  0  0  0  0  0
  124.8101  104.2315  108.5593 H   0  0  0  0  0  0  0  0  0  0  0  0
  124.5164  104.6243  105.9215 H   0  0  0  0  0  0  0  0  0  0  0  0
  1  2  1  0  0  0  0
  1  5  1  0  0  0  0
  2  7  1  0  0  0  0
  3  5  1  0  0  0  0
  3  7  1  0  0  0  0
  4  6  1  0  0  0  0
  4  7  1  0  0  0  0
  5  6  1  0  0  0  0
  6  9  1  0  0  0  0
  8  9  1  0  0  0  0
  1 10  1  0  0  0  0
  1 11  1  0  0  0  0
  2 12  1  0  0  0  0
  2 13  1  0  0  0  0
  3 14  1  0  0  0  0
  3 15  1  0  0  0  0
  4 16  1  0  0  0  0
  4 17  1  0  0  0  0
  5 18  1  0  0  0  0
  6 19  1  0  0  0  0
  8 20  1  0  0  0  0
  8 21  1  0  0  0  0
  9 22  1  0  0  0  0
M  END
> <FRED Chemgauss4 score>
-6.468355

$$$$
C40537714	P61555778
  -OEChem-05122015313D

 13 13  0     0  0  0  0  0  0999 V2000
  124.4276  107.8286  106.5895 C   0  0  0  0  0  0  0  0  0  0  0  0
  125.0103  108.5499  107.7874 C   0  0  0  0  0  0  0  0  0  0  0  0
  125.4232  106.3837  107.7619 C   0  0  0  0  0  0  0  0  0  0  0  0
  124.7374  106.4844  106.6638 N   0  0  0  0  0  0  0  0  0  0  0  0
  125.9359  105.2686  108.2435 N   0  5  0  0  0  0  0  0  0  0  0  0
  125.6176  107.5393  108.4596 N   0  0  0  0  0  0  0  0  0  0  0  0
  125.6463  104.1268  107.3931 N   0  3  0  0  0  0  0  0  0  0  0  0
  123.7950  108.4246  105.7371 O   0  0  0  0  0  0  0  0  0  0  0  0
  124.9002  109.7358  107.9908 O   0  0  0  0  0  0  0  0  0  0  0  0
  126.1281  107.6274  109.3303 H   0  0  0  0  0  0  0  0  0  0  0  0
  124.6303  103.9928  107.3191 H   0  0  0  0  0  0  0  0  0  0  0  0
  126.0654  103.2871  107.8105 H   0  0  0  0  0  0  0  0  0  0  0  0
  126.0484  104.2734  106.4588 H   0  0  0  0  0  0  0  0  0  0  0  0
  1  2  1  0  0  0  0
  1  4  1  0  0  0  0
  1  8  2  0  0  0  0
  2  6  1  0  0  0  0
  2  9  2  0  0  0  0
  3  4  2  0  0  0  0
  3  5  1  0  0  0  0
  3  6  1  0  0  0  0
  5  7  1  0  0  0  0
  6 10  1  0  0  0  0
  7 11  1  0  0  0  0
  7 12  1  0  0  0  0
  7 13  1  0  0  0  0
M  CHG  2   5  -1   7   1
M  END
> <FRED Chemgauss4 score>
-6.467190

$$$$
C37225574	P55350836
  -OEChem-05122015313D

 23 22  0     0  0  0  0  0  0999 V2000
  124.5017  106.9692  106.2762 C   0  0  0  0  0  0  0  0  0  0  0  0
  121.3641  106.8544  105.1785 C   0  0  0  0  0  0  0  0  0  0  0  0
  126.4858  107.6382  107.6539 C   0  0  0  0  0  0  0  0  0  0  0  0
  125.6430  105.3255  107.7806 C   0  0  0  0  0  0  0  0  0  0  0  0
  123.5627  105.8340  105.9084 C   0  0  0  0  0  0  0  0  0  0  0  0
  119.8099  107.5575  106.8881 N   0  0  0  0  0  0  0  0  0  0  0  0
  122.6105  106.2814  104.9326 N   0  0  0  0  0  0  0  0  0  0  0  0
  121.0187  107.0028  106.5088 N   0  0  0  0  0  0  0  0  0  0  0  0
  125.5041  106.6557  107.2009 N   0  0  0  0  0  0  0  0  0  0  0  0
  124.3668  108.0882  105.7739 O   0  0  0  0  0  0  0  0  0  0  0  0
  120.2862  107.3620  103.9934 S   0  0  0  0  0  0  0  0  0  0  0  0
  126.1136  108.1606  108.5390 H   0  0  0  0  0  0  0  0  0  0  0  0
  126.6770  108.3722  106.8664 H   0  0  0  0  0  0  0  0  0  0  0  0
  127.4270  107.1429  107.9073 H   0  0  0  0  0  0  0  0  0  0  0  0
  126.3035  104.7129  107.1614 H   0  0  0  0  0  0  0  0  0  0  0  0
  124.6669  104.8370  107.8440 H   0  0  0  0  0  0  0  0  0  0  0  0
  126.0667  105.3938  108.7862 H   0  0  0  0  0  0  0  0  0  0  0  0
  124.1230  105.0053  105.4678 H   0  0  0  0  0  0  0  0  0  0  0  0
  123.0030  105.5025  106.7868 H   0  0  0  0  0  0  0  0  0  0  0  0
  119.5257  107.0877  107.7468 H   0  0  0  0  0  0  0  0  0  0  0  0
  119.1276  107.2887  106.1807 H   0  0  0  0  0  0  0  0  0  0  0  0
  122.8611  106.1789  103.9466 H   0  0  0  0  0  0  0  0  0  0  0  0
  121.6512  106.7036  107.2441 H   0  0  0  0  0  0  0  0  0  0  0  0
  1  5  1  0  0  0  0
  1  9  1  0  0  0  0
  1 10  2  0  0  0  0
  2  7  1  0  0  0  0
  2  8  1  0  0  0  0
  2 11  2  0  0  0  0
  3  9  1  0  0  0  0
  4  9  1  0  0  0  0
  5  7  1  0  0  0  0
  6  8  1  0  0  0  0
  3 12  1  0  0  0  0
  3 13  1  0  0  0  0
  3 14  1  0  0  0  0
  4 15  1  0  0  0  0
  4 16  1  0  0  0  0
  4 17  1  0  0  0  0
  5 18  1  0  0  0  0
  5 19  1  0  0  0  0
  6 20  1  0  0  0  0
  6 21  1  0  0  0  0
  7 22  1  0  0  0  0
  8 23  1  0  0  0  0
M  END
> <FRED Chemgauss4 score>
-6.450163

$$$$
C54419245	P81887085
  -OEChem-05122015313D

 25 25  0     1  0  0  0  0  0999 V2000
  125.7935  105.2930  108.6879 C   0  0  0  0  0  0  0  0  0  0  0  0
  124.4101  104.5796  106.9375 C   0  0  0  0  0  0  0  0  0  0  0  0
  125.2130  103.4292  107.4894 C   0  0  0  0  0  0  0  0  0  0  0  0
  124.4449  105.5684  108.0786 C   0  0  2  0  0  0  0  0  0  0  0  0
  123.2976  107.1045  106.6568 C   0  0  0  0  0  0  0  0  0  0  0  0
  124.5067  109.2656  108.4590 C   0  0  0  0  0  0  0  0  0  0  0  0
  124.1418  107.8276  108.7869 C   0  0  0  0  0  0  0  0  0  0  0  0
  124.3086  110.1449  109.5798 N   0  0  0  0  0  0  0  0  0  0  0  0
  124.3648  106.9306  107.6478 N   0  0  1  0  0  0  0  0  0  0  0  0
  126.4204  106.0372  109.4258 O   0  0  0  0  0  0  0  0  0  0  0  0
  126.2058  104.0379  108.3235 O   0  0  0  0  0  0  0  0  0  0  0  0
  124.9219  104.9838  106.0539 H   0  0  0  0  0  0  0  0  0  0  0  0
  123.3989  104.2929  106.6347 H   0  0  0  0  0  0  0  0  0  0  0  0
  124.6075  102.7554  108.1048 H   0  0  0  0  0  0  0  0  0  0  0  0
  125.7005  102.8511  106.6993 H   0  0  0  0  0  0  0  0  0  0  0  0
  123.6739  105.3310  108.8274 H   0  0  0  0  0  0  0  0  0  0  0  0
  123.2481  108.1487  106.3372 H   0  0  0  0  0  0  0  0  0  0  0  0
  122.3328  106.8220  107.0867 H   0  0  0  0  0  0  0  0  0  0  0  0
  123.4884  106.4773  105.7818 H   0  0  0  0  0  0  0  0  0  0  0  0
  123.9046  109.6515  107.6302 H   0  0  0  0  0  0  0  0  0  0  0  0
  125.5635  109.3315  108.1821 H   0  0  0  0  0  0  0  0  0  0  0  0
  124.7590  107.4588  109.6119 H   0  0  0  0  0  0  0  0  0  0  0  0
  123.0891  107.7389  109.0744 H   0  0  0  0  0  0  0  0  0  0  0  0
  123.5021  110.0149  110.1694 H   0  0  0  0  0  0  0  0  0  0  0  0
  124.8526  110.9907  109.6425 H   0  0  0  0  0  0  0  0  0  0  0  0
  1  4  1  0  0  0  0
  1 10  2  0  0  0  0
  1 11  1  0  0  0  0
  2  3  1  0  0  0  0
  2  4  1  0  0  0  0
  3 11  1  0  0  0  0
  4  9  1  0  0  0  0
  5  9  1  0  0  0  0
  6  7  1  0  0  0  0
  6  8  1  0  0  0  0
  7  9  1  0  0  0  0
  2 12  1  0  0  0  0
  2 13  1  0  0  0  0
  3 14  1  0  0  0  0
  3 15  1  0  0  0  0
  4 16  1  0  0  0  0
  5 17  1  0  0  0  0
  5 18  1  0  0  0  0
  5 19  1  0  0  0  0
  6 20  1  0  0  0  0
  6 21  1  0  0  0  0
  7 22  1  0  0  0  0
  7 23  1  0  0  0  0
  8 24  1  0  0  0  0
  8 25  1  0  0  0  0
M  END
> <FRED Chemgauss4 score>
-6.446517

$$$$
C05134886	P141865301
  -OEChem-05122015313D

 22 22  0     1  0  0  0  0  0999 V2000
  124.4326  104.4843  107.9697 C   0  0  0  0  0  0  0  0  0  0  0  0
  125.8710  104.6061  108.3888 C   0  0  2  0  0  0  0  0  0  0  0  0
  126.6298  105.9051  108.2198 C   0  0  0  0  0  0  0  0  0  0  0  0
  123.9833  108.6660  106.9623 C   0  0  0  0  0  0  0  0  0  0  0  0
  126.2406  108.2104  107.9814 C   0  0  0  0  0  0  0  0  0  0  0  0
  125.0892  109.2024  107.8616 C   0  0  1  0  0  0  0  0  0  0  0  0
  125.5023  103.9685  107.1616 O   0  0  0  0  0  0  0  0  0  0  0  0
  124.5113  108.4530  105.6573 O   0  0  0  0  0  0  0  0  0  0  0  0
  125.5839  110.4108  107.2799 O   0  0  0  0  0  0  0  0  0  0  0  0
  125.7694  106.9886  108.5403 O   0  0  0  0  0  0  0  0  0  0  0  0
  123.8094  103.7670  108.4876 H   0  0  0  0  0  0  0  0  0  0  0  0
  123.9158  105.3654  107.6125 H   0  0  0  0  0  0  0  0  0  0  0  0
  126.2377  103.9887  109.1965 H   0  0  0  0  0  0  0  0  0  0  0  0
  126.9701  106.0191  107.1862 H   0  0  0  0  0  0  0  0  0  0  0  0
  127.4961  105.9334  108.8875 H   0  0  0  0  0  0  0  0  0  0  0  0
  123.1581  109.3810  106.8785 H   0  0  0  0  0  0  0  0  0  0  0  0
  123.6023  107.7095  107.3338 H   0  0  0  0  0  0  0  0  0  0  0  0
  127.0368  108.5934  108.6272 H   0  0  0  0  0  0  0  0  0  0  0  0
  126.6638  107.9768  106.9993 H   0  0  0  0  0  0  0  0  0  0  0  0
  124.6902  109.4670  108.8473 H   0  0  0  0  0  0  0  0  0  0  0  0
  123.7823  108.1130  105.1149 H   0  0  0  0  0  0  0  0  0  0  0  0
  124.8315  111.0192  107.2357 H   0  0  0  0  0  0  0  0  0  0  0  0
  1  2  1  0  0  0  0
  1  7  1  0  0  0  0
  2  3  1  0  0  0  0
  2  7  1  0  0  0  0
  3 10  1  0  0  0  0
  4  6  1  0  0  0  0
  4  8  1  0  0  0  0
  5  6  1  0  0  0  0
  5 10  1  0  0  0  0
  6  9  1  0  0  0  0
  1 11  1  0  0  0  0
  1 12  1  0  0  0  0
  2 13  1  0  0  0  0
  3 14  1  0  0  0  0
  3 15  1  0  0  0  0
  4 16  1  0  0  0  0
  4 17  1  0  0  0  0
  5 18  1  0  0  0  0
  5 19  1  0  0  0  0
  6 20  1  0  0  0  0
  8 21  1  0  0  0  0
  9 22  1  0  0  0  0
M  END
> <FRED Chemgauss4 score>
-6.437197

$$$$
C11536079	P74672762
  -OEChem-05122015313D

 21 21  0     1  0  0  0  0  0999 V2000
  125.2389  108.7108  108.2303 C   0  0  0  0  0  0  0  0  0  0  0  0
  124.6342  107.4826  108.7634 C   0  0  0  0  0  0  0  0  0  0  0  0
  125.9729  107.9073  107.2005 C   0  0  0  0  0  0  0  0  0  0  0  0
  125.3157  106.5841  107.7482 C   0  0  1  0  0  0  0  0  0  0  0  0
  125.8434  103.1738  106.7727 C   0  0  0  0  0  0  0  0  0  0  0  0
  124.9384  103.6942  107.8804 C   0  0  0  0  0  0  0  0  0  0  0  0
  125.6908  104.5210  108.9161 C   0  0  0  0  0  0  0  0  0  0  0  0
  123.8236  107.3288  109.7375 N   0  0  0  0  0  0  0  0  0  0  0  0
  126.3065  105.6861  108.3438 N   0  0  0  0  0  0  0  0  0  0  0  0
  125.1749  109.8622  108.5048 O   0  0  0  0  0  0  0  0  0  0  0  0
  126.7344  108.3258  106.3761 O   0  0  0  0  0  0  0  0  0  0  0  0
  124.6246  106.1050  107.0502 H   0  0  0  0  0  0  0  0  0  0  0  0
  126.3312  103.9994  106.2447 H   0  0  0  0  0  0  0  0  0  0  0  0
  126.6246  102.5333  107.1944 H   0  0  0  0  0  0  0  0  0  0  0  0
  125.2817  102.5819  106.0435 H   0  0  0  0  0  0  0  0  0  0  0  0
  124.4713  102.8386  108.3820 H   0  0  0  0  0  0  0  0  0  0  0  0
  124.1320  104.2900  107.4366 H   0  0  0  0  0  0  0  0  0  0  0  0
  124.9998  104.8716  109.6892 H   0  0  0  0  0  0  0  0  0  0  0  0
  126.4750  103.9317  109.4017 H   0  0  0  0  0  0  0  0  0  0  0  0
  123.5931  106.3317  109.8486 H   0  0  0  0  0  0  0  0  0  0  0  0
  126.8209  106.2063  109.0637 H   0  0  0  0  0  0  0  0  0  0  0  0
  1  2  1  0  0  0  0
  1  3  1  0  0  0  0
  1 10  2  0  0  0  0
  2  4  1  0  0  0  0
  2  8  2  0  0  0  0
  3  4  1  0  0  0  0
  3 11  2  0  0  0  0
  4  9  1  0  0  0  0
  5  6  1  0  0  0  0
  6  7  1  0  0  0  0
  7  9  1  0  0  0  0
  4 12  1  0  0  0  0
  5 13  1  0  0  0  0
  5 14  1  0  0  0  0
  5 15  1  0  0  0  0
  6 16  1  0  0  0  0
  6 17  1  0  0  0  0
  7 18  1  0  0  0  0
  7 19  1  0  0  0  0
  8 20  1  0  0  0  0
  9 21  1  0  0  0  0
M  END
> <FRED Chemgauss4 score>
-6.436945

$$$$
C45322001	P68287759
  -OEChem-05122015313D

 17 17  0     1  0  0  0  0  0999 V2000
  125.1941  103.5199  106.9916 C   0  0  0  0  0  0  0  0  0  0  0  0
  123.7626  108.8142  107.1236 C   0  0  0  0  0  0  0  0  0  0  0  0
  125.3951  108.2796  108.3094 C   0  0  0  0  0  0  0  0  0  0  0  0
  125.1929  105.7716  108.0027 C   0  0  0  0  0  0  0  0  0  0  0  0
  124.4756  104.8017  107.0559 C   0  0  2  0  0  0  0  0  0  0  0  0
  125.7599  102.5081  106.9377 N   0  0  0  0  0  0  0  0  0  0  0  0
  124.7532  109.3480  107.8972 N   0  0  0  0  0  0  0  0  0  0  0  0
  123.7514  107.4827  107.0311 N   0  0  0  0  0  0  0  0  0  0  0  0
  124.8053  107.1657  107.7985 N   0  0  0  0  0  0  0  0  0  0  0  0
  123.1142  104.5716  107.4767 N   0  0  0  0  0  0  0  0  0  0  0  0
  123.0268  109.4141  106.6094 H   0  0  0  0  0  0  0  0  0  0  0  0
  126.2631  108.2563  108.9531 H   0  0  0  0  0  0  0  0  0  0  0  0
  126.2832  105.7068  107.8908 H   0  0  0  0  0  0  0  0  0  0  0  0
  124.9707  105.5344  109.0517 H   0  0  0  0  0  0  0  0  0  0  0  0
  124.4176  105.2288  106.0480 H   0  0  0  0  0  0  0  0  0  0  0  0
  122.6519  103.7277  107.1865 H   0  0  0  0  0  0  0  0  0  0  0  0
  122.5919  105.3345  107.8709 H   0  0  0  0  0  0  0  0  0  0  0  0
  1  5  1  0  0  0  0
  1  6  3  0  0  0  0
  2  7  1  0  0  0  0
  2  8  2  0  0  0  0
  3  7  2  0  0  0  0
  3  9  1  0  0  0  0
  4  5  1  0  0  0  0
  4  9  1  0  0  0  0
  5 10  1  0  0  0  0
  8  9  1  0  0  0  0
  2 11  1  0  0  0  0
  3 12  1  0  0  0  0
  4 13  1  0  0  0  0
  4 14  1  0  0  0  0
  5 15  1  0  0  0  0
 10 16  1  0  0  0  0
 10 17  1  0  0  0  0
M  END
> <FRED Chemgauss4 score>
-6.420286

$$$$
C83295839	P130212271
  -OEChem-05122015313D

 16 15  0     0  0  0  0  0  0999 V2000
  125.6196  106.9582  106.5408 C   0  0  0  0  0  0  0  0  0  0  0  0
  123.0000  105.3033  106.9647 C   0  0  0  0  0  0  0  0  0  0  0  0
  124.4501  104.8920  107.1316 C   0  0  0  0  0  0  0  0  0  0  0  0
  126.7456  108.4449  108.0674 N   0  0  0  0  0  0  0  0  0  0  0  0
  126.3484  107.1715  107.6945 N   0  0  0  0  0  0  0  0  0  0  0  0
  122.1915  104.5155  107.8303 O   0  0  0  0  0  0  0  0  0  0  0  0
  125.2654  105.6745  106.2412 O   0  0  0  0  0  0  0  0  0  0  0  0
  125.0989  108.0993  105.4328 S   0  0  0  0  0  0  0  0  0  0  0  0
  122.6593  105.1398  105.9377 H   0  0  0  0  0  0  0  0  0  0  0  0
  122.8668  106.3550  107.2345 H   0  0  0  0  0  0  0  0  0  0  0  0
  124.5918  103.8354  106.8836 H   0  0  0  0  0  0  0  0  0  0  0  0
  124.7854  105.0783  108.1561 H   0  0  0  0  0  0  0  0  0  0  0  0
  126.7363  108.4695  109.0862 H   0  0  0  0  0  0  0  0  0  0  0  0
  126.0116  109.0830  107.7631 H   0  0  0  0  0  0  0  0  0  0  0  0
  126.6235  106.4151  108.3112 H   0  0  0  0  0  0  0  0  0  0  0  0
  121.2750  104.8054  107.6965 H   0  0  0  0  0  0  0  0  0  0  0  0
  1  5  1  0  0  0  0
  1  7  1  0  0  0  0
  1  8  2  0  0  0  0
  2  3  1  0  0  0  0
  2  6  1  0  0  0  0
  3  7  1  0  0  0  0
  4  5  1  0  0  0  0
  2  9  1  0  0  0  0
  2 10  1  0  0  0  0
  3 11  1  0  0  0  0
  3 12  1  0  0  0  0
  4 13  1  0  0  0  0
  4 14  1  0  0  0  0
  5 15  1  0  0  0  0
  6 16  1  0  0  0  0
M  END
> <FRED Chemgauss4 score>
-6.409459

$$$$
C18739352	P149102511
  -OEChem-05122015313D

 21 22  0     1  0  0  0  0  0999 V2000
  124.9983  107.5885  106.2724 C   0  0  0  0  0  0  0  0  0  0  0  0
  125.3010  106.4085  106.9476 C   0  0  0  0  0  0  0  0  0  0  0  0
  124.2723  105.5651  106.6527 C   0  0  0  0  0  0  0  0  0  0  0  0
  124.3586  104.2259  107.2485 C   0  0  0  0  0  0  0  0  0  0  0  0
  125.5099  104.4724  108.2899 C   0  0  0  0  0  0  0  0  0  0  0  0
  126.2995  105.7555  107.8138 C   0  0  2  0  0  0  0  0  0  0  0  0
  122.1801  105.7469  105.2844 C   0  0  0  0  0  0  0  0  0  0  0  0
  123.8371  107.4925  105.5986 N   0  0  0  0  0  0  0  0  0  0  0  0
  123.4135  106.2285  105.8538 N   0  0  0  0  0  0  0  0  0  0  0  0
  126.6728  106.6074  108.9279 N   0  0  0  0  0  0  0  0  0  0  0  0
  125.5520  108.5149  106.2270 H   0  0  0  0  0  0  0  0  0  0  0  0
  123.4378  103.9061  107.7427 H   0  0  0  0  0  0  0  0  0  0  0  0
  124.6644  103.4804  106.5079 H   0  0  0  0  0  0  0  0  0  0  0  0
  125.0526  104.6503  109.2737 H   0  0  0  0  0  0  0  0  0  0  0  0
  126.1666  103.6022  108.3929 H   0  0  0  0  0  0  0  0  0  0  0  0
  127.1801  105.4577  107.2340 H   0  0  0  0  0  0  0  0  0  0  0  0
  121.3738  105.9713  105.9876 H   0  0  0  0  0  0  0  0  0  0  0  0
  122.0022  106.2448  104.3271 H   0  0  0  0  0  0  0  0  0  0  0  0
  122.2554  104.6686  105.1187 H   0  0  0  0  0  0  0  0  0  0  0  0
  126.7989  107.5863  108.7598 H   0  0  0  0  0  0  0  0  0  0  0  0
  126.9898  106.1761  109.7740 H   0  0  0  0  0  0  0  0  0  0  0  0
  1  2  1  0  0  0  0
  1  8  2  0  0  0  0
  2  3  2  0  0  0  0
  2  6  1  0  0  0  0
  3  4  1  0  0  0  0
  3  9  1  0  0  0  0
  4  5  1  0  0  0  0
  5  6  1  0  0  0  0
  6 10  1  0  0  0  0
  7  9  1  0  0  0  0
  8  9  1  0  0  0  0
  1 11  1  0  0  0  0
  4 12  1  0  0  0  0
  4 13  1  0  0  0  0
  5 14  1  0  0  0  0
  5 15  1  0  0  0  0
  6 16  1  0  0  0  0
  7 17  1  0  0  0  0
  7 18  1  0  0  0  0
  7 19  1  0  0  0  0
 10 20  1  0  0  0  0
 10 21  1  0  0  0  0
M  END
> <FRED Chemgauss4 score>
-6.403411

$$$$
C70624786	P108953588
  -OEChem-05122015313D

 24 23  0     1  0  0  0  0  0999 V2000
  125.9010  106.4358  108.6678 C   0  0  0  0  0  0  0  0  0  0  0  0
  121.9651  105.9915  105.1763 C   0  0  0  0  0  0  0  0  0  0  0  0
  126.2328  106.9918  107.2875 C   0  0  0  0  0  0  0  0  0  0  0  0
  124.3837  108.7973  107.2853 C   0  0  0  0  0  0  0  0  0  0  0  0
  124.0189  106.4991  106.1996 C   0  0  0  0  0  0  0  0  0  0  0  0
  125.0313  107.6128  106.5358 C   0  0  2  0  0  0  0  0  0  0  0  0
  125.3145  109.8797  107.5800 N   0  0  0  0  0  0  0  0  0  0  0  0
  125.5065  108.1428  105.2886 O   0  0  0  0  0  0  0  0  0  0  0  0
  122.8825  107.0203  105.5192 O   0  0  0  0  0  0  0  0  0  0  0  0
  125.4973  107.2317  109.3020 H   0  0  0  0  0  0  0  0  0  0  0  0
  126.7904  106.0333  109.1622 H   0  0  0  0  0  0  0  0  0  0  0  0
  125.1458  105.6469  108.6122 H   0  0  0  0  0  0  0  0  0  0  0  0
  121.1073  106.4256  104.6568 H   0  0  0  0  0  0  0  0  0  0  0  0
  121.6345  105.4797  106.0835 H   0  0  0  0  0  0  0  0  0  0  0  0
  122.4632  105.2761  104.5176 H   0  0  0  0  0  0  0  0  0  0  0  0
  126.6319  106.1596  106.6928 H   0  0  0  0  0  0  0  0  0  0  0  0
  127.0421  107.7254  107.3849 H   0  0  0  0  0  0  0  0  0  0  0  0
  123.5411  109.1942  106.7057 H   0  0  0  0  0  0  0  0  0  0  0  0
  123.9347  108.4471  108.2220 H   0  0  0  0  0  0  0  0  0  0  0  0
  123.6545  106.0110  107.1105 H   0  0  0  0  0  0  0  0  0  0  0  0
  124.4657  105.7299  105.5617 H   0  0  0  0  0  0  0  0  0  0  0  0
  125.1244  110.4643  108.3665 H   0  0  0  0  0  0  0  0  0  0  0  0
  125.9856  110.1273  106.8837 H   0  0  0  0  0  0  0  0  0  0  0  0
  125.8815  107.3930  104.8073 H   0  0  0  0  0  0  0  0  0  0  0  0
  1  3  1  0  0  0  0
  2  9  1  0  0  0  0
  3  6  1  0  0  0  0
  4  6  1  0  0  0  0
  4  7  1  0  0  0  0
  5  6  1  0  0  0  0
  5  9  1  0  0  0  0
  6  8  1  0  0  0  0
  1 10  1  0  0  0  0
  1 11  1  0  0  0  0
  1 12  1  0  0  0  0
  2 13  1  0  0  0  0
  2 14  1  0  0  0  0
  2 15  1  0  0  0  0
  3 16  1  0  0  0  0
  3 17  1  0  0  0  0
  4 18  1  0  0  0  0
  4 19  1  0  0  0  0
  5 20  1  0  0  0  0
  5 21  1  0  0  0  0
  7 22  1  0  0  0  0
  7 23  1  0  0  0  0
  8 24  1  0  0  0  0
M  END
> <FRED Chemgauss4 score>
-6.396788

$$$$
C75523971	P117554389
  -OEChem-05122015313D

 18 18  0     1  0  0  0  0  0999 V2000
  125.4331  108.4851  108.1185 C   0  0  0  0  0  0  0  0  0  0  0  0
  126.7318  106.5729  107.6170 C   0  0  0  0  0  0  0  0  0  0  0  0
  126.5219  108.0137  107.1973 C   0  0  1  0  0  0  0  0  0  0  0  0
  125.4633  106.1916  108.3526 C   0  0  2  0  0  0  0  0  0  0  0  0
  124.4423  105.4560  107.4983 C   0  0  0  0  0  0  0  0  0  0  0  0
  126.0528  108.1778  105.8312 N   0  0  0  0  0  0  0  0  0  0  0  0
  125.0541  109.6412  108.2366 O   0  0  0  0  0  0  0  0  0  0  0  0
  124.9019  107.4306  108.8069 O   0  0  0  0  0  0  0  0  0  0  0  0
  124.0593  106.2922  106.4181 O   0  0  0  0  0  0  0  0  0  0  0  0
  126.8680  105.9219  106.7259 H   0  0  0  0  0  0  0  0  0  0  0  0
  127.6420  106.4330  108.2360 H   0  0  0  0  0  0  0  0  0  0  0  0
  127.4111  108.6296  107.3732 H   0  0  0  0  0  0  0  0  0  0  0  0
  125.6902  105.5841  109.2497 H   0  0  0  0  0  0  0  0  0  0  0  0
  123.5558  105.2124  108.0895 H   0  0  0  0  0  0  0  0  0  0  0  0
  124.8734  104.5348  107.0980 H   0  0  0  0  0  0  0  0  0  0  0  0
  126.4844  107.6351  105.1088 H   0  0  0  0  0  0  0  0  0  0  0  0
  125.4657  108.9604  105.6179 H   0  0  0  0  0  0  0  0  0  0  0  0
  123.4094  105.7960  105.8932 H   0  0  0  0  0  0  0  0  0  0  0  0
  1  3  1  0  0  0  0
  1  7  2  0  0  0  0
  1  8  1  0  0  0  0
  2  3  1  0  0  0  0
  2  4  1  0  0  0  0
  3  6  1  0  0  0  0
  4  5  1  0  0  0  0
  4  8  1  0  0  0  0
  5  9  1  0  0  0  0
  2 10  1  0  0  0  0
  2 11  1  0  0  0  0
  3 12  1  0  0  0  0
  4 13  1  0  0  0  0
  5 14  1  0  0  0  0
  5 15  1  0  0  0  0
  6 16  1  0  0  0  0
  6 17  1  0  0  0  0
  9 18  1  0  0  0  0
M  END
> <FRED Chemgauss4 score>
-6.394715

$$$$
C38251012	P87937981
  -OEChem-05122015313D

 20 19  0     0  0  0  0  0  0999 V2000
  124.9747  104.7355  107.2132 C   0  0  0  0  0  0  0  0  0  0  0  0
  124.6833  109.1246  108.5445 C   0  0  0  0  0  0  0  0  0  0  0  0
  125.8104  105.7254  106.4246 C   0  0  0  0  0  0  0  0  0  0  0  0
  125.2065  107.7319  108.2514 C   0  0  0  0  0  0  0  0  0  0  0  0
  123.6104  104.6969  106.7622 N   0  0  0  0  0  0  0  0  0  0  0  0
  123.7720  107.3300  106.1035 O   0  0  0  0  0  0  0  0  0  0  0  0
  126.1057  108.2591  105.8543 O   0  0  0  0  0  0  0  0  0  0  0  0
  125.4825  110.1031  107.8921 O   0  0  0  0  0  0  0  0  0  0  0  0
  125.1660  107.3670  106.5116 S   0  0  0  0  0  0  0  0  0  0  0  0
  125.3765  103.7203  107.1373 H   0  0  0  0  0  0  0  0  0  0  0  0
  124.9524  105.0195  108.2697 H   0  0  0  0  0  0  0  0  0  0  0  0
  123.6570  109.2319  108.1797 H   0  0  0  0  0  0  0  0  0  0  0  0
  124.6899  109.3389  109.6176 H   0  0  0  0  0  0  0  0  0  0  0  0
  125.8195  105.4563  105.3641 H   0  0  0  0  0  0  0  0  0  0  0  0
  126.8418  105.7665  106.7874 H   0  0  0  0  0  0  0  0  0  0  0  0
  124.6060  106.9616  108.7439 H   0  0  0  0  0  0  0  0  0  0  0  0
  126.2500  107.6356  108.5640 H   0  0  0  0  0  0  0  0  0  0  0  0
  122.8872  104.4169  107.4060 H   0  0  0  0  0  0  0  0  0  0  0  0
  123.4173  104.7487  105.7743 H   0  0  0  0  0  0  0  0  0  0  0  0
  125.1024  110.9681  108.1147 H   0  0  0  0  0  0  0  0  0  0  0  0
  1  3  1  0  0  0  0
  1  5  1  0  0  0  0
  2  4  1  0  0  0  0
  2  8  1  0  0  0  0
  3  9  1  0  0  0  0
  4  9  1  0  0  0  0
  6  9  2  0  0  0  0
  7  9  2  0  0  0  0
  1 10  1  0  0  0  0
  1 11  1  0  0  0  0
  2 12  1  0  0  0  0
  2 13  1  0  0  0  0
  3 14  1  0  0  0  0
  3 15  1  0  0  0  0
  4 16  1  0  0  0  0
  4 17  1  0  0  0  0
  5 18  1  0  0  0  0
  5 19  1  0  0  0  0
  8 20  1  0  0  0  0
M  END
> <FRED Chemgauss4 score>
-6.385814

$$$$
C39077974	P59214167
  -OEChem-05122015313D

 21 20  0     0  0  0  0  0  0999 V2000
  124.4431  107.2526  106.1019 C   0  0  0  0  0  0  0  0  0  0  0  0
  126.1002  106.3741  108.8072 C   0  0  0  0  0  0  0  0  0  0  0  0
  125.9355  105.7937  107.4127 C   0  0  0  0  0  0  0  0  0  0  0  0
  123.5567  105.1546  107.0934 C   0  0  0  0  0  0  0  0  0  0  0  0
  122.8262  105.5370  108.3677 C   0  0  0  0  0  0  0  0  0  0  0  0
  127.3961  106.0909  109.3633 N   0  0  0  0  0  0  0  0  0  0  0  0
  124.6463  106.0963  106.8522 N   0  0  0  0  0  0  0  0  0  0  0  0
  125.2586  108.1242  105.8218 O   0  0  0  0  0  0  0  0  0  0  0  0
  121.7444  104.6388  108.5794 O   0  0  0  0  0  0  0  0  0  0  0  0
  123.4008  107.3272  105.7508 H   0  0  0  0  0  0  0  0  0  0  0  0
  125.3528  105.9716  109.4983 H   0  0  0  0  0  0  0  0  0  0  0  0
  125.9953  107.4631  108.7760 H   0  0  0  0  0  0  0  0  0  0  0  0
  126.6864  106.2136  106.7364 H   0  0  0  0  0  0  0  0  0  0  0  0
  126.0442  104.7044  107.4187 H   0  0  0  0  0  0  0  0  0  0  0  0
  123.9825  104.1489  107.1666 H   0  0  0  0  0  0  0  0  0  0  0  0
  122.8760  105.1941  106.2377 H   0  0  0  0  0  0  0  0  0  0  0  0
  122.4138  106.5465  108.2747 H   0  0  0  0  0  0  0  0  0  0  0  0
  123.4893  105.5010  109.2381 H   0  0  0  0  0  0  0  0  0  0  0  0
  127.8104  105.1859  109.2072 H   0  0  0  0  0  0  0  0  0  0  0  0
  127.7776  106.7108  110.0600 H   0  0  0  0  0  0  0  0  0  0  0  0
  121.3064  104.9172  109.3997 H   0  0  0  0  0  0  0  0  0  0  0  0
  1  7  1  0  0  0  0
  1  8  2  0  0  0  0
  2  3  1  0  0  0  0
  2  6  1  0  0  0  0
  3  7  1  0  0  0  0
  4  5  1  0  0  0  0
  4  7  1  0  0  0  0
  5  9  1  0  0  0  0
  1 10  1  0  0  0  0
  2 11  1  0  0  0  0
  2 12  1  0  0  0  0
  3 13  1  0  0  0  0
  3 14  1  0  0  0  0
  4 15  1  0  0  0  0
  4 16  1  0  0  0  0
  5 17  1  0  0  0  0
  5 18  1  0  0  0  0
  6 19  1  0  0  0  0
  6 20  1  0  0  0  0
  9 21  1  0  0  0  0
M  END
> <FRED Chemgauss4 score>
-6.384902

$$$$
C19271336	P28481797
  -OEChem-05122015313D

 17 17  0     0  0  0  0  0  0999 V2000
  123.5795  109.1139  111.7223 C   0  0  0  0  0  0  0  0  0  0  0  0
  123.8861  110.2378  110.9872 C   0  0  0  0  0  0  0  0  0  0  0  0
  124.0272  107.8020  109.9035 C   0  0  0  0  0  0  0  0  0  0  0  0
  124.3331  108.9259  109.1681 C   0  0  0  0  0  0  0  0  0  0  0  0
  124.7518  108.8063  107.7443 C   0  0  0  0  0  0  0  0  0  0  0  0
  123.6446  107.8758  111.1937 N   0  0  0  0  0  0  0  0  0  0  0  0
  124.2683  110.1639  109.6968 N   0  0  0  0  0  0  0  0  0  0  0  0
  127.0019  109.4390  107.7968 N   0  0  0  0  0  0  0  0  0  0  0  0
  126.1079  108.3361  107.6072 N   0  0  0  0  0  0  0  0  0  0  0  0
  123.2723  109.1741  112.7590 H   0  0  0  0  0  0  0  0  0  0  0  0
  123.8337  111.2323  111.4127 H   0  0  0  0  0  0  0  0  0  0  0  0
  124.0773  106.8036  109.4853 H   0  0  0  0  0  0  0  0  0  0  0  0
  124.1047  108.1059  107.1960 H   0  0  0  0  0  0  0  0  0  0  0  0
  124.6872  109.7708  107.2202 H   0  0  0  0  0  0  0  0  0  0  0  0
  126.4622  110.2756  108.0171 H   0  0  0  0  0  0  0  0  0  0  0  0
  127.5872  109.2626  108.6124 H   0  0  0  0  0  0  0  0  0  0  0  0
  126.2580  107.9531  106.6691 H   0  0  0  0  0  0  0  0  0  0  0  0
  1  2  1  0  0  0  0
  1  6  2  0  0  0  0
  2  7  2  0  0  0  0
  3  4  2  0  0  0  0
  3  6  1  0  0  0  0
  4  5  1  0  0  0  0
  4  7  1  0  0  0  0
  5  9  1  0  0  0  0
  8  9  1  0  0  0  0
  1 10  1  0  0  0  0
  2 11  1  0  0  0  0
  3 12  1  0  0  0  0
  5 13  1  0  0  0  0
  5 14  1  0  0  0  0
  8 15  1  0  0  0  0
  8 16  1  0  0  0  0
  9 17  1  0  0  0  0
M  END
> <FRED Chemgauss4 score>
-6.366582

$$$$
C38362819	P135037319
  -OEChem-05122015313D

 22 21  0     0  0  0  0  0  0999 V2000
  126.3704  107.4578  107.2408 C   0  0  0  0  0  0  0  0  0  0  0  0
  123.9805  108.2061  107.0697 C   0  0  0  0  0  0  0  0  0  0  0  0
  124.6342  105.9011  106.2001 C   0  0  0  0  0  0  0  0  0  0  0  0
  124.7355  104.9878  107.4195 C   0  0  0  0  0  0  0  0  0  0  0  0
  125.0792  107.3598  106.4258 C   0  0  0  0  0  0  0  0  0  0  0  0
  122.5496  105.1116  108.2395 N   0  0  0  0  0  0  0  0  0  0  0  0
  123.9040  105.5072  108.4805 N   0  0  0  0  0  0  0  0  0  0  0  0
  125.3350  107.9340  105.1369 O   0  0  0  0  0  0  0  0  0  0  0  0
  127.1632  106.8533  106.7849 H   0  0  0  0  0  0  0  0  0  0  0  0
  126.2240  107.0618  108.2520 H   0  0  0  0  0  0  0  0  0  0  0  0
  126.7309  108.4878  107.3204 H   0  0  0  0  0  0  0  0  0  0  0  0
  123.0513  108.1411  106.4912 H   0  0  0  0  0  0  0  0  0  0  0  0
  123.7437  107.8370  108.0740 H   0  0  0  0  0  0  0  0  0  0  0  0
  124.2608  109.2611  107.1434 H   0  0  0  0  0  0  0  0  0  0  0  0
  125.2224  105.4715  105.3767 H   0  0  0  0  0  0  0  0  0  0  0  0
  123.6001  105.8979  105.8270 H   0  0  0  0  0  0  0  0  0  0  0  0
  124.4029  103.9739  107.1790 H   0  0  0  0  0  0  0  0  0  0  0  0
  125.7661  104.9280  107.7810 H   0  0  0  0  0  0  0  0  0  0  0  0
  121.9742  105.9427  108.1062 H   0  0  0  0  0  0  0  0  0  0  0  0
  122.5016  104.5961  107.3615 H   0  0  0  0  0  0  0  0  0  0  0  0
  124.2015  105.1235  109.3814 H   0  0  0  0  0  0  0  0  0  0  0  0
  125.5917  108.8523  105.2995 H   0  0  0  0  0  0  0  0  0  0  0  0
  1  5  1  0  0  0  0
  2  5  1  0  0  0  0
  3  4  1  0  0  0  0
  3  5  1  0  0  0  0
  4  7  1  0  0  0  0
  5  8  1  0  0  0  0
  6  7  1  0  0  0  0
  1  9  1  0  0  0  0
  1 10  1  0  0  0  0
  1 11  1  0  0  0  0
  2 12  1  0  0  0  0
  2 13  1  0  0  0  0
  2 14  1  0  0  0  0
  3 15  1  0  0  0  0
  3 16  1  0  0  0  0
  4 17  1  0  0  0  0
  4 18  1  0  0  0  0
  6 19  1  0  0  0  0
  6 20  1  0  0  0  0
  7 21  1  0  0  0  0
  8 22  1  0  0  0  0
M  END
> <FRED Chemgauss4 score>
-6.331713

$$$$
C20441619	P30506933
  -OEChem-05122015313D

 18 18  0     1  0  0  0  0  0999 V2000
  123.4859  109.1314  111.4989 C   0  0  0  0  0  0  0  0  0  0  0  0
  123.7367  107.9581  110.8172 C   0  0  0  0  0  0  0  0  0  0  0  0
  123.8419  110.2915  110.8419 C   0  0  0  0  0  0  0  0  0  0  0  0
  124.5941  109.1073  109.0533 C   0  0  0  0  0  0  0  0  0  0  0  0
  124.3109  108.4512  106.6282 C   0  0  0  0  0  0  0  0  0  0  0  0
  125.2096  109.0938  107.6952 C   0  0  2  0  0  0  0  0  0  0  0  0
  124.2917  107.9091  109.5884 N   0  0  0  0  0  0  0  0  0  0  0  0
  124.4004  110.3163  109.6139 N   0  0  0  0  0  0  0  0  0  0  0  0
  126.5117  108.4484  107.6913 N   0  0  0  0  0  0  0  0  0  0  0  0
  123.0393  109.1412  112.4841 H   0  0  0  0  0  0  0  0  0  0  0  0
  123.4907  106.9959  111.2535 H   0  0  0  0  0  0  0  0  0  0  0  0
  123.6832  111.2625  111.2986 H   0  0  0  0  0  0  0  0  0  0  0  0
  124.0664  107.4184  106.8993 H   0  0  0  0  0  0  0  0  0  0  0  0
  123.3713  109.0037  106.5144 H   0  0  0  0  0  0  0  0  0  0  0  0
  124.7965  108.4369  105.6459 H   0  0  0  0  0  0  0  0  0  0  0  0
  125.4139  110.1257  107.3583 H   0  0  0  0  0  0  0  0  0  0  0  0
  127.1060  108.5704  108.4866 H   0  0  0  0  0  0  0  0  0  0  0  0
  126.8569  108.0782  106.8284 H   0  0  0  0  0  0  0  0  0  0  0  0
  1  2  1  0  0  0  0
  1  3  2  0  0  0  0
  2  7  2  0  0  0  0
  3  8  1  0  0  0  0
  4  6  1  0  0  0  0
  4  7  1  0  0  0  0
  4  8  2  0  0  0  0
  5  6  1  0  0  0  0
  6  9  1  0  0  0  0
  1 10  1  0  0  0  0
  2 11  1  0  0  0  0
  3 12  1  0  0  0  0
  5 13  1  0  0  0  0
  5 14  1  0  0  0  0
  5 15  1  0  0  0  0
  6 16  1  0  0  0  0
  9 17  1  0  0  0  0
  9 18  1  0  0  0  0
M  END
> <FRED Chemgauss4 score>
-6.324723

$$$$
C61842909	P94744252
  -OEChem-05122015313D

 23 23  0     0  0  0  0  0  0999 V2000
  123.9976  108.8307  111.9596 C   0  0  0  0  0  0  0  0  0  0  0  0
  123.8686  110.9131  112.0253 C   0  0  0  0  0  0  0  0  0  0  0  0
  126.1741  107.5076  107.3821 C   0  0  0  0  0  0  0  0  0  0  0  0
  123.7121  112.3096  112.4220 C   0  0  0  0  0  0  0  0  0  0  0  0
  124.4992  108.4086  109.4680 C   0  0  0  0  0  0  0  0  0  0  0  0
  124.9767  109.2958  108.3262 C   0  0  0  0  0  0  0  0  0  0  0  0
  123.7740  109.8700  112.8167 N   0  0  0  0  0  0  0  0  0  0  0  0
  124.1366  110.5022  110.7567 N   0  0  0  0  0  0  0  0  0  0  0  0
  124.2247  109.1652  110.6876 N   0  0  0  0  0  0  0  0  0  0  0  0
  122.3297  112.6954  112.6494 N   0  0  0  0  0  0  0  0  0  0  0  0
  125.1878  108.5070  107.1629 O   0  0  0  0  0  0  0  0  0  0  0  0
  123.9901  107.8008  112.2942 H   0  0  0  0  0  0  0  0  0  0  0  0
  126.3098  106.9222  106.4694 H   0  0  0  0  0  0  0  0  0  0  0  0
  125.8590  106.8568  108.2016 H   0  0  0  0  0  0  0  0  0  0  0  0
  127.1177  107.9911  107.6457 H   0  0  0  0  0  0  0  0  0  0  0  0
  124.2556  112.5508  113.3601 H   0  0  0  0  0  0  0  0  0  0  0  0
  124.1059  113.0222  111.6668 H   0  0  0  0  0  0  0  0  0  0  0  0
  125.2459  107.6446  109.7141 H   0  0  0  0  0  0  0  0  0  0  0  0
  123.5710  107.8949  109.1922 H   0  0  0  0  0  0  0  0  0  0  0  0
  124.2106  110.0413  108.0912 H   0  0  0  0  0  0  0  0  0  0  0  0
  125.9092  109.8130  108.5744 H   0  0  0  0  0  0  0  0  0  0  0  0
  122.0738  113.6528  112.5130 H   0  0  0  0  0  0  0  0  0  0  0  0
  121.7280  112.0528  113.1247 H   0  0  0  0  0  0  0  0  0  0  0  0
  1  7  2  0  0  0  0
  1  9  1  0  0  0  0
  2  4  1  0  0  0  0
  2  7  1  0  0  0  0
  2  8  2  0  0  0  0
  3 11  1  0  0  0  0
  4 10  1  0  0  0  0
  5  6  1  0  0  0  0
  5  9  1  0  0  0  0
  6 11  1  0  0  0  0
  8  9  1  0  0  0  0
  1 12  1  0  0  0  0
  3 13  1  0  0  0  0
  3 14  1  0  0  0  0
  3 15  1  0  0  0  0
  4 16  1  0  0  0  0
  4 17  1  0  0  0  0
  5 18  1  0  0  0  0
  5 19  1  0  0  0  0
  6 20  1  0  0  0  0
  6 21  1  0  0  0  0
 10 22  1  0  0  0  0
 10 23  1  0  0  0  0
M  END
> <FRED Chemgauss4 score>
-6.314257

$$$$
C59366433	P90271539
  -OEChem-05122015313D

 20 20  0     0  0  0  0  0  0999 V2000
  125.2231  108.1752  107.8786 C   0  0  0  0  0  0  0  0  0  0  0  0
  125.1561  105.7237  107.2470 C   0  0  0  0  0  0  0  0  0  0  0  0
  123.0259  108.6809  110.9146 C   0  0  0  0  0  0  0  0  0  0  0  0
  123.9574  109.1343  109.8031 C   0  0  0  0  0  0  0  0  0  0  0  0
  125.8358  109.2333  107.3997 N   0  0  0  0  0  0  0  0  0  0  0  0
  126.5678  108.7835  106.3241 N   0  0  0  0  0  0  0  0  0  0  0  0
  126.4064  107.4775  106.1500 N   0  0  0  0  0  0  0  0  0  0  0  0
  125.5654  107.0996  107.1228 N   0  0  0  0  0  0  0  0  0  0  0  0
  121.8289  108.0687  110.4037 N   0  0  0  0  0  0  0  0  0  0  0  0
  124.3592  108.0425  108.9581 N   0  0  0  0  0  0  0  0  0  0  0  0
  124.2519  105.5855  106.6484 H   0  0  0  0  0  0  0  0  0  0  0  0
  125.9567  105.0718  106.8865 H   0  0  0  0  0  0  0  0  0  0  0  0
  124.9577  105.4993  108.2988 H   0  0  0  0  0  0  0  0  0  0  0  0
  122.7197  109.5206  111.5466 H   0  0  0  0  0  0  0  0  0  0  0  0
  123.5246  107.9360  111.5426 H   0  0  0  0  0  0  0  0  0  0  0  0
  123.4558  109.8675  109.1640 H   0  0  0  0  0  0  0  0  0  0  0  0
  124.8673  109.5903  110.2065 H   0  0  0  0  0  0  0  0  0  0  0  0
  121.3878  108.4594  109.5864 H   0  0  0  0  0  0  0  0  0  0  0  0
  121.3388  107.3977  110.9736 H   0  0  0  0  0  0  0  0  0  0  0  0
  123.9929  107.1156  109.1592 H   0  0  0  0  0  0  0  0  0  0  0  0
  1  5  2  0  0  0  0
  1  8  1  0  0  0  0
  1 10  1  0  0  0  0
  2  8  1  0  0  0  0
  3  4  1  0  0  0  0
  3  9  1  0  0  0  0
  4 10  1  0  0  0  0
  5  6  1  0  0  0  0
  6  7  2  0  0  0  0
  7  8  1  0  0  0  0
  2 11  1  0  0  0  0
  2 12  1  0  0  0  0
  2 13  1  0  0  0  0
  3 14  1  0  0  0  0
  3 15  1  0  0  0  0
  4 16  1  0  0  0  0
  4 17  1  0  0  0  0
  9 18  1  0  0  0  0
  9 19  1  0  0  0  0
 10 20  1  0  0  0  0
M  END
> <FRED Chemgauss4 score>
-6.312152

$$$$
C38809856	P134917409
  -OEChem-05122015313D

 17 16  0     0  0  0  0  0  0999 V2000
  125.6801  102.9615  106.8628 C   0  0  0  0  0  0  0  0  0  0  0  0
  125.2833  104.0835  107.0210 C   0  0  0  0  0  0  0  0  0  0  0  0
  126.6655  107.8759  107.0544 C   0  0  0  0  0  0  0  0  0  0  0  0
  124.7951  105.4517  107.2104 C   0  0  0  0  0  0  0  0  0  0  0  0
  126.8282  106.5766  107.8114 C   0  0  0  0  0  0  0  0  0  0  0  0
  126.7877  108.9645  107.8833 N   0  0  0  0  0  0  0  0  0  0  0  0
  125.5475  106.1271  108.2709 N   0  0  0  0  0  0  0  0  0  0  0  0
  126.4071  107.9285  105.8543 O   0  0  0  0  0  0  0  0  0  0  0  0
  126.5965  110.2145  107.2793 O   0  0  0  0  0  0  0  0  0  0  0  0
  126.0320  101.9661  106.7231 H   0  0  0  0  0  0  0  0  0  0  0  0
  123.7331  105.4434  107.4748 H   0  0  0  0  0  0  0  0  0  0  0  0
  124.8971  106.0190  106.2798 H   0  0  0  0  0  0  0  0  0  0  0  0
  127.2505  105.7999  107.1680 H   0  0  0  0  0  0  0  0  0  0  0  0
  127.4751  106.7335  108.6787 H   0  0  0  0  0  0  0  0  0  0  0  0
  127.0027  108.8697  108.8696 H   0  0  0  0  0  0  0  0  0  0  0  0
  124.9867  106.9211  108.6043 H   0  0  0  0  0  0  0  0  0  0  0  0
  126.4152  109.9406  106.3643 H   0  0  0  0  0  0  0  0  0  0  0  0
  1  2  3  0  0  0  0
  2  4  1  0  0  0  0
  3  5  1  0  0  0  0
  3  6  1  0  0  0  0
  3  8  2  0  0  0  0
  4  7  1  0  0  0  0
  5  7  1  0  0  0  0
  6  9  1  0  0  0  0
  1 10  1  0  0  0  0
  4 11  1  0  0  0  0
  4 12  1  0  0  0  0
  5 13  1  0  0  0  0
  5 14  1  0  0  0  0
  6 15  1  0  0  0  0
  7 16  1  0  0  0  0
  9 17  1  0  0  0  0
M  END
> <FRED Chemgauss4 score>
-6.306885

$$$$
C61843660	P128730449
  -OEChem-05122015313D

 20 20  0     0  0  0  0  0  0999 V2000
  125.5049  108.8123  107.9967 C   0  0  0  0  0  0  0  0  0  0  0  0
  124.2773  109.4242  109.5701 C   0  0  0  0  0  0  0  0  0  0  0  0
  123.5306  110.1559  110.5387 C   0  0  0  0  0  0  0  0  0  0  0  0
  125.5380  106.0793  106.6660 C   0  0  0  0  0  0  0  0  0  0  0  0
  125.3195  106.2757  108.1564 C   0  0  0  0  0  0  0  0  0  0  0  0
  125.0353  109.9300  108.6251 N   0  0  0  0  0  0  0  0  0  0  0  0
  124.3015  108.0663  109.4986 N   0  0  0  0  0  0  0  0  0  0  0  0
  123.8153  109.9461  111.8255 N   0  0  0  0  0  0  0  0  0  0  0  0
  125.0851  107.6468  108.4935 N   0  0  0  0  0  0  0  0  0  0  0  0
  122.5136  111.0812  110.2075 N   0  0  0  0  0  0  0  0  0  0  0  0
  123.0288  110.7103  112.6935 O   0  0  0  0  0  0  0  0  0  0  0  0
  126.1758  108.8712  107.1489 H   0  0  0  0  0  0  0  0  0  0  0  0
  124.6702  106.4188  106.0907 H   0  0  0  0  0  0  0  0  0  0  0  0
  125.7023  105.0206  106.4430 H   0  0  0  0  0  0  0  0  0  0  0  0
  126.4105  106.6414  106.3168 H   0  0  0  0  0  0  0  0  0  0  0  0
  126.1926  105.9333  108.7233 H   0  0  0  0  0  0  0  0  0  0  0  0
  124.4586  105.6916  108.5009 H   0  0  0  0  0  0  0  0  0  0  0  0
  122.2840  111.2794  109.2404 H   0  0  0  0  0  0  0  0  0  0  0  0
  122.0079  111.6077  110.9121 H   0  0  0  0  0  0  0  0  0  0  0  0
  123.3689  110.4316  113.5606 H   0  0  0  0  0  0  0  0  0  0  0  0
  1  6  2  0  0  0  0
  1  9  1  0  0  0  0
  2  3  1  0  0  0  0
  2  6  1  0  0  0  0
  2  7  2  0  0  0  0
  3  8  2  0  0  0  0
  3 10  1  0  0  0  0
  4  5  1  0  0  0  0
  5  9  1  0  0  0  0
  7  9  1  0  0  0  0
  8 11  1  0  0  0  0
  1 12  1  0  0  0  0
  4 13  1  0  0  0  0
  4 14  1  0  0  0  0
  4 15  1  0  0  0  0
  5 16  1  0  0  0  0
  5 17  1  0  0  0  0
 10 18  1  0  0  0  0
 10 19  1  0  0  0  0
 11 20  1  0  0  0  0
M  END
> <FRED Chemgauss4 score>
-6.298182

$$$$
C36437532	P130761434
  -OEChem-05122015313D

 22 22  0     1  0  0  0  0  0999 V2000
  125.8637  105.3763  108.3847 C   0  0  0  0  0  0  0  0  0  0  0  0
  124.9000  104.2282  108.2082 C   0  0  0  0  0  0  0  0  0  0  0  0
  125.6649  106.1409  107.0889 C   0  0  2  0  0  0  0  0  0  0  0  0
  123.7367  104.8765  107.4711 C   0  0  1  0  0  0  0  0  0  0  0  0
  126.0250  107.6101  107.1922 C   0  0  0  0  0  0  0  0  0  0  0  0
  122.6499  105.3836  108.4086 C   0  0  0  0  0  0  0  0  0  0  0  0
  125.8208  108.2572  105.9359 N   0  0  0  0  0  0  0  0  0  0  0  0
  124.2742  106.0032  106.7550 O   0  0  0  0  0  0  0  0  0  0  0  0
  122.1379  104.2868  109.1454 O   0  0  0  0  0  0  0  0  0  0  0  0
  125.5663  105.9802  109.2502 H   0  0  0  0  0  0  0  0  0  0  0  0
  126.8981  105.0539  108.5330 H   0  0  0  0  0  0  0  0  0  0  0  0
  125.3596  103.4659  107.5669 H   0  0  0  0  0  0  0  0  0  0  0  0
  124.6169  103.7466  109.1485 H   0  0  0  0  0  0  0  0  0  0  0  0
  126.2411  105.6744  106.2808 H   0  0  0  0  0  0  0  0  0  0  0  0
  123.2958  104.1817  106.7484 H   0  0  0  0  0  0  0  0  0  0  0  0
  127.0701  107.7039  107.4702 H   0  0  0  0  0  0  0  0  0  0  0  0
  125.3968  108.0859  107.9383 H   0  0  0  0  0  0  0  0  0  0  0  0
  121.8410  105.8381  107.8344 H   0  0  0  0  0  0  0  0  0  0  0  0
  123.0639  106.1182  109.1010 H   0  0  0  0  0  0  0  0  0  0  0  0
  126.0261  107.7614  105.0771 H   0  0  0  0  0  0  0  0  0  0  0  0
  125.6712  109.2584  105.9060 H   0  0  0  0  0  0  0  0  0  0  0  0
  121.4480  104.6369  109.7341 H   0  0  0  0  0  0  0  0  0  0  0  0
  1  2  1  0  0  0  0
  1  3  1  0  0  0  0
  2  4  1  0  0  0  0
  3  5  1  0  0  0  0
  3  8  1  0  0  0  0
  4  6  1  0  0  0  0
  4  8  1  0  0  0  0
  5  7  1  0  0  0  0
  6  9  1  0  0  0  0
  1 10  1  0  0  0  0
  1 11  1  0  0  0  0
  2 12  1  0  0  0  0
  2 13  1  0  0  0  0
  3 14  1  0  0  0  0
  4 15  1  0  0  0  0
  5 16  1  0  0  0  0
  5 17  1  0  0  0  0
  6 18  1  0  0  0  0
  6 19  1  0  0  0  0
  7 20  1  0  0  0  0
  7 21  1  0  0  0  0
  9 22  1  0  0  0  0
M  END
> <FRED Chemgauss4 score>
-6.296794

$$$$
C84175605	P131725011
  -OEChem-05122015313D

 22 22  0     0  0  0  0  0  0999 V2000
  124.8557  103.2675  106.9205 C   0  0  0  0  0  0  0  0  0  0  0  0
  123.7604  104.2443  107.2296 C   0  0  0  0  0  0  0  0  0  0  0  0
  125.0574  104.3070  107.9890 C   0  0  0  0  0  0  0  0  0  0  0  0
  126.0089  106.3132  108.9002 C   0  0  0  0  0  0  0  0  0  0  0  0
  124.7981  107.2262  108.9241 C   0  0  0  0  0  0  0  0  0  0  0  0
  126.1858  109.1077  107.6650 N   0  0  0  0  0  0  0  0  0  0  0  0
  125.9893  105.4156  107.7776 N   0  0  0  0  0  0  0  0  0  0  0  0
  124.7844  107.4224  106.3186 O   0  0  0  0  0  0  0  0  0  0  0  0
  123.6151  109.1985  107.6837 O   0  0  0  0  0  0  0  0  0  0  0  0
  124.7128  108.2654  107.4992 S   0  0  0  0  0  0  0  0  0  0  0  0
  124.7104  102.2363  107.2186 H   0  0  0  0  0  0  0  0  0  0  0  0
  125.3954  103.3912  105.9894 H   0  0  0  0  0  0  0  0  0  0  0  0
  123.5622  105.0255  106.5057 H   0  0  0  0  0  0  0  0  0  0  0  0
  122.8782  103.8666  107.7320 H   0  0  0  0  0  0  0  0  0  0  0  0
  125.0315  103.9551  109.0154 H   0  0  0  0  0  0  0  0  0  0  0  0
  126.9415  106.8838  108.8506 H   0  0  0  0  0  0  0  0  0  0  0  0
  126.0309  105.6938  109.8021 H   0  0  0  0  0  0  0  0  0  0  0  0
  124.8428  107.8955  109.7885 H   0  0  0  0  0  0  0  0  0  0  0  0
  123.8627  106.6599  108.9640 H   0  0  0  0  0  0  0  0  0  0  0  0
  126.9389  108.8896  107.0010 H   0  0  0  0  0  0  0  0  0  0  0  0
  126.1425  110.0991  107.9309 H   0  0  0  0  0  0  0  0  0  0  0  0
  126.9248  105.0248  107.6196 H   0  0  0  0  0  0  0  0  0  0  0  0
  1  2  1  0  0  0  0
  1  3  1  0  0  0  0
  2  3  1  0  0  0  0
  3  7  1  0  0  0  0
  4  5  1  0  0  0  0
  4  7  1  0  0  0  0
  5 10  1  0  0  0  0
  6 10  1  0  0  0  0
  8 10  2  0  0  0  0
  9 10  2  0  0  0  0
  1 11  1  0  0  0  0
  1 12  1  0  0  0  0
  2 13  1  0  0  0  0
  2 14  1  0  0  0  0
  3 15  1  0  0  0  0
  4 16  1  0  0  0  0
  4 17  1  0  0  0  0
  5 18  1  0  0  0  0
  5 19  1  0  0  0  0
  6 20  1  0  0  0  0
  6 21  1  0  0  0  0
  7 22  1  0  0  0  0
M  END
> <FRED Chemgauss4 score>
-6.293887

$$$$
C02566799	P150451968
  -OEChem-05122015313D

 12 11  0     0  0  0  0  0  0999 V2000
  125.1184  107.0005  106.2132 C   0  0  0  0  0  0  0  0  0  0  0  0
  125.3568  104.7880  107.2357 C   0  0  0  0  0  0  0  0  0  0  0  0
  125.6271  106.1928  107.2795 C   0  0  0  0  0  0  0  0  0  0  0  0
  126.3433  106.7414  108.2999 C   0  0  0  0  0  0  0  0  0  0  0  0
  124.7048  107.6528  105.3469 N   0  0  0  0  0  0  0  0  0  0  0  0
  125.1363  103.6492  107.1973 N   0  0  0  0  0  0  0  0  0  0  0  0
  126.8339  105.9642  109.3280 N   0  0  0  0  0  0  0  0  0  0  0  0
  126.6043  108.0948  108.3436 N   0  0  0  0  0  0  0  0  0  0  0  0
  126.6528  104.9685  109.3120 H   0  0  0  0  0  0  0  0  0  0  0  0
  127.3670  106.3699  110.0858 H   0  0  0  0  0  0  0  0  0  0  0  0
  126.2723  108.7182  107.6195 H   0  0  0  0  0  0  0  0  0  0  0  0
  127.1409  108.4606  109.1200 H   0  0  0  0  0  0  0  0  0  0  0  0
  1  3  1  0  0  0  0
  1  5  3  0  0  0  0
  2  3  1  0  0  0  0
  2  6  3  0  0  0  0
  3  4  2  0  0  0  0
  4  7  1  0  0  0  0
  4  8  1  0  0  0  0
  7  9  1  0  0  0  0
  7 10  1  0  0  0  0
  8 11  1  0  0  0  0
  8 12  1  0  0  0  0
M  END
> <FRED Chemgauss4 score>
-6.280365

$$$$
C49587762	P74060572
  -OEChem-05122015313D

 21 22  0     1  0  0  0  0  0999 V2000
  125.1958  109.2452  107.8905 C   0  0  0  0  0  0  0  0  0  0  0  0
  125.5681  105.0760  108.2050 C   0  0  0  0  0  0  0  0  0  0  0  0
  125.3472  108.1954  106.8042 C   0  0  1  0  0  0  0  0  0  0  0  0
  124.5913  107.0250  107.4013 C   0  0  2  0  0  0  0  0  0  0  0  0
  124.8218  107.1913  108.8925 C   0  0  1  0  0  0  0  0  0  0  0  0
  125.8845  106.1613  109.2145 C   0  0  2  0  0  0  0  0  0  0  0  0
  124.8028  108.6259  105.5282 N   0  0  0  0  0  0  0  0  0  0  0  0
  125.2374  108.5335  109.1387 O   0  0  0  0  0  0  0  0  0  0  0  0
  125.1414  105.7638  107.0140 O   0  0  0  0  0  0  0  0  0  0  0  0
  127.1859  106.6760  108.9541 O   0  0  0  0  0  0  0  0  0  0  0  0
  126.0380  109.9393  107.8809 H   0  0  0  0  0  0  0  0  0  0  0  0
  124.2744  109.8236  107.8282 H   0  0  0  0  0  0  0  0  0  0  0  0
  126.4415  104.4633  107.9643 H   0  0  0  0  0  0  0  0  0  0  0  0
  124.7726  104.4104  108.5465 H   0  0  0  0  0  0  0  0  0  0  0  0
  126.4308  107.9550  106.6624 H   0  0  0  0  0  0  0  0  0  0  0  0
  123.5137  107.0091  107.1400 H   0  0  0  0  0  0  0  0  0  0  0  0
  123.8882  107.0304  109.4963 H   0  0  0  0  0  0  0  0  0  0  0  0
  125.8102  105.8041  110.2078 H   0  0  0  0  0  0  0  0  0  0  0  0
  124.5114  107.9245  104.8836 H   0  0  0  0  0  0  0  0  0  0  0  0
  124.9280  109.5784  105.2641 H   0  0  0  0  0  0  0  0  0  0  0  0
  127.8141  105.9360  109.0372 H   0  0  0  0  0  0  0  0  0  0  0  0
  1  3  1  0  0  0  0
  1  8  1  0  0  0  0
  2  6  1  0  0  0  0
  2  9  1  0  0  0  0
  3  4  1  0  0  0  0
  3  7  1  0  0  0  0
  4  5  1  0  0  0  0
  4  9  1  0  0  0  0
  5  6  1  0  0  0  0
  5  8  1  0  0  0  0
  6 10  1  0  0  0  0
  1 11  1  0  0  0  0
  1 12  1  0  0  0  0
  2 13  1  0  0  0  0
  2 14  1  0  0  0  0
  3 15  1  0  0  0  0
  4 16  1  0  0  0  0
  5 17  1  0  0  0  0
  6 18  1  0  0  0  0
  7 19  1  0  0  0  0
  7 20  1  0  0  0  0
 10 21  1  0  0  0  0
M  END
> <FRED Chemgauss4 score>
-6.275924

$$$$
C39064021	P59184467
  -OEChem-05122015313D

 17 17  0     0  0  0  0  0  0999 V2000
  124.1175  108.4127  107.3522 C   0  0  0  0  0  0  0  0  0  0  0  0
  125.5465  106.9719  107.8412 C   0  0  0  0  0  0  0  0  0  0  0  0
  126.1800  105.7863  108.3130 C   0  0  0  0  0  0  0  0  0  0  0  0
  127.5488  108.2488  106.9932 C   0  0  0  0  0  0  0  0  0  0  0  0
  124.2513  107.1740  107.9113 N   0  0  0  0  0  0  0  0  0  0  0  0
  125.2485  108.9896  106.9406 N   0  0  0  0  0  0  0  0  0  0  0  0
  126.1471  108.0475  107.2649 N   0  0  0  0  0  0  0  0  0  0  0  0
  127.7896  104.8273  109.8561 N   0  0  0  0  0  0  0  0  0  0  0  0
  127.1482  105.9331  109.3286 N   0  0  0  0  0  0  0  0  0  0  0  0
  125.9087  104.6316  107.8940 O   0  0  0  0  0  0  0  0  0  0  0  0
  123.1659  108.9108  107.2415 H   0  0  0  0  0  0  0  0  0  0  0  0
  127.7576  107.8604  105.9930 H   0  0  0  0  0  0  0  0  0  0  0  0
  127.7800  109.3164  107.0448 H   0  0  0  0  0  0  0  0  0  0  0  0
  128.1421  107.7173  107.7425 H   0  0  0  0  0  0  0  0  0  0  0  0
  127.9668  105.0307  110.8389 H   0  0  0  0  0  0  0  0  0  0  0  0
  127.1156  104.0630  109.8448 H   0  0  0  0  0  0  0  0  0  0  0  0
  127.3762  106.8587  109.6752 H   0  0  0  0  0  0  0  0  0  0  0  0
  1  5  1  0  0  0  0
  1  6  2  0  0  0  0
  2  3  1  0  0  0  0
  2  5  2  0  0  0  0
  2  7  1  0  0  0  0
  3  9  1  0  0  0  0
  3 10  2  0  0  0  0
  4  7  1  0  0  0  0
  6  7  1  0  0  0  0
  8  9  1  0  0  0  0
  1 11  1  0  0  0  0
  4 12  1  0  0  0  0
  4 13  1  0  0  0  0
  4 14  1  0  0  0  0
  8 15  1  0  0  0  0
  8 16  1  0  0  0  0
  9 17  1  0  0  0  0
M  END
> <FRED Chemgauss4 score>
-6.265065

$$$$
C28531649	P41966202
  -OEChem-05122015313D

 20 20  0     1  0  0  0  0  0999 V2000
  124.7957  105.1884  108.3108 C   0  0  0  0  0  0  0  0  0  0  0  0
  125.2408  106.5149  108.9252 C   0  0  0  0  0  0  0  0  0  0  0  0
  124.9110  105.3596  106.8003 C   0  0  0  0  0  0  0  0  0  0  0  0
  124.4569  107.6006  108.1813 C   0  0  1  0  0  0  0  0  0  0  0  0
  125.0448  108.9872  108.3524 C   0  0  0  0  0  0  0  0  0  0  0  0
  126.3866  109.0179  107.8646 N   0  0  0  0  0  0  0  0  0  0  0  0
  123.0625  107.0632  106.0037 O   0  0  0  0  0  0  0  0  0  0  0  0
  125.5042  107.6877  105.7354 O   0  0  0  0  0  0  0  0  0  0  0  0
  124.4328  107.0500  106.4725 S   0  0  0  0  0  0  0  0  0  0  0  0
  125.4034  104.3505  108.6649 H   0  0  0  0  0  0  0  0  0  0  0  0
  123.7532  104.9866  108.5856 H   0  0  0  0  0  0  0  0  0  0  0  0
  125.0415  106.5449  110.0011 H   0  0  0  0  0  0  0  0  0  0  0  0
  126.3203  106.6438  108.7787 H   0  0  0  0  0  0  0  0  0  0  0  0
  125.9469  105.2360  106.4711 H   0  0  0  0  0  0  0  0  0  0  0  0
  124.2601  104.6765  106.2511 H   0  0  0  0  0  0  0  0  0  0  0  0
  123.4144  107.5931  108.5215 H   0  0  0  0  0  0  0  0  0  0  0  0
  125.0483  109.2476  109.4064 H   0  0  0  0  0  0  0  0  0  0  0  0
  124.4520  109.7045  107.7937 H   0  0  0  0  0  0  0  0  0  0  0  0
  126.9860  108.2124  107.9948 H   0  0  0  0  0  0  0  0  0  0  0  0
  126.7959  109.8989  107.5787 H   0  0  0  0  0  0  0  0  0  0  0  0
  1  2  1  0  0  0  0
  1  3  1  0  0  0  0
  2  4  1  0  0  0  0
  3  9  1  0  0  0  0
  4  5  1  0  0  0  0
  4  9  1  0  0  0  0
  5  6  1  0  0  0  0
  7  9  2  0  0  0  0
  8  9  2  0  0  0  0
  1 10  1  0  0  0  0
  1 11  1  0  0  0  0
  2 12  1  0  0  0  0
  2 13  1  0  0  0  0
  3 14  1  0  0  0  0
  3 15  1  0  0  0  0
  4 16  1  0  0  0  0
  5 17  1  0  0  0  0
  5 18  1  0  0  0  0
  6 19  1  0  0  0  0
  6 20  1  0  0  0  0
M  END
> <FRED Chemgauss4 score>
-6.263952

$$$$
C01049738	P56435885
  -OEChem-05122015313D

 16 16  0     0  0  0  0  0  0999 V2000
  123.7067  106.9169  106.1909 C   0  0  0  0  0  0  0  0  0  0  0  0
  125.6048  107.5178  107.0543 C   0  0  0  0  0  0  0  0  0  0  0  0
  122.4804  106.1398  105.9316 C   0  0  0  0  0  0  0  0  0  0  0  0
  126.8119  107.5108  107.9020 C   0  0  0  0  0  0  0  0  0  0  0  0
  124.0779  108.0272  105.5944 N   0  0  0  0  0  0  0  0  0  0  0  0
  125.2855  108.4095  106.1437 N   0  0  0  0  0  0  0  0  0  0  0  0
  124.6387  106.5599  107.1176 N   0  0  0  0  0  0  0  0  0  0  0  0
  124.6097  105.4327  107.9667 N   0  0  0  0  0  0  0  0  0  0  0  0
  122.6477  105.3806  105.1495 H   0  0  0  0  0  0  0  0  0  0  0  0
  122.1223  105.6159  106.8347 H   0  0  0  0  0  0  0  0  0  0  0  0
  121.6448  106.7812  105.6013 H   0  0  0  0  0  0  0  0  0  0  0  0
  126.6407  108.0586  108.8435 H   0  0  0  0  0  0  0  0  0  0  0  0
  127.1288  106.4865  108.1641 H   0  0  0  0  0  0  0  0  0  0  0  0
  127.6762  107.9761  107.3968 H   0  0  0  0  0  0  0  0  0  0  0  0
  123.6599  105.1433  108.2259 H   0  0  0  0  0  0  0  0  0  0  0  0
  125.0835  105.5939  108.8628 H   0  0  0  0  0  0  0  0  0  0  0  0
  1  3  1  0  0  0  0
  1  5  2  0  0  0  0
  1  7  1  0  0  0  0
  2  4  1  0  0  0  0
  2  6  2  0  0  0  0
  2  7  1  0  0  0  0
  5  6  1  0  0  0  0
  7  8  1  0  0  0  0
  3  9  1  0  0  0  0
  3 10  1  0  0  0  0
  3 11  1  0  0  0  0
  4 12  1  0  0  0  0
  4 13  1  0  0  0  0
  4 14  1  0  0  0  0
  8 15  1  0  0  0  0
  8 16  1  0  0  0  0
M  END
> <FRED Chemgauss4 score>
-6.234980

$$$$
C12505096	P48658544
  -OEChem-05122015313D

 13 13  0     0  0  0  0  0  0999 V2000
  123.1227  108.3362  113.1866 C   0  0  0  0  0  0  0  0  0  0  0  0
  122.1879  109.7549  111.6800 C   0  0  0  0  0  0  0  0  0  0  0  0
  123.6468  111.8080  112.3559 C   0  0  0  0  0  0  0  0  0  0  0  0
  122.1743  108.4597  112.1752 N   0  0  0  0  0  0  0  0  0  0  0  0
  123.7322  109.5943  113.3111 N   0  0  0  0  0  0  0  0  0  0  0  0
  123.1594  110.4504  112.3934 N   0  0  0  0  0  0  0  0  0  0  0  0
  123.3764  107.3332  113.8384 O   0  0  0  0  0  0  0  0  0  0  0  0
  121.2019  110.3060  110.4623 S   0  0  0  0  0  0  0  0  0  0  0  0
  123.0687  112.4337  113.0408 H   0  0  0  0  0  0  0  0  0  0  0  0
  123.5549  112.2147  111.3451 H   0  0  0  0  0  0  0  0  0  0  0  0
  124.6986  111.8403  112.6524 H   0  0  0  0  0  0  0  0  0  0  0  0
  121.5671  107.7162  111.8508 H   0  0  0  0  0  0  0  0  0  0  0  0
  124.4670  109.8865  113.9425 H   0  0  0  0  0  0  0  0  0  0  0  0
  1  4  1  0  0  0  0
  1  5  1  0  0  0  0
  1  7  2  0  0  0  0
  2  4  1  0  0  0  0
  2  6  1  0  0  0  0
  2  8  2  0  0  0  0
  3  6  1  0  0  0  0
  5  6  1  0  0  0  0
  3  9  1  0  0  0  0
  3 10  1  0  0  0  0
  3 11  1  0  0  0  0
  4 12  1  0  0  0  0
  5 13  1  0  0  0  0
M  END
> <FRED Chemgauss4 score>
-6.232675

$$$$
C98209915	P156180136
  -OEChem-05122015313D

 22 22  0     1  0  0  0  0  0999 V2000
  125.1763  106.3046  106.6792 C   0  0  0  0  0  0  0  0  0  0  0  0
  123.7852  106.4336  106.0913 C   0  0  0  0  0  0  0  0  0  0  0  0
  124.3148  108.4691  107.1348 C   0  0  2  0  0  0  0  0  0  0  0  0
  125.6177  107.7525  106.7691 C   0  0  1  0  0  0  0  0  0  0  0  0
  124.0062  108.5657  108.6243 C   0  0  0  0  0  0  0  0  0  0  0  0
  126.7967  107.9789  107.7028 C   0  0  0  0  0  0  0  0  0  0  0  0
  126.6520  107.1792  108.8750 N   0  0  0  0  0  0  0  0  0  0  0  0
  123.2556  107.6911  106.5325 O   0  0  0  0  0  0  0  0  0  0  0  0
  125.9986  108.1950  105.4604 O   0  0  0  0  0  0  0  0  0  0  0  0
  125.1136  105.8510  107.6753 H   0  0  0  0  0  0  0  0  0  0  0  0
  125.8179  105.6794  106.0507 H   0  0  0  0  0  0  0  0  0  0  0  0
  123.8139  106.4491  104.9966 H   0  0  0  0  0  0  0  0  0  0  0  0
  123.1215  105.6240  106.4080 H   0  0  0  0  0  0  0  0  0  0  0  0
  124.2680  109.4708  106.6923 H   0  0  0  0  0  0  0  0  0  0  0  0
  124.0491  107.5759  109.0784 H   0  0  0  0  0  0  0  0  0  0  0  0
  123.0091  108.9801  108.7718 H   0  0  0  0  0  0  0  0  0  0  0  0
  124.7345  109.2120  109.1141 H   0  0  0  0  0  0  0  0  0  0  0  0
  126.8260  109.0243  107.9881 H   0  0  0  0  0  0  0  0  0  0  0  0
  127.7133  107.7014  107.1957 H   0  0  0  0  0  0  0  0  0  0  0  0
  125.7311  107.0273  109.2698 H   0  0  0  0  0  0  0  0  0  0  0  0
  127.4696  106.9369  109.4227 H   0  0  0  0  0  0  0  0  0  0  0  0
  126.7248  107.6188  105.1827 H   0  0  0  0  0  0  0  0  0  0  0  0
  1  2  1  0  0  0  0
  1  4  1  0  0  0  0
  2  8  1  0  0  0  0
  3  4  1  0  0  0  0
  3  5  1  0  0  0  0
  3  8  1  0  0  0  0
  4  6  1  0  0  0  0
  4  9  1  0  0  0  0
  6  7  1  0  0  0  0
  1 10  1  0  0  0  0
  1 11  1  0  0  0  0
  2 12  1  0  0  0  0
  2 13  1  0  0  0  0
  3 14  1  0  0  0  0
  5 15  1  0  0  0  0
  5 16  1  0  0  0  0
  5 17  1  0  0  0  0
  6 18  1  0  0  0  0
  6 19  1  0  0  0  0
  7 20  1  0  0  0  0
  7 21  1  0  0  0  0
  9 22  1  0  0  0  0
M  END
> <FRED Chemgauss4 score>
-6.227196

$$$$
C31992616	P138009250
  -OEChem-05122015313D

 20 20  0     1  0  0  0  0  0999 V2000
  125.7676  106.5626  108.3409 C   0  0  0  0  0  0  0  0  0  0  0  0
  124.3315  106.7641  106.5441 C   0  0  0  0  0  0  0  0  0  0  0  0
  125.9892  107.9548  107.8189 C   0  0  0  0  0  0  0  0  0  0  0  0
  125.1351  108.0379  106.5626 C   0  0  1  0  0  0  0  0  0  0  0  0
  125.0368  103.6230  107.0859 C   0  0  0  0  0  0  0  0  0  0  0  0
  124.2682  104.6445  107.8529 C   0  0  0  0  0  0  0  0  0  0  0  0
  124.7683  105.9806  107.5916 N   0  0  0  0  0  0  0  0  0  0  0  0
  125.9080  108.0550  105.3528 N   0  0  0  0  0  0  0  0  0  0  0  0
  126.3776  106.0800  109.2851 O   0  0  0  0  0  0  0  0  0  0  0  0
  123.5002  106.4810  105.6920 O   0  0  0  0  0  0  0  0  0  0  0  0
  125.6489  108.6734  108.5715 H   0  0  0  0  0  0  0  0  0  0  0  0
  127.0551  108.1202  107.6327 H   0  0  0  0  0  0  0  0  0  0  0  0
  124.4561  108.8923  106.6002 H   0  0  0  0  0  0  0  0  0  0  0  0
  124.9561  103.8012  106.0081 H   0  0  0  0  0  0  0  0  0  0  0  0
  126.0933  103.6312  107.3751 H   0  0  0  0  0  0  0  0  0  0  0  0
  124.6364  102.6235  107.2939 H   0  0  0  0  0  0  0  0  0  0  0  0
  124.3530  104.4606  108.9281 H   0  0  0  0  0  0  0  0  0  0  0  0
  123.2105  104.6242  107.5742 H   0  0  0  0  0  0  0  0  0  0  0  0
  126.7314  108.6193  105.3260 H   0  0  0  0  0  0  0  0  0  0  0  0
  125.4984  107.6747  104.5251 H   0  0  0  0  0  0  0  0  0  0  0  0
  1  3  1  0  0  0  0
  1  7  1  0  0  0  0
  1  9  2  0  0  0  0
  2  4  1  0  0  0  0
  2  7  1  0  0  0  0
  2 10  2  0  0  0  0
  3  4  1  0  0  0  0
  4  8  1  0  0  0  0
  5  6  1  0  0  0  0
  6  7  1  0  0  0  0
  3 11  1  0  0  0  0
  3 12  1  0  0  0  0
  4 13  1  0  0  0  0
  5 14  1  0  0  0  0
  5 15  1  0  0  0  0
  5 16  1  0  0  0  0
  6 17  1  0  0  0  0
  6 18  1  0  0  0  0
  8 19  1  0  0  0  0
  8 20  1  0  0  0  0
M  END
> <FRED Chemgauss4 score>
-6.218736

$$$$
C82836280	P129486360
  -OEChem-05122015313D

 17 17  0     1  0  0  0  0  0999 V2000
  126.5864  107.9741  106.8930 C   0  0  0  0  0  0  0  0  0  0  0  0
  124.6902  107.7165  106.0206 C   0  0  0  0  0  0  0  0  0  0  0  0
  126.1050  106.7567  107.3063 C   0  0  0  0  0  0  0  0  0  0  0  0
  125.6387  104.4869  108.3266 C   0  0  0  0  0  0  0  0  0  0  0  0
  126.6269  105.6490  108.1960 C   0  0  2  0  0  0  0  0  0  0  0  0
  125.6754  108.5843  106.0692 N   0  0  0  0  0  0  0  0  0  0  0  0
  126.9761  106.1581  109.5051 N   0  0  0  0  0  0  0  0  0  0  0  0
  124.8760  106.5799  106.7462 O   0  0  0  0  0  0  0  0  0  0  0  0
  126.1822  103.5054  109.2034 O   0  0  0  0  0  0  0  0  0  0  0  0
  127.5286  108.4404  107.1402 H   0  0  0  0  0  0  0  0  0  0  0  0
  123.7594  107.7955  105.4792 H   0  0  0  0  0  0  0  0  0  0  0  0
  124.6901  104.8264  108.7567 H   0  0  0  0  0  0  0  0  0  0  0  0
  125.4360  104.0109  107.3610 H   0  0  0  0  0  0  0  0  0  0  0  0
  127.5663  105.2608  107.7825 H   0  0  0  0  0  0  0  0  0  0  0  0
  127.3596  107.0822  109.5764 H   0  0  0  0  0  0  0  0  0  0  0  0
  127.0205  105.5169  110.2754 H   0  0  0  0  0  0  0  0  0  0  0  0
  125.5288  102.7904  109.2585 H   0  0  0  0  0  0  0  0  0  0  0  0
  1  3  2  0  0  0  0
  1  6  1  0  0  0  0
  2  6  2  0  0  0  0
  2  8  1  0  0  0  0
  3  5  1  0  0  0  0
  3  8  1  0  0  0  0
  4  5  1  0  0  0  0
  4  9  1  0  0  0  0
  5  7  1  0  0  0  0
  1 10  1  0  0  0  0
  2 11  1  0  0  0  0
  4 12  1  0  0  0  0
  4 13  1  0  0  0  0
  5 14  1  0  0  0  0
  7 15  1  0  0  0  0
  7 16  1  0  0  0  0
  9 17  1  0  0  0  0
M  END
> <FRED Chemgauss4 score>
-6.208158

$$$$
C12397092	P150528836
  -OEChem-05122015313D

 13 13  0     1  0  0  0  0  0999 V2000
  123.9693  107.3400  107.1827 C   0  0  0  0  0  0  0  0  0  0  0  0
  125.8838  108.4486  107.5774 C   0  0  0  0  0  0  0  0  0  0  0  0
  125.0400  107.3853  108.2077 C   0  0  2  0  0  0  0  0  0  0  0  0
  124.1629  108.1596  106.2033 N   0  0  0  0  0  0  0  0  0  0  0  0
  125.3797  108.8646  106.4513 N   0  0  0  0  0  0  0  0  0  0  0  0
  127.0258  108.8825  108.1868 N   0  0  0  0  0  0  0  0  0  0  0  0
  125.7512  106.1233  108.1878 N   0  0  0  0  0  0  0  0  0  0  0  0
  123.1027  106.6709  107.2729 H   0  0  0  0  0  0  0  0  0  0  0  0
  124.6598  107.6677  109.1906 H   0  0  0  0  0  0  0  0  0  0  0  0
  127.2842  108.4760  109.0588 H   0  0  0  0  0  0  0  0  0  0  0  0
  127.5643  109.5917  107.7399 H   0  0  0  0  0  0  0  0  0  0  0  0
  125.2226  105.2748  108.1131 H   0  0  0  0  0  0  0  0  0  0  0  0
  126.7185  106.1126  108.4509 H   0  0  0  0  0  0  0  0  0  0  0  0
  1  3  1  0  0  0  0
  1  4  2  0  0  0  0
  2  3  1  0  0  0  0
  2  5  2  0  0  0  0
  2  6  1  0  0  0  0
  3  7  1  0  0  0  0
  4  5  1  0  0  0  0
  1  8  1  0  0  0  0
  3  9  1  0  0  0  0
  6 10  1  0  0  0  0
  6 11  1  0  0  0  0
  7 12  1  0  0  0  0
  7 13  1  0  0  0  0
M  END
> <FRED Chemgauss4 score>
-6.207720

$$$$
C82916559	P129632711
  -OEChem-05122015313D

 21 20  0     1  0  0  0  0  0999 V2000
  125.0115  103.7804  107.2820 C   0  0  0  0  0  0  0  0  0  0  0  0
  124.7309  107.4553  107.0195 C   0  0  0  0  0  0  0  0  0  0  0  0
  124.8208  109.0905  108.9355 C   0  0  0  0  0  0  0  0  0  0  0  0
  125.0621  106.0273  106.5952 C   0  0  0  0  0  0  0  0  0  0  0  0
  125.4952  107.8843  108.2751 C   0  0  2  0  0  0  0  0  0  0  0  0
  124.7947  110.2302  108.0223 N   0  0  0  0  0  0  0  0  0  0  0  0
  126.8248  108.2354  107.8950 O   0  0  0  0  0  0  0  0  0  0  0  0
  124.7020  105.1226  107.6313 O   0  0  0  0  0  0  0  0  0  0  0  0
  124.7222  103.1146  108.0988 H   0  0  0  0  0  0  0  0  0  0  0  0
  126.0832  103.6914  107.0873 H   0  0  0  0  0  0  0  0  0  0  0  0
  124.4558  103.5105  106.3808 H   0  0  0  0  0  0  0  0  0  0  0  0
  123.6493  107.5224  107.1948 H   0  0  0  0  0  0  0  0  0  0  0  0
  124.9504  108.1365  106.1881 H   0  0  0  0  0  0  0  0  0  0  0  0
  123.7938  108.8438  109.2255 H   0  0  0  0  0  0  0  0  0  0  0  0
  125.3710  109.3859  109.8358 H   0  0  0  0  0  0  0  0  0  0  0  0
  124.5020  105.7494  105.6970 H   0  0  0  0  0  0  0  0  0  0  0  0
  126.1294  105.9035  106.3866 H   0  0  0  0  0  0  0  0  0  0  0  0
  125.5508  107.0415  108.9747 H   0  0  0  0  0  0  0  0  0  0  0  0
  124.7445  111.1448  108.4155 H   0  0  0  0  0  0  0  0  0  0  0  0
  124.6231  110.0529  107.0565 H   0  0  0  0  0  0  0  0  0  0  0  0
  127.2149  107.4426  107.4963 H   0  0  0  0  0  0  0  0  0  0  0  0
  1  8  1  0  0  0  0
  2  4  1  0  0  0  0
  2  5  1  0  0  0  0
  3  5  1  0  0  0  0
  3  6  1  0  0  0  0
  4  8  1  0  0  0  0
  5  7  1  0  0  0  0
  1  9  1  0  0  0  0
  1 10  1  0  0  0  0
  1 11  1  0  0  0  0
  2 12  1  0  0  0  0
  2 13  1  0  0  0  0
  3 14  1  0  0  0  0
  3 15  1  0  0  0  0
  4 16  1  0  0  0  0
  4 17  1  0  0  0  0
  5 18  1  0  0  0  0
  6 19  1  0  0  0  0
  6 20  1  0  0  0  0
  7 21  1  0  0  0  0
M  END
> <FRED Chemgauss4 score>
-6.174845

$$$$
C19504393	P28890989
  -OEChem-05122015313D

 18 17  0     0  0  0  0  0  0999 V2000
  125.6411  103.9827  107.4717 C   0  0  0  0  0  0  0  0  0  0  0  0
  124.6049  108.3839  108.3861 C   0  0  0  0  0  0  0  0  0  0  0  0
  125.5150  105.2061  108.2778 C   0  0  0  0  0  0  0  0  0  0  0  0
  124.7698  109.5614  109.3127 C   0  0  0  0  0  0  0  0  0  0  0  0
  125.8982  106.4522  107.4865 C   0  0  0  0  0  0  0  0  0  0  0  0
  125.7399  103.0161  106.8374 N   0  0  0  0  0  0  0  0  0  0  0  0
  123.5120  110.3201  109.3749 N   0  0  0  0  0  0  0  0  0  0  0  0
  125.7724  107.6390  108.3015 N   0  0  0  0  0  0  0  0  0  0  0  0
  123.5594  108.1322  107.7928 O   0  0  0  0  0  0  0  0  0  0  0  0
  126.1722  105.1243  109.1514 H   0  0  0  0  0  0  0  0  0  0  0  0
  124.4894  105.2952  108.6547 H   0  0  0  0  0  0  0  0  0  0  0  0
  125.0271  109.2079  110.3155 H   0  0  0  0  0  0  0  0  0  0  0  0
  125.5656  110.2151  108.9437 H   0  0  0  0  0  0  0  0  0  0  0  0
  126.9376  106.3689  107.1524 H   0  0  0  0  0  0  0  0  0  0  0  0
  125.2706  106.5566  106.5944 H   0  0  0  0  0  0  0  0  0  0  0  0
  123.5644  111.2751  109.6391 H   0  0  0  0  0  0  0  0  0  0  0  0
  122.6638  109.8053  109.3520 H   0  0  0  0  0  0  0  0  0  0  0  0
  126.5790  107.9430  108.8391 H   0  0  0  0  0  0  0  0  0  0  0  0
  1  3  1  0  0  0  0
  1  6  3  0  0  0  0
  2  4  1  0  0  0  0
  2  8  1  0  0  0  0
  2  9  2  0  0  0  0
  3  5  1  0  0  0  0
  4  7  1  0  0  0  0
  5  8  1  0  0  0  0
  3 10  1  0  0  0  0
  3 11  1  0  0  0  0
  4 12  1  0  0  0  0
  4 13  1  0  0  0  0
  5 14  1  0  0  0  0
  5 15  1  0  0  0  0
  7 16  1  0  0  0  0
  7 17  1  0  0  0  0
  8 18  1  0  0  0  0
M  END
> <FRED Chemgauss4 score>
-6.156949

$$$$
C37467081	P55708419
  -OEChem-05122015313D

 18 18  0     1  0  0  0  0  0999 V2000
  124.0621  109.1237  110.0133 C   0  0  0  0  0  0  0  0  0  0  0  0
  123.7855  107.7743  110.0172 C   0  0  0  0  0  0  0  0  0  0  0  0
  124.4324  109.0414  107.7582 C   0  0  0  0  0  0  0  0  0  0  0  0
  124.1565  107.6918  107.7621 C   0  0  0  0  0  0  0  0  0  0  0  0
  124.5933  105.4321  106.7156 C   0  0  0  0  0  0  0  0  0  0  0  0
  124.2131  106.9054  106.4991 C   0  0  2  0  0  0  0  0  0  0  0  0
  124.3905  109.7815  108.8837 N   0  0  0  0  0  0  0  0  0  0  0  0
  123.8278  107.0341  108.8916 N   0  0  0  0  0  0  0  0  0  0  0  0
  125.1092  107.5011  105.5211 N   0  0  0  0  0  0  0  0  0  0  0  0
  124.0281  109.7178  110.9182 H   0  0  0  0  0  0  0  0  0  0  0  0
  123.5216  107.2464  110.9252 H   0  0  0  0  0  0  0  0  0  0  0  0
  124.6970  109.5769  106.8540 H   0  0  0  0  0  0  0  0  0  0  0  0
  125.5684  105.3536  107.2088 H   0  0  0  0  0  0  0  0  0  0  0  0
  123.8547  104.9170  107.3401 H   0  0  0  0  0  0  0  0  0  0  0  0
  124.6495  104.8861  105.7672 H   0  0  0  0  0  0  0  0  0  0  0  0
  123.2263  106.9067  106.0012 H   0  0  0  0  0  0  0  0  0  0  0  0
  125.1580  108.4984  105.4665 H   0  0  0  0  0  0  0  0  0  0  0  0
  125.4892  106.9149  104.8056 H   0  0  0  0  0  0  0  0  0  0  0  0
  1  2  2  0  0  0  0
  1  7  1  0  0  0  0
  2  8  1  0  0  0  0
  3  4  1  0  0  0  0
  3  7  2  0  0  0  0
  4  6  1  0  0  0  0
  4  8  2  0  0  0  0
  5  6  1  0  0  0  0
  6  9  1  0  0  0  0
  1 10  1  0  0  0  0
  2 11  1  0  0  0  0
  3 12  1  0  0  0  0
  5 13  1  0  0  0  0
  5 14  1  0  0  0  0
  5 15  1  0  0  0  0
  6 16  1  0  0  0  0
  9 17  1  0  0  0  0
  9 18  1  0  0  0  0
M  END
> <FRED Chemgauss4 score>
-6.148162

$$$$
C40228782	P61083036
  -OEChem-05122015313D

 20 19  0     0  0  0  0  0  0999 V2000
  123.9413  104.5119  107.4188 C   0  0  0  0  0  0  0  0  0  0  0  0
  125.2865  104.6614  108.1057 C   0  0  0  0  0  0  0  0  0  0  0  0
  126.3292  108.1073  107.3467 C   0  0  0  0  0  0  0  0  0  0  0  0
  126.0666  106.6349  107.0958 C   0  0  0  0  0  0  0  0  0  0  0  0
  122.5497  104.1271  109.2583 N   0  0  0  0  0  0  0  0  0  0  0  0
  122.8805  105.0942  108.2722 N   0  0  0  0  0  0  0  0  0  0  0  0
  126.8433  108.6961  106.1583 O   0  0  0  0  0  0  0  0  0  0  0  0
  125.5723  106.0422  108.2889 O   0  0  0  0  0  0  0  0  0  0  0  0
  123.9285  105.0297  106.4545 H   0  0  0  0  0  0  0  0  0  0  0  0
  123.7099  103.4543  107.2607 H   0  0  0  0  0  0  0  0  0  0  0  0
  126.0762  104.2331  107.4805 H   0  0  0  0  0  0  0  0  0  0  0  0
  125.2969  104.1670  109.0825 H   0  0  0  0  0  0  0  0  0  0  0  0
  127.0671  108.2463  108.1427 H   0  0  0  0  0  0  0  0  0  0  0  0
  125.4008  108.6222  107.6104 H   0  0  0  0  0  0  0  0  0  0  0  0
  126.9856  106.1129  106.8114 H   0  0  0  0  0  0  0  0  0  0  0  0
  125.3133  106.5083  106.3127 H   0  0  0  0  0  0  0  0  0  0  0  0
  123.1949  103.3397  109.2004 H   0  0  0  0  0  0  0  0  0  0  0  0
  122.7056  104.5480  110.1734 H   0  0  0  0  0  0  0  0  0  0  0  0
  122.0771  105.2890  107.6894 H   0  0  0  0  0  0  0  0  0  0  0  0
  126.9984  109.6336  106.3560 H   0  0  0  0  0  0  0  0  0  0  0  0
  1  2  1  0  0  0  0
  1  6  1  0  0  0  0
  2  8  1  0  0  0  0
  3  4  1  0  0  0  0
  3  7  1  0  0  0  0
  4  8  1  0  0  0  0
  5  6  1  0  0  0  0
  1  9  1  0  0  0  0
  1 10  1  0  0  0  0
  2 11  1  0  0  0  0
  2 12  1  0  0  0  0
  3 13  1  0  0  0  0
  3 14  1  0  0  0  0
  4 15  1  0  0  0  0
  4 16  1  0  0  0  0
  5 17  1  0  0  0  0
  5 18  1  0  0  0  0
  6 19  1  0  0  0  0
  7 20  1  0  0  0  0
M  END
> <FRED Chemgauss4 score>
-6.127182

$$$$
C35803382	P53143861
  -OEChem-05122015313D

 17 16  0     0  0  0  0  0  0999 V2000
  123.7070  105.2703  106.7045 C   0  0  0  0  0  0  0  0  0  0  0  0
  125.1339  105.6169  106.7497 C   0  0  0  0  0  0  0  0  0  0  0  0
  125.6151  105.9000  108.1725 C   0  0  0  0  0  0  0  0  0  0  0  0
  124.8236  107.0098  108.8533 C   0  0  0  0  0  0  0  0  0  0  0  0
  122.5801  104.9966  106.6669 N   0  0  0  0  0  0  0  0  0  0  0  0
  124.5278  109.6247  109.2081 N   0  0  0  0  0  0  0  0  0  0  0  0
  126.3765  108.7364  107.6556 O   0  0  0  0  0  0  0  0  0  0  0  0
  123.9606  108.5609  106.9357 O   0  0  0  0  0  0  0  0  0  0  0  0
  124.9742  108.5343  107.9759 S   0  0  0  0  0  0  0  0  0  0  0  0
  125.7297  104.8118  106.3047 H   0  0  0  0  0  0  0  0  0  0  0  0
  125.3006  106.5104  106.1368 H   0  0  0  0  0  0  0  0  0  0  0  0
  126.6827  106.1548  108.1683 H   0  0  0  0  0  0  0  0  0  0  0  0
  125.5188  104.9801  108.7629 H   0  0  0  0  0  0  0  0  0  0  0  0
  125.1878  107.1920  109.8688 H   0  0  0  0  0  0  0  0  0  0  0  0
  123.7553  106.7793  108.8971 H   0  0  0  0  0  0  0  0  0  0  0  0
  125.2640  110.2155  109.6138 H   0  0  0  0  0  0  0  0  0  0  0  0
  123.6186  110.0957  109.1236 H   0  0  0  0  0  0  0  0  0  0  0  0
  1  2  1  0  0  0  0
  1  5  3  0  0  0  0
  2  3  1  0  0  0  0
  3  4  1  0  0  0  0
  4  9  1  0  0  0  0
  6  9  1  0  0  0  0
  7  9  2  0  0  0  0
  8  9  2  0  0  0  0
  2 10  1  0  0  0  0
  2 11  1  0  0  0  0
  3 12  1  0  0  0  0
  3 13  1  0  0  0  0
  4 14  1  0  0  0  0
  4 15  1  0  0  0  0
  6 16  1  0  0  0  0
  6 17  1  0  0  0  0
M  END
> <FRED Chemgauss4 score>
-6.109916

$$$$
C40366517	P61281379
  -OEChem-05122015313D

 21 20  0     1  0  0  0  0  0999 V2000
  125.3373  105.3958  108.3969 C   0  0  0  0  0  0  0  0  0  0  0  0
  122.9897  107.3321  108.3163 C   0  0  0  0  0  0  0  0  0  0  0  0
  127.4957  106.5203  107.6392 C   0  0  0  0  0  0  0  0  0  0  0  0
  125.9747  106.6301  107.7666 C   0  0  2  0  0  0  0  0  0  0  0  0
  128.1284  106.3289  108.9243 N   0  0  0  0  0  0  0  0  0  0  0  0
  125.6234  107.8058  108.5367 N   0  0  0  0  0  0  0  0  0  0  0  0
  124.1929  109.1025  106.8102 O   0  0  0  0  0  0  0  0  0  0  0  0
  123.8925  109.5879  109.2659 O   0  0  0  0  0  0  0  0  0  0  0  0
  124.1697  108.6563  108.1895 S   0  0  0  0  0  0  0  0  0  0  0  0
  125.7108  105.2148  109.4107 H   0  0  0  0  0  0  0  0  0  0  0  0
  124.2510  105.5193  108.4699 H   0  0  0  0  0  0  0  0  0  0  0  0
  125.5355  104.5038  107.7937 H   0  0  0  0  0  0  0  0  0  0  0  0
  121.9962  107.7357  108.1150 H   0  0  0  0  0  0  0  0  0  0  0  0
  123.2486  106.5687  107.5811 H   0  0  0  0  0  0  0  0  0  0  0  0
  123.0388  106.9228  109.3264 H   0  0  0  0  0  0  0  0  0  0  0  0
  127.9011  107.4300  107.1822 H   0  0  0  0  0  0  0  0  0  0  0  0
  127.7581  105.6819  106.9847 H   0  0  0  0  0  0  0  0  0  0  0  0
  125.5578  106.7505  106.7597 H   0  0  0  0  0  0  0  0  0  0  0  0
  127.7660  106.8218  109.7206 H   0  0  0  0  0  0  0  0  0  0  0  0
  129.0253  105.8786  108.9601 H   0  0  0  0  0  0  0  0  0  0  0  0
  125.8878  107.7724  109.5408 H   0  0  0  0  0  0  0  0  0  0  0  0
  1  4  1  0  0  0  0
  2  9  1  0  0  0  0
  3  4  1  0  0  0  0
  3  5  1  0  0  0  0
  4  6  1  0  0  0  0
  6  9  1  0  0  0  0
  7  9  2  0  0  0  0
  8  9  2  0  0  0  0
  1 10  1  0  0  0  0
  1 11  1  0  0  0  0
  1 12  1  0  0  0  0
  2 13  1  0  0  0  0
  2 14  1  0  0  0  0
  2 15  1  0  0  0  0
  3 16  1  0  0  0  0
  3 17  1  0  0  0  0
  4 18  1  0  0  0  0
  5 19  1  0  0  0  0
  5 20  1  0  0  0  0
  6 21  1  0  0  0  0
M  END
> <FRED Chemgauss4 score>
-6.105310

$$$$
C83267836	P130159078
  -OEChem-05122015313D

 19 19  0     1  0  0  0  0  0999 V2000
  124.0442  108.9335  108.7593 C   0  0  0  0  0  0  0  0  0  0  0  0
  124.3842  108.0107  106.9393 C   0  0  0  0  0  0  0  0  0  0  0  0
  124.1111  108.1456  111.1607 C   0  0  0  0  0  0  0  0  0  0  0  0
  123.8491  105.9200  105.9401 C   0  0  0  0  0  0  0  0  0  0  0  0
  123.5531  109.1671  110.1717 C   0  0  2  0  0  0  0  0  0  0  0  0
  123.7934  107.7750  108.0834 N   0  0  0  0  0  0  0  0  0  0  0  0
  124.7491  109.8534  108.0938 N   0  0  0  0  0  0  0  0  0  0  0  0
  122.1094  109.1928  110.2275 N   0  0  0  0  0  0  0  0  0  0  0  0
  124.9800  109.2294  106.8614 O   0  0  0  0  0  0  0  0  0  0  0  0
  124.4703  107.2252  105.8837 O   0  0  0  0  0  0  0  0  0  0  0  0
  123.8225  107.1266  110.8804 H   0  0  0  0  0  0  0  0  0  0  0  0
  125.2056  108.1936  111.1858 H   0  0  0  0  0  0  0  0  0  0  0  0
  123.7576  108.3281  112.1818 H   0  0  0  0  0  0  0  0  0  0  0  0
  124.0097  105.3980  104.9936 H   0  0  0  0  0  0  0  0  0  0  0  0
  122.7786  106.0328  106.1291 H   0  0  0  0  0  0  0  0  0  0  0  0
  124.3019  105.3456  106.7517 H   0  0  0  0  0  0  0  0  0  0  0  0
  123.8739  110.1621  110.5040 H   0  0  0  0  0  0  0  0  0  0  0  0
  121.6017  109.5829  109.4539 H   0  0  0  0  0  0  0  0  0  0  0  0
  121.6554  109.0142  111.1053 H   0  0  0  0  0  0  0  0  0  0  0  0
  1  5  1  0  0  0  0
  1  6  1  0  0  0  0
  1  7  2  0  0  0  0
  2  6  2  0  0  0  0
  2  9  1  0  0  0  0
  2 10  1  0  0  0  0
  3  5  1  0  0  0  0
  4 10  1  0  0  0  0
  5  8  1  0  0  0  0
  7  9  1  0  0  0  0
  3 11  1  0  0  0  0
  3 12  1  0  0  0  0
  3 13  1  0  0  0  0
  4 14  1  0  0  0  0
  4 15  1  0  0  0  0
  4 16  1  0  0  0  0
  5 17  1  0  0  0  0
  8 18  1  0  0  0  0
  8 19  1  0  0  0  0
M  END
> <FRED Chemgauss4 score>
-6.100659

$$$$
C36763891	P58578312
  -OEChem-05122015313D

 24 24  0     1  0  0  0  0  0999 V2000
  124.4311  109.3150  109.4226 C   0  0  0  0  0  0  0  0  0  0  0  0
  125.0641  107.9556  107.9975 C   0  0  0  0  0  0  0  0  0  0  0  0
  123.1340  108.7978  111.5303 C   0  0  0  0  0  0  0  0  0  0  0  0
  124.8561  106.9562  105.6929 C   0  0  0  0  0  0  0  0  0  0  0  0
  124.9139  105.4550  107.7173 C   0  0  0  0  0  0  0  0  0  0  0  0
  123.8038  109.8616  110.6310 C   0  0  2  0  0  0  0  0  0  0  0  0
  125.4035  106.7723  107.1105 C   0  0  0  0  0  0  0  0  0  0  0  0
  124.4052  107.9828  109.1283 N   0  0  0  0  0  0  0  0  0  0  0  0
  125.0642  110.0929  108.5395 N   0  0  0  0  0  0  0  0  0  0  0  0
  122.8279  110.9118  110.3423 N   0  0  0  0  0  0  0  0  0  0  0  0
  125.4933  109.1734  107.5741 O   0  0  0  0  0  0  0  0  0  0  0  0
  122.3793  108.2429  110.9622 H   0  0  0  0  0  0  0  0  0  0  0  0
  123.8586  108.0772  111.9260 H   0  0  0  0  0  0  0  0  0  0  0  0
  122.6370  109.2598  112.3907 H   0  0  0  0  0  0  0  0  0  0  0  0
  123.7637  107.0372  105.6825 H   0  0  0  0  0  0  0  0  0  0  0  0
  125.1322  106.1053  105.0605 H   0  0  0  0  0  0  0  0  0  0  0  0
  125.2624  107.8629  105.2310 H   0  0  0  0  0  0  0  0  0  0  0  0
  123.8240  105.4572  107.8303 H   0  0  0  0  0  0  0  0  0  0  0  0
  125.3533  105.3017  108.7090 H   0  0  0  0  0  0  0  0  0  0  0  0
  125.1838  104.5928  107.0977 H   0  0  0  0  0  0  0  0  0  0  0  0
  124.5494  110.3748  111.2787 H   0  0  0  0  0  0  0  0  0  0  0  0
  126.4961  106.7008  107.0265 H   0  0  0  0  0  0  0  0  0  0  0  0
  123.0277  111.5434  109.5986 H   0  0  0  0  0  0  0  0  0  0  0  0
  122.1137  111.0832  111.0152 H   0  0  0  0  0  0  0  0  0  0  0  0
  1  6  1  0  0  0  0
  1  8  1  0  0  0  0
  1  9  2  0  0  0  0
  2  7  1  0  0  0  0
  2  8  2  0  0  0  0
  2 11  1  0  0  0  0
  3  6  1  0  0  0  0
  4  7  1  0  0  0  0
  5  7  1  0  0  0  0
  6 10  1  0  0  0  0
  9 11  1  0  0  0  0
  3 12  1  0  0  0  0
  3 13  1  0  0  0  0
  3 14  1  0  0  0  0
  4 15  1  0  0  0  0
  4 16  1  0  0  0  0
  4 17  1  0  0  0  0
  5 18  1  0  0  0  0
  5 19  1  0  0  0  0
  5 20  1  0  0  0  0
  6 21  1  0  0  0  0
  7 22  1  0  0  0  0
 10 23  1  0  0  0  0
 10 24  1  0  0  0  0
M  END
> <FRED Chemgauss4 score>
-6.098770

$$$$
C95630366	P150376101
  -OEChem-05122015313D

 25 24  0     1  0  0  0  0  0999 V2000
  124.5994  109.4229  108.1860 C   0  0  0  0  0  0  0  0  0  0  0  0
  121.2144  104.8158  106.3965 C   0  0  0  0  0  0  0  0  0  0  0  0
  122.7217  104.6937  106.2672 C   0  0  0  0  0  0  0  0  0  0  0  0
  124.7347  104.7241  107.4796 C   0  0  0  0  0  0  0  0  0  0  0  0
  125.3074  106.0408  106.9915 C   0  0  0  0  0  0  0  0  0  0  0  0
  125.4313  108.3512  107.4979 C   0  0  1  0  0  0  0  0  0  0  0  0
  120.7009  103.7311  107.2641 N   0  0  0  0  0  0  0  0  0  0  0  0
  126.8052  108.5181  107.8348 O   0  0  0  0  0  0  0  0  0  0  0  0
  123.3180  104.8316  107.5494 O   0  0  0  0  0  0  0  0  0  0  0  0
  124.9275  107.0737  107.8912 O   0  0  0  0  0  0  0  0  0  0  0  0
  124.6769  109.3379  109.2746 H   0  0  0  0  0  0  0  0  0  0  0  0
  124.9529  110.4233  107.9122 H   0  0  0  0  0  0  0  0  0  0  0  0
  123.5480  109.3527  107.8905 H   0  0  0  0  0  0  0  0  0  0  0  0
  120.9306  105.7746  106.8419 H   0  0  0  0  0  0  0  0  0  0  0  0
  120.7391  104.7218  105.4155 H   0  0  0  0  0  0  0  0  0  0  0  0
  123.1088  105.4925  105.6269 H   0  0  0  0  0  0  0  0  0  0  0  0
  123.0125  103.7259  105.8458 H   0  0  0  0  0  0  0  0  0  0  0  0
  125.1074  104.4779  108.4785 H   0  0  0  0  0  0  0  0  0  0  0  0
  124.9832  103.9173  106.7840 H   0  0  0  0  0  0  0  0  0  0  0  0
  124.9226  106.2949  105.9989 H   0  0  0  0  0  0  0  0  0  0  0  0
  126.4000  105.9960  106.9629 H   0  0  0  0  0  0  0  0  0  0  0  0
  125.3313  108.4650  106.4124 H   0  0  0  0  0  0  0  0  0  0  0  0
  119.7592  103.4626  107.1367 H   0  0  0  0  0  0  0  0  0  0  0  0
  121.2520  103.4825  108.0450 H   0  0  0  0  0  0  0  0  0  0  0  0
  127.0870  109.3990  107.5363 H   0  0  0  0  0  0  0  0  0  0  0  0
  1  6  1  0  0  0  0
  2  3  1  0  0  0  0
  2  7  1  0  0  0  0
  3  9  1  0  0  0  0
  4  5  1  0  0  0  0
  4  9  1  0  0  0  0
  5 10  1  0  0  0  0
  6  8  1  0  0  0  0
  6 10  1  0  0  0  0
  1 11  1  0  0  0  0
  1 12  1  0  0  0  0
  1 13  1  0  0  0  0
  2 14  1  0  0  0  0
  2 15  1  0  0  0  0
  3 16  1  0  0  0  0
  3 17  1  0  0  0  0
  4 18  1  0  0  0  0
  4 19  1  0  0  0  0
  5 20  1  0  0  0  0
  5 21  1  0  0  0  0
  6 22  1  0  0  0  0
  7 23  1  0  0  0  0
  7 24  1  0  0  0  0
  8 25  1  0  0  0  0
M  END
> <FRED Chemgauss4 score>
-6.075358

$$$$
C83755710	P131045930
  -OEChem-05122015313D

 20 20  0     0  0  0  0  0  0999 V2000
  123.7133  108.0065  109.7863 C   0  0  0  0  0  0  0  0  0  0  0  0
  125.0301  108.3870  108.2119 C   0  0  0  0  0  0  0  0  0  0  0  0
  123.5153  111.9865  112.1974 C   0  0  0  0  0  0  0  0  0  0  0  0
  125.9671  108.2916  107.0960 C   0  0  0  0  0  0  0  0  0  0  0  0
  123.0840  110.3852  110.5343 C   0  0  0  0  0  0  0  0  0  0  0  0
  124.4927  107.3781  108.8576 N   0  0  0  0  0  0  0  0  0  0  0  0
  124.5842  109.5582  108.7403 N   0  0  0  0  0  0  0  0  0  0  0  0
  123.7347  109.3407  109.7558 N   0  0  0  0  0  0  0  0  0  0  0  0
  125.3636  108.5837  105.8068 N   0  0  0  0  0  0  0  0  0  0  0  0
  124.0575  110.9331  111.4126 O   0  0  0  0  0  0  0  0  0  0  0  0
  123.1169  107.4540  110.5015 H   0  0  0  0  0  0  0  0  0  0  0  0
  124.2885  112.3838  112.8595 H   0  0  0  0  0  0  0  0  0  0  0  0
  122.6756  111.6084  112.7860 H   0  0  0  0  0  0  0  0  0  0  0  0
  123.1643  112.7800  111.5334 H   0  0  0  0  0  0  0  0  0  0  0  0
  126.8251  108.9895  107.1977 H   0  0  0  0  0  0  0  0  0  0  0  0
  126.4227  107.2838  106.9966 H   0  0  0  0  0  0  0  0  0  0  0  0
  122.6991  111.1461  109.8462 H   0  0  0  0  0  0  0  0  0  0  0  0
  122.2540  109.9394  111.0938 H   0  0  0  0  0  0  0  0  0  0  0  0
  125.7596  108.1642  104.9895 H   0  0  0  0  0  0  0  0  0  0  0  0
  124.7126  109.3410  105.7463 H   0  0  0  0  0  0  0  0  0  0  0  0
  1  6  2  0  0  0  0
  1  8  1  0  0  0  0
  2  4  1  0  0  0  0
  2  6  1  0  0  0  0
  2  7  2  0  0  0  0
  3 10  1  0  0  0  0
  4  9  1  0  0  0  0
  5  8  1  0  0  0  0
  5 10  1  0  0  0  0
  7  8  1  0  0  0  0
  1 11  1  0  0  0  0
  3 12  1  0  0  0  0
  3 13  1  0  0  0  0
  3 14  1  0  0  0  0
  4 15  1  0  0  0  0
  4 16  1  0  0  0  0
  5 17  1  0  0  0  0
  5 18  1  0  0  0  0
  9 19  1  0  0  0  0
  9 20  1  0  0  0  0
M  END
> <FRED Chemgauss4 score>
-6.057894

$$$$
C95743897	P150595306
  -OEChem-05122015313D

 13 13  0     0  0  0  0  0  0999 V2000
  124.1572  104.7129  107.3879 C   0  0  0  0  0  0  0  0  0  0  0  0
  124.8103  106.4795  108.3011 C   0  0  0  0  0  0  0  0  0  0  0  0
  124.7862  107.8637  108.8212 C   0  0  0  0  0  0  0  0  0  0  0  0
  125.5646  104.4830  107.8160 C   0  0  0  0  0  0  0  0  0  0  0  0
  123.7371  105.8907  107.6833 N   0  0  0  0  0  0  0  0  0  0  0  0
  125.8970  105.7782  108.4321 N   0  0  0  0  0  0  0  0  0  0  0  0
  124.3699  107.9412  110.1236 N   0  0  0  0  0  0  0  0  0  0  0  0
  125.2115  109.2196  107.9472 S   0  0  0  0  0  0  0  0  0  0  0  0
  123.5729  103.9362  106.8775 H   0  0  0  0  0  0  0  0  0  0  0  0
  125.6160  103.6660  108.5395 H   0  0  0  0  0  0  0  0  0  0  0  0
  126.1972  104.2731  106.9500 H   0  0  0  0  0  0  0  0  0  0  0  0
  124.1154  107.1023  110.6348 H   0  0  0  0  0  0  0  0  0  0  0  0
  124.2969  108.8176  110.6310 H   0  0  0  0  0  0  0  0  0  0  0  0
  1  4  1  0  0  0  0
  1  5  2  0  0  0  0
  2  3  1  0  0  0  0
  2  5  1  0  0  0  0
  2  6  2  0  0  0  0
  3  7  1  0  0  0  0
  3  8  2  0  0  0  0
  4  6  1  0  0  0  0
  1  9  1  0  0  0  0
  4 10  1  0  0  0  0
  4 11  1  0  0  0  0
  7 12  1  0  0  0  0
  7 13  1  0  0  0  0
M  END
> <FRED Chemgauss4 score>
-6.020624

$$$$
C97509079	P154480388
  -OEChem-05122015313D

 20 19  0     1  0  0  0  0  0999 V2000
  124.1546  104.7336  107.2619 C   0  0  0  0  0  0  0  0  0  0  0  0
  125.2454  105.4024  106.8700 C   0  0  0  0  0  0  0  0  0  0  0  0
  124.2166  108.6324  109.5011 C   0  0  0  0  0  0  0  0  0  0  0  0
  125.7564  107.4957  108.1374 C   0  0  0  0  0  0  0  0  0  0  0  0
  126.2006  106.0702  107.8160 C   0  0  1  0  0  0  0  0  0  0  0  0
  127.4595  105.6062  109.7307 N   0  0  0  0  0  0  0  0  0  0  0  0
  126.2678  105.2663  109.0139 N   0  0  0  0  0  0  0  0  0  0  0  0
  124.4672  107.4595  108.7404 O   0  0  0  0  0  0  0  0  0  0  0  0
  123.4888  104.2645  106.5460 H   0  0  0  0  0  0  0  0  0  0  0  0
  123.9127  104.6469  108.3155 H   0  0  0  0  0  0  0  0  0  0  0  0
  125.4589  105.4638  105.8051 H   0  0  0  0  0  0  0  0  0  0  0  0
  123.2216  108.5717  109.9486 H   0  0  0  0  0  0  0  0  0  0  0  0
  124.2832  109.5096  108.8526 H   0  0  0  0  0  0  0  0  0  0  0  0
  124.9656  108.7094  110.2929 H   0  0  0  0  0  0  0  0  0  0  0  0
  125.7005  108.1177  107.2370 H   0  0  0  0  0  0  0  0  0  0  0  0
  126.4424  107.9677  108.8494 H   0  0  0  0  0  0  0  0  0  0  0  0
  127.2189  106.0857  107.4094 H   0  0  0  0  0  0  0  0  0  0  0  0
  128.0635  104.7867  109.7884 H   0  0  0  0  0  0  0  0  0  0  0  0
  127.9835  106.3014  109.2006 H   0  0  0  0  0  0  0  0  0  0  0  0
  125.4602  105.4575  109.6129 H   0  0  0  0  0  0  0  0  0  0  0  0
  1  2  2  0  0  0  0
  2  5  1  0  0  0  0
  3  8  1  0  0  0  0
  4  5  1  0  0  0  0
  4  8  1  0  0  0  0
  5  7  1  0  0  0  0
  6  7  1  0  0  0  0
  1  9  1  0  0  0  0
  1 10  1  0  0  0  0
  2 11  1  0  0  0  0
  3 12  1  0  0  0  0
  3 13  1  0  0  0  0
  3 14  1  0  0  0  0
  4 15  1  0  0  0  0
  4 16  1  0  0  0  0
  5 17  1  0  0  0  0
  6 18  1  0  0  0  0
  6 19  1  0  0  0  0
  7 20  1  0  0  0  0
M  END
> <FRED Chemgauss4 score>
-6.018682

$$$$
C83651566	P130859537
  -OEChem-05122015313D

 17 17  0     0  0  0  0  0  0999 V2000
  122.8814  106.5209  105.6969 C   0  0  0  0  0  0  0  0  0  0  0  0
  121.4114  104.9505  106.0260 C   0  0  0  0  0  0  0  0  0  0  0  0
  118.2913  104.0418  106.6873 C   0  0  0  0  0  0  0  0  0  0  0  0
  119.4743  103.3780  106.0028 C   0  0  0  0  0  0  0  0  0  0  0  0
  122.5592  105.4164  106.4672 N   0  0  0  0  0  0  0  0  0  0  0  0
  122.0756  106.9276  104.7161 N   0  0  0  0  0  0  0  0  0  0  0  0
  117.0329  103.5606  106.1837 N   0  0  0  0  0  0  0  0  0  0  0  0
  120.7301  103.8468  106.5231 N   0  0  0  0  0  0  0  0  0  0  0  0
  120.7842  105.8631  104.7152 S   0  0  0  0  0  0  0  0  0  0  0  0
  123.7943  107.0687  105.8839 H   0  0  0  0  0  0  0  0  0  0  0  0
  118.3061  105.1273  106.5468 H   0  0  0  0  0  0  0  0  0  0  0  0
  118.3101  103.8291  107.7607 H   0  0  0  0  0  0  0  0  0  0  0  0
  119.4450  102.2956  106.1610 H   0  0  0  0  0  0  0  0  0  0  0  0
  119.4717  103.5715  104.9253 H   0  0  0  0  0  0  0  0  0  0  0  0
  116.9337  103.3852  105.1966 H   0  0  0  0  0  0  0  0  0  0  0  0
  116.2194  103.5994  106.7770 H   0  0  0  0  0  0  0  0  0  0  0  0
  121.1482  103.3447  107.3021 H   0  0  0  0  0  0  0  0  0  0  0  0
  1  5  1  0  0  0  0
  1  6  2  0  0  0  0
  2  5  2  0  0  0  0
  2  8  1  0  0  0  0
  2  9  1  0  0  0  0
  3  4  1  0  0  0  0
  3  7  1  0  0  0  0
  4  8  1  0  0  0  0
  6  9  1  0  0  0  0
  1 10  1  0  0  0  0
  3 11  1  0  0  0  0
  3 12  1  0  0  0  0
  4 13  1  0  0  0  0
  4 14  1  0  0  0  0
  7 15  1  0  0  0  0
  7 16  1  0  0  0  0
  8 17  1  0  0  0  0
M  END
> <FRED Chemgauss4 score>
-6.017746

$$$$
C31992616	P86628678
  -OEChem-05122015313D

 20 20  0     1  0  0  0  0  0999 V2000
  124.6037  105.7121  107.4121 C   0  0  0  0  0  0  0  0  0  0  0  0
  125.1989  107.6530  106.3122 C   0  0  0  0  0  0  0  0  0  0  0  0
  125.9993  106.0142  107.8822 C   0  0  0  0  0  0  0  0  0  0  0  0
  126.3410  107.3540  107.2474 C   0  0  2  0  0  0  0  0  0  0  0  0
  121.9538  107.4351  106.5310 C   0  0  0  0  0  0  0  0  0  0  0  0
  122.9808  106.6552  105.7830 C   0  0  0  0  0  0  0  0  0  0  0  0
  124.2532  106.6631  106.4788 N   0  0  0  0  0  0  0  0  0  0  0  0
  126.3933  108.4322  108.1939 N   0  0  0  0  0  0  0  0  0  0  0  0
  123.9403  104.7622  107.8046 O   0  0  0  0  0  0  0  0  0  0  0  0
  125.1266  108.6454  105.5999 O   0  0  0  0  0  0  0  0  0  0  0  0
  126.0317  106.0279  108.9763 H   0  0  0  0  0  0  0  0  0  0  0  0
  126.6716  105.2288  107.5206 H   0  0  0  0  0  0  0  0  0  0  0  0
  127.2745  107.2907  106.6737 H   0  0  0  0  0  0  0  0  0  0  0  0
  121.7886  107.0095  107.5268 H   0  0  0  0  0  0  0  0  0  0  0  0
  122.2565  108.4830  106.6320 H   0  0  0  0  0  0  0  0  0  0  0  0
  121.0004  107.4086  105.9899 H   0  0  0  0  0  0  0  0  0  0  0  0
  123.1408  107.0855  104.7898 H   0  0  0  0  0  0  0  0  0  0  0  0
  122.6696  105.6126  105.6693 H   0  0  0  0  0  0  0  0  0  0  0  0
  126.1740  109.3530  107.8749 H   0  0  0  0  0  0  0  0  0  0  0  0
  126.8372  108.2682  109.0737 H   0  0  0  0  0  0  0  0  0  0  0  0
  1  3  1  0  0  0  0
  1  7  1  0  0  0  0
  1  9  2  0  0  0  0
  2  4  1  0  0  0  0
  2  7  1  0  0  0  0
  2 10  2  0  0  0  0
  3  4  1  0  0  0  0
  4  8  1  0  0  0  0
  5  6  1  0  0  0  0
  6  7  1  0  0  0  0
  3 11  1  0  0  0  0
  3 12  1  0  0  0  0
  4 13  1  0  0  0  0
  5 14  1  0  0  0  0
  5 15  1  0  0  0  0
  5 16  1  0  0  0  0
  6 17  1  0  0  0  0
  6 18  1  0  0  0  0
  8 19  1  0  0  0  0
  8 20  1  0  0  0  0
M  END
> <FRED Chemgauss4 score>
-5.996064

$$$$
C96034658	P151250495
  -OEChem-05122015313D

 17 17  0     1  0  0  0  0  0999 V2000
  125.6517  106.5354  107.6835 C   0  0  0  0  0  0  0  0  0  0  0  0
  124.7923  105.9112  106.5618 C   0  0  0  0  0  0  0  0  0  0  0  0
  124.6068  107.6572  107.9325 C   0  0  1  0  0  0  0  0  0  0  0  0
  125.1572  109.0017  108.3618 C   0  0  0  0  0  0  0  0  0  0  0  0
  124.0925  109.9359  108.5455 N   0  0  0  0  0  0  0  0  0  0  0  0
  124.8948  108.2758  105.3312 O   0  0  0  0  0  0  0  0  0  0  0  0
  122.6354  107.4230  106.1373 O   0  0  0  0  0  0  0  0  0  0  0  0
  124.0771  107.4979  106.2379 S   0  0  0  0  0  0  0  0  0  0  0  0
  125.8351  105.8788  108.5396 H   0  0  0  0  0  0  0  0  0  0  0  0
  126.6245  106.8993  107.3284 H   0  0  0  0  0  0  0  0  0  0  0  0
  125.3523  105.4945  105.7212 H   0  0  0  0  0  0  0  0  0  0  0  0
  124.0498  105.1844  106.9060 H   0  0  0  0  0  0  0  0  0  0  0  0
  123.8020  107.3363  108.6076 H   0  0  0  0  0  0  0  0  0  0  0  0
  125.8255  109.3784  107.5932 H   0  0  0  0  0  0  0  0  0  0  0  0
  125.6932  108.8929  109.2997 H   0  0  0  0  0  0  0  0  0  0  0  0
  123.2911  109.9102  107.9273 H   0  0  0  0  0  0  0  0  0  0  0  0
  124.2283  110.7382  109.1479 H   0  0  0  0  0  0  0  0  0  0  0  0
  1  2  1  0  0  0  0
  1  3  1  0  0  0  0
  2  8  1  0  0  0  0
  3  4  1  0  0  0  0
  3  8  1  0  0  0  0
  4  5  1  0  0  0  0
  6  8  2  0  0  0  0
  7  8  2  0  0  0  0
  1  9  1  0  0  0  0
  1 10  1  0  0  0  0
  2 11  1  0  0  0  0
  2 12  1  0  0  0  0
  3 13  1  0  0  0  0
  4 14  1  0  0  0  0
  4 15  1  0  0  0  0
  5 16  1  0  0  0  0
  5 17  1  0  0  0  0
M  END
> <FRED Chemgauss4 score>
-5.969954

$$$$
C04775726	P07275946
  -OEChem-05122015313D

 12 11  0     0  0  0  0  0  0999 V2000
  124.5929  108.5563  108.8722 C   0  0  0  0  0  0  0  0  0  0  0  0
  125.0382  107.1608  108.5656 C   0  0  0  0  0  0  0  0  0  0  0  0
  123.7740  108.6208  109.9615 N   0  0  0  0  0  0  0  0  0  0  0  0
  126.2105  106.8343  109.1823 N   0  0  0  0  0  0  0  0  0  0  0  0
  124.9798  109.4561  108.1440 O   0  0  0  0  0  0  0  0  0  0  0  0
  124.3458  106.4876  107.8193 O   0  0  0  0  0  0  0  0  0  0  0  0
  123.3069  109.8976  110.2983 O   0  0  0  0  0  0  0  0  0  0  0  0
  126.6947  105.5447  108.9276 O   0  0  0  0  0  0  0  0  0  0  0  0
  123.5196  107.7964  110.4937 H   0  0  0  0  0  0  0  0  0  0  0  0
  126.7004  107.4840  109.7867 H   0  0  0  0  0  0  0  0  0  0  0  0
  123.7330  110.4262  109.6025 H   0  0  0  0  0  0  0  0  0  0  0  0
  126.0007  105.2148  108.3318 H   0  0  0  0  0  0  0  0  0  0  0  0
  1  2  1  0  0  0  0
  1  3  1  0  0  0  0
  1  5  2  0  0  0  0
  2  4  1  0  0  0  0
  2  6  2  0  0  0  0
  3  7  1  0  0  0  0
  4  8  1  0  0  0  0
  3  9  1  0  0  0  0
  4 10  1  0  0  0  0
  7 11  1  0  0  0  0
  8 12  1  0  0  0  0
M  END
> <FRED Chemgauss4 score>
-5.943260

$$$$
C39373033	P91080712
  -OEChem-05122015313D

 12 12  0     1  0  0  0  0  0999 V2000
  126.2642  107.4428  107.3034 C   0  0  0  0  0  0  0  0  0  0  0  0
  126.0309  105.6264  108.3199 C   0  0  0  0  0  0  0  0  0  0  0  0
  125.8300  106.0397  106.8455 C   0  0  1  0  0  0  0  0  0  0  0  0
  126.4717  106.9926  108.5702 N   0  0  0  0  0  0  0  0  0  0  0  0
  124.4121  105.9673  106.5069 N   0  0  0  0  0  0  0  0  0  0  0  0
  126.3886  108.5335  106.7960 O   0  0  0  0  0  0  0  0  0  0  0  0
  125.1448  105.3591  108.9031 H   0  0  0  0  0  0  0  0  0  0  0  0
  126.8253  104.8945  108.4916 H   0  0  0  0  0  0  0  0  0  0  0  0
  126.5070  105.5772  106.1226 H   0  0  0  0  0  0  0  0  0  0  0  0
  126.7702  107.4885  109.3988 H   0  0  0  0  0  0  0  0  0  0  0  0
  123.9157  105.1339  106.7384 H   0  0  0  0  0  0  0  0  0  0  0  0
  124.0422  106.6533  105.8846 H   0  0  0  0  0  0  0  0  0  0  0  0
  1  3  1  0  0  0  0
  1  4  1  0  0  0  0
  1  6  2  0  0  0  0
  2  3  1  0  0  0  0
  2  4  1  0  0  0  0
  3  5  1  0  0  0  0
  2  7  1  0  0  0  0
  2  8  1  0  0  0  0
  3  9  1  0  0  0  0
  4 10  1  0  0  0  0
  5 11  1  0  0  0  0
  5 12  1  0  0  0  0
M  END
> <FRED Chemgauss4 score>
-5.925089

$$$$
C96034659	P151250496
  -OEChem-05122015313D

 17 17  0     1  0  0  0  0  0999 V2000
  126.3128  106.9218  107.4823 C   0  0  0  0  0  0  0  0  0  0  0  0
  125.2325  106.2431  106.6145 C   0  0  0  0  0  0  0  0  0  0  0  0
  125.4933  108.2352  107.6017 C   0  0  2  0  0  0  0  0  0  0  0  0
  124.6274  108.3646  108.8444 C   0  0  0  0  0  0  0  0  0  0  0  0
  123.9364  109.6146  108.8375 N   0  0  0  0  0  0  0  0  0  0  0  0
  125.4055  108.3003  104.9275 O   0  0  0  0  0  0  0  0  0  0  0  0
  123.2255  107.9457  106.1904 O   0  0  0  0  0  0  0  0  0  0  0  0
  124.6636  107.8293  106.0783 S   0  0  0  0  0  0  0  0  0  0  0  0
  126.4810  106.4089  108.4413 H   0  0  0  0  0  0  0  0  0  0  0  0
  127.2904  107.0316  106.9961 H   0  0  0  0  0  0  0  0  0  0  0  0
  125.6229  105.6398  105.7866 H   0  0  0  0  0  0  0  0  0  0  0  0
  124.4856  105.6633  107.1659 H   0  0  0  0  0  0  0  0  0  0  0  0
  126.1106  109.1303  107.4691 H   0  0  0  0  0  0  0  0  0  0  0  0
  125.2572  108.3169  109.7277 H   0  0  0  0  0  0  0  0  0  0  0  0
  123.8975  107.5611  108.8645 H   0  0  0  0  0  0  0  0  0  0  0  0
  124.3970  110.4398  108.4743 H   0  0  0  0  0  0  0  0  0  0  0  0
  123.0830  109.7182  109.3722 H   0  0  0  0  0  0  0  0  0  0  0  0
  1  2  1  0  0  0  0
  1  3  1  0  0  0  0
  2  8  1  0  0  0  0
  3  4  1  0  0  0  0
  3  8  1  0  0  0  0
  4  5  1  0  0  0  0
  6  8  2  0  0  0  0
  7  8  2  0  0  0  0
  1  9  1  0  0  0  0
  1 10  1  0  0  0  0
  2 11  1  0  0  0  0
  2 12  1  0  0  0  0
  3 13  1  0  0  0  0
  4 14  1  0  0  0  0
  4 15  1  0  0  0  0
  5 16  1  0  0  0  0
  5 17  1  0  0  0  0
M  END
> <FRED Chemgauss4 score>
-5.903593

$$$$
C95748845	P150602305
  -OEChem-05122015313D

 12 12  0     1  0  0  0  0  0999 V2000
  124.1362  105.9590  108.2068 C   0  0  0  0  0  0  0  0  0  0  0  0
  125.5665  107.9010  107.5666 C   0  0  0  0  0  0  0  0  0  0  0  0
  125.4801  106.5574  108.1915 C   0  0  2  0  0  0  0  0  0  0  0  0
  124.0575  104.9045  107.4805 N   0  0  0  0  0  0  0  0  0  0  0  0
  126.1433  105.6124  107.2974 N   0  0  0  0  0  0  0  0  0  0  0  0
  125.3401  104.7165  106.9255 N   0  0  0  0  0  0  0  0  0  0  0  0
  124.9357  108.9092  108.2417 N   0  0  0  0  0  0  0  0  0  0  0  0
  126.3797  108.1563  106.1301 S   0  0  0  0  0  0  0  0  0  0  0  0
  123.3121  106.3876  108.7925 H   0  0  0  0  0  0  0  0  0  0  0  0
  125.9241  106.5619  109.1889 H   0  0  0  0  0  0  0  0  0  0  0  0
  124.4461  108.7283  109.1118 H   0  0  0  0  0  0  0  0  0  0  0  0
  124.9286  109.8679  107.9086 H   0  0  0  0  0  0  0  0  0  0  0  0
  1  3  1  0  0  0  0
  1  4  2  0  0  0  0
  2  3  1  0  0  0  0
  2  7  1  0  0  0  0
  2  8  2  0  0  0  0
  3  5  1  0  0  0  0
  4  6  1  0  0  0  0
  5  6  2  0  0  0  0
  1  9  1  0  0  0  0
  3 10  1  0  0  0  0
  7 11  1  0  0  0  0
  7 12  1  0  0  0  0
M  END
> <FRED Chemgauss4 score>
-5.900903

$$$$
C86655371	P135660828
  -OEChem-05122015313D

 24 24  0     1  0  0  0  0  0999 V2000
  124.0938  109.3853  109.8697 C   0  0  0  0  0  0  0  0  0  0  0  0
  126.4288  106.9078  107.4531 C   0  0  0  0  0  0  0  0  0  0  0  0
  124.6555  107.1197  109.0683 C   0  0  0  0  0  0  0  0  0  0  0  0
  126.2718  108.3898  107.1277 C   0  0  0  0  0  0  0  0  0  0  0  0
  124.5328  108.6048  108.7051 C   0  0  2  0  0  0  0  0  0  0  0  0
  125.2722  104.9405  108.2334 C   0  0  0  0  0  0  0  0  0  0  0  0
  125.1709  104.0581  107.0006 C   0  0  0  0  0  0  0  0  0  0  0  0
  123.7472  110.0017  110.7895 N   0  0  0  0  0  0  0  0  0  0  0  0
  125.1440  106.3596  107.9078 N   0  0  2  0  0  0  0  0  0  0  0  0
  125.2772  102.6619  107.3274 N   0  0  0  0  0  0  0  0  0  0  0  0
  125.8025  109.1033  108.2723 O   0  0  0  0  0  0  0  0  0  0  0  0
  126.7705  106.3814  106.5546 H   0  0  0  0  0  0  0  0  0  0  0  0
  127.1929  106.7838  108.2315 H   0  0  0  0  0  0  0  0  0  0  0  0
  125.3431  106.9947  109.9169 H   0  0  0  0  0  0  0  0  0  0  0  0
  123.6747  106.7385  109.3798 H   0  0  0  0  0  0  0  0  0  0  0  0
  127.2410  108.8138  106.8463 H   0  0  0  0  0  0  0  0  0  0  0  0
  125.5840  108.5496  106.2883 H   0  0  0  0  0  0  0  0  0  0  0  0
  123.8054  108.7430  107.8945 H   0  0  0  0  0  0  0  0  0  0  0  0
  126.2322  104.8072  108.7422 H   0  0  0  0  0  0  0  0  0  0  0  0
  124.4689  104.6984  108.9360 H   0  0  0  0  0  0  0  0  0  0  0  0
  124.2025  104.2007  106.5112 H   0  0  0  0  0  0  0  0  0  0  0  0
  125.9616  104.2883  106.2793 H   0  0  0  0  0  0  0  0  0  0  0  0
  125.5905  102.0143  106.6217 H   0  0  0  0  0  0  0  0  0  0  0  0
  124.8508  102.3217  108.1748 H   0  0  0  0  0  0  0  0  0  0  0  0
  1  5  1  0  0  0  0
  1  8  3  0  0  0  0
  2  4  1  0  0  0  0
  2  9  1  0  0  0  0
  3  5  1  0  0  0  0
  3  9  1  0  0  0  0
  4 11  1  0  0  0  0
  5 11  1  0  0  0  0
  6  7  1  0  0  0  0
  6  9  1  0  0  0  0
  7 10  1  0  0  0  0
  2 12  1  0  0  0  0
  2 13  1  0  0  0  0
  3 14  1  0  0  0  0
  3 15  1  0  0  0  0
  4 16  1  0  0  0  0
  4 17  1  0  0  0  0
  5 18  1  0  0  0  0
  6 19  1  0  0  0  0
  6 20  1  0  0  0  0
  7 21  1  0  0  0  0
  7 22  1  0  0  0  0
 10 23  1  0  0  0  0
 10 24  1  0  0  0  0
M  END
> <FRED Chemgauss4 score>
-5.899246

$$$$
C67172119	P103192712
  -OEChem-05122015313D

 23 23  0     0  0  0  0  0  0999 V2000
  124.4386  108.8177  107.1724 C   0  0  0  0  0  0  0  0  0  0  0  0
  125.6148  108.7608  108.1495 C   0  0  0  0  0  0  0  0  0  0  0  0
  124.2086  106.6512  106.1182 C   0  0  0  0  0  0  0  0  0  0  0  0
  125.4998  106.3194  108.3345 C   0  0  0  0  0  0  0  0  0  0  0  0
  125.1651  105.7685  106.9384 C   0  0  0  0  0  0  0  0  0  0  0  0
  124.5606  104.3652  107.0716 C   0  0  0  0  0  0  0  0  0  0  0  0
  124.6404  108.0417  105.9484 N   0  0  0  0  0  0  0  0  0  0  0  0
  126.3481  107.5027  108.2449 N   0  0  0  0  0  0  0  0  0  0  0  0
  123.3200  104.4793  107.7389 O   0  0  0  0  0  0  0  0  0  0  0  0
  123.5092  108.5228  107.6760 H   0  0  0  0  0  0  0  0  0  0  0  0
  124.2967  109.8683  106.8893 H   0  0  0  0  0  0  0  0  0  0  0  0
  126.3409  109.5344  107.8698 H   0  0  0  0  0  0  0  0  0  0  0  0
  125.2567  109.0396  109.1480 H   0  0  0  0  0  0  0  0  0  0  0  0
  124.1304  106.2143  105.1142 H   0  0  0  0  0  0  0  0  0  0  0  0
  123.1932  106.6148  106.5343 H   0  0  0  0  0  0  0  0  0  0  0  0
  124.5956  106.5061  108.9269 H   0  0  0  0  0  0  0  0  0  0  0  0
  126.0719  105.5613  108.8828 H   0  0  0  0  0  0  0  0  0  0  0  0
  126.1003  105.6592  106.3707 H   0  0  0  0  0  0  0  0  0  0  0  0
  125.2305  103.7340  107.6503 H   0  0  0  0  0  0  0  0  0  0  0  0
  124.4064  103.9399  106.0829 H   0  0  0  0  0  0  0  0  0  0  0  0
  124.0628  108.4556  105.2154 H   0  0  0  0  0  0  0  0  0  0  0  0
  126.9816  107.4148  107.4511 H   0  0  0  0  0  0  0  0  0  0  0  0
  122.9503  103.5823  107.8152 H   0  0  0  0  0  0  0  0  0  0  0  0
  1  2  1  0  0  0  0
  1  7  1  0  0  0  0
  2  8  1  0  0  0  0
  3  5  1  0  0  0  0
  3  7  1  0  0  0  0
  4  5  1  0  0  0  0
  4  8  1  0  0  0  0
  5  6  1  0  0  0  0
  6  9  1  0  0  0  0
  1 10  1  0  0  0  0
  1 11  1  0  0  0  0
  2 12  1  0  0  0  0
  2 13  1  0  0  0  0
  3 14  1  0  0  0  0
  3 15  1  0  0  0  0
  4 16  1  0  0  0  0
  4 17  1  0  0  0  0
  5 18  1  0  0  0  0
  6 19  1  0  0  0  0
  6 20  1  0  0  0  0
  7 21  1  0  0  0  0
  8 22  1  0  0  0  0
  9 23  1  0  0  0  0
M  END
> <FRED Chemgauss4 score>
-5.891992

$$$$
C59493440	P90563089
  -OEChem-05122015313D

 20 20  0     1  0  0  0  0  0999 V2000
  125.2061  106.4572  106.6667 C   0  0  0  0  0  0  0  0  0  0  0  0
  125.1340  104.8529  108.2534 C   0  0  0  0  0  0  0  0  0  0  0  0
  126.0608  106.8699  107.8406 C   0  0  1  0  0  0  0  0  0  0  0  0
  124.5076  108.7367  108.4981 C   0  0  0  0  0  0  0  0  0  0  0  0
  125.9530  108.3376  108.1947 C   0  0  2  0  0  0  0  0  0  0  0  0
  124.4793  109.9599  109.2677 N   0  0  0  0  0  0  0  0  0  0  0  0
  125.0870  105.0446  106.8359 O   0  0  0  0  0  0  0  0  0  0  0  0
  125.5572  106.0561  108.9026 O   0  0  0  0  0  0  0  0  0  0  0  0
  126.4113  109.1177  107.0882 O   0  0  0  0  0  0  0  0  0  0  0  0
  124.1996  106.8886  106.7095 H   0  0  0  0  0  0  0  0  0  0  0  0
  125.6577  106.6901  105.6989 H   0  0  0  0  0  0  0  0  0  0  0  0
  124.1398  104.5794  108.6190 H   0  0  0  0  0  0  0  0  0  0  0  0
  125.8367  104.0464  108.4828 H   0  0  0  0  0  0  0  0  0  0  0  0
  127.1084  106.5893  107.6767 H   0  0  0  0  0  0  0  0  0  0  0  0
  123.9469  108.8948  107.5705 H   0  0  0  0  0  0  0  0  0  0  0  0
  124.0058  107.9515  109.0730 H   0  0  0  0  0  0  0  0  0  0  0  0
  126.5978  108.5696  109.0541 H   0  0  0  0  0  0  0  0  0  0  0  0
  123.6823  110.1478  109.8486 H   0  0  0  0  0  0  0  0  0  0  0  0
  125.1452  110.6807  109.0552 H   0  0  0  0  0  0  0  0  0  0  0  0
  127.3325  108.8600  106.9365 H   0  0  0  0  0  0  0  0  0  0  0  0
  1  3  1  0  0  0  0
  1  7  1  0  0  0  0
  2  7  1  0  0  0  0
  2  8  1  0  0  0  0
  3  5  1  0  0  0  0
  3  8  1  0  0  0  0
  4  5  1  0  0  0  0
  4  6  1  0  0  0  0
  5  9  1  0  0  0  0
  1 10  1  0  0  0  0
  1 11  1  0  0  0  0
  2 12  1  0  0  0  0
  2 13  1  0  0  0  0
  3 14  1  0  0  0  0
  4 15  1  0  0  0  0
  4 16  1  0  0  0  0
  5 17  1  0  0  0  0
  6 18  1  0  0  0  0
  6 19  1  0  0  0  0
  9 20  1  0  0  0  0
M  END
> <FRED Chemgauss4 score>
-5.864996

$$$$
C20470614	P30514351
  -OEChem-05122015313D

 17 16  0     0  0  0  0  0  0999 V2000
  126.5920  106.3557  107.3933 C   0  0  0  0  0  0  0  0  0  0  0  0
  126.7805  107.8537  107.5381 C   0  0  0  0  0  0  0  0  0  0  0  0
  126.8898  105.5775  109.5777 N   0  0  0  0  0  0  0  0  0  0  0  0
  125.8175  110.3131  107.8114 N   0  0  0  0  0  0  0  0  0  0  0  0
  125.9301  105.7798  108.5319 N   0  0  0  0  0  0  0  0  0  0  0  0
  124.5417  108.5794  106.4030 O   0  0  0  0  0  0  0  0  0  0  0  0
  124.6118  108.3276  108.9164 O   0  0  0  0  0  0  0  0  0  0  0  0
  125.2441  108.7141  107.6672 S   0  0  0  0  0  0  0  0  0  0  0  0
  125.9992  106.1092  106.5070 H   0  0  0  0  0  0  0  0  0  0  0  0
  127.5641  105.8608  107.3067 H   0  0  0  0  0  0  0  0  0  0  0  0
  127.2859  108.2608  106.6572 H   0  0  0  0  0  0  0  0  0  0  0  0
  127.3646  108.1057  108.4283 H   0  0  0  0  0  0  0  0  0  0  0  0
  127.8002  105.9165  109.2678 H   0  0  0  0  0  0  0  0  0  0  0  0
  126.6398  106.1487  110.3840 H   0  0  0  0  0  0  0  0  0  0  0  0
  125.6779  110.9452  107.0135 H   0  0  0  0  0  0  0  0  0  0  0  0
  125.7257  110.7736  108.7252 H   0  0  0  0  0  0  0  0  0  0  0  0
  125.5216  104.8708  108.2887 H   0  0  0  0  0  0  0  0  0  0  0  0
  1  2  1  0  0  0  0
  1  5  1  0  0  0  0
  2  8  1  0  0  0  0
  3  5  1  0  0  0  0
  4  8  1  0  0  0  0
  6  8  2  0  0  0  0
  7  8  2  0  0  0  0
  1  9  1  0  0  0  0
  1 10  1  0  0  0  0
  2 11  1  0  0  0  0
  2 12  1  0  0  0  0
  3 13  1  0  0  0  0
  3 14  1  0  0  0  0
  4 15  1  0  0  0  0
  4 16  1  0  0  0  0
  5 17  1  0  0  0  0
M  END
> <FRED Chemgauss4 score>
-5.860404

$$$$
C34874693	P90744606
  -OEChem-05122015313D

 15 14  0     1  0  0  0  0  0999 V2000
  124.6250  108.4819  107.9675 C   0  0  0  0  0  0  0  0  0  0  0  0
  125.5206  105.4311  107.3001 C   0  0  0  0  0  0  0  0  0  0  0  0
  125.7840  107.9316  107.1541 C   0  0  2  0  0  0  0  0  0  0  0  0
  126.3346  106.6292  107.7472 C   0  0  1  0  0  0  0  0  0  0  0  0
  126.8311  108.9507  107.1089 N   0  0  0  0  0  0  0  0  0  0  0  0
  124.6088  109.5738  108.5276 O   0  0  0  0  0  0  0  0  0  0  0  0
  124.5377  105.5008  106.5692 O   0  0  0  0  0  0  0  0  0  0  0  0
  126.4028  106.6692  109.1610 O   0  0  0  0  0  0  0  0  0  0  0  0
  123.7318  107.8339  108.0062 H   0  0  0  0  0  0  0  0  0  0  0  0
  125.8483  104.4582  107.7061 H   0  0  0  0  0  0  0  0  0  0  0  0
  125.4110  107.7571  106.1383 H   0  0  0  0  0  0  0  0  0  0  0  0
  127.3516  106.4533  107.3765 H   0  0  0  0  0  0  0  0  0  0  0  0
  126.5528  109.9072  107.1065 H   0  0  0  0  0  0  0  0  0  0  0  0
  127.7560  108.6605  106.8788 H   0  0  0  0  0  0  0  0  0  0  0  0
  126.8281  105.8438  109.4496 H   0  0  0  0  0  0  0  0  0  0  0  0
  1  3  1  0  0  0  0
  1  6  2  0  0  0  0
  2  4  1  0  0  0  0
  2  7  2  0  0  0  0
  3  4  1  0  0  0  0
  3  5  1  0  0  0  0
  4  8  1  0  0  0  0
  1  9  1  0  0  0  0
  2 10  1  0  0  0  0
  3 11  1  0  0  0  0
  4 12  1  0  0  0  0
  5 13  1  0  0  0  0
  5 14  1  0  0  0  0
  8 15  1  0  0  0  0
M  END
> <FRED Chemgauss4 score>
-5.835960

$$$$
C39053924	P59169126
  -OEChem-05122015313D

 16 16  0     0  0  0  0  0  0999 V2000
  125.9511  105.2772  108.3043 C   0  0  0  0  0  0  0  0  0  0  0  0
  124.8850  106.8869  107.5108 C   0  0  0  0  0  0  0  0  0  0  0  0
  125.0441  103.3324  106.9296 C   0  0  0  0  0  0  0  0  0  0  0  0
  125.7938  106.6285  108.4223 N   0  0  0  0  0  0  0  0  0  0  0  0
  124.5246  105.7347  106.8844 N   0  0  0  0  0  0  0  0  0  0  0  0
  125.1968  104.6832  107.3771 N   0  0  0  0  0  0  0  0  0  0  0  0
  125.0804  109.4384  108.2566 N   0  0  0  0  0  0  0  0  0  0  0  0
  124.6320  108.8256  105.7931 O   0  0  0  0  0  0  0  0  0  0  0  0
  122.8158  108.4689  107.5025 O   0  0  0  0  0  0  0  0  0  0  0  0
  124.2465  108.4159  107.1546 S   0  0  0  0  0  0  0  0  0  0  0  0
  126.6450  104.7250  108.9254 H   0  0  0  0  0  0  0  0  0  0  0  0
  124.2585  102.8652  107.5293 H   0  0  0  0  0  0  0  0  0  0  0  0
  124.7704  103.3283  105.8709 H   0  0  0  0  0  0  0  0  0  0  0  0
  125.9910  102.8003  107.0568 H   0  0  0  0  0  0  0  0  0  0  0  0
  125.8038  110.0685  107.8891 H   0  0  0  0  0  0  0  0  0  0  0  0
  124.5628  109.8224  109.0566 H   0  0  0  0  0  0  0  0  0  0  0  0
  1  4  2  0  0  0  0
  1  6  1  0  0  0  0
  2  4  1  0  0  0  0
  2  5  2  0  0  0  0
  2 10  1  0  0  0  0
  3  6  1  0  0  0  0
  5  6  1  0  0  0  0
  7 10  1  0  0  0  0
  8 10  2  0  0  0  0
  9 10  2  0  0  0  0
  1 11  1  0  0  0  0
  3 12  1  0  0  0  0
  3 13  1  0  0  0  0
  3 14  1  0  0  0  0
  7 15  1  0  0  0  0
  7 16  1  0  0  0  0
M  END
> <FRED Chemgauss4 score>
-5.826470

$$$$
C39095591	P59227464
  -OEChem-05122015313D

 17 18  0     1  0  0  0  0  0999 V2000
  123.6693  106.0335  106.2181 C   0  0  0  0  0  0  0  0  0  0  0  0
  124.8681  104.3774  107.3174 C   0  0  0  0  0  0  0  0  0  0  0  0
  125.3216  106.3821  108.7066 C   0  0  0  0  0  0  0  0  0  0  0  0
  123.4632  104.9347  107.2355 C   0  0  1  0  0  0  0  0  0  0  0  0
  125.6076  105.6928  107.3642 C   0  0  2  0  0  0  0  0  0  0  0  0
  123.8878  106.6581  108.9039 N   0  0  0  0  0  0  0  0  0  0  0  0
  123.0694  105.5093  108.5320 N   0  0  0  0  0  0  0  0  0  0  0  0
  122.8242  106.5224  105.4875 O   0  0  0  0  0  0  0  0  0  0  0  0
  124.9877  106.4398  106.2978 O   0  0  0  0  0  0  0  0  0  0  0  0
  125.0476  103.7322  108.1829 H   0  0  0  0  0  0  0  0  0  0  0  0
  125.1148  103.8226  106.4038 H   0  0  0  0  0  0  0  0  0  0  0  0
  125.7038  105.7705  109.5328 H   0  0  0  0  0  0  0  0  0  0  0  0
  125.8449  107.3441  108.7353 H   0  0  0  0  0  0  0  0  0  0  0  0
  122.7536  104.1822  106.8826 H   0  0  0  0  0  0  0  0  0  0  0  0
  126.6787  105.5836  107.1729 H   0  0  0  0  0  0  0  0  0  0  0  0
  123.7126  106.8934  109.8799 H   0  0  0  0  0  0  0  0  0  0  0  0
  122.1000  105.8215  108.4785 H   0  0  0  0  0  0  0  0  0  0  0  0
  1  4  1  0  0  0  0
  1  8  2  0  0  0  0
  1  9  1  0  0  0  0
  2  4  1  0  0  0  0
  2  5  1  0  0  0  0
  3  5  1  0  0  0  0
  3  6  1  0  0  0  0
  4  7  1  0  0  0  0
  5  9  1  0  0  0  0
  6  7  1  0  0  0  0
  2 10  1  0  0  0  0
  2 11  1  0  0  0  0
  3 12  1  0  0  0  0
  3 13  1  0  0  0  0
  4 14  1  0  0  0  0
  5 15  1  0  0  0  0
  6 16  1  0  0  0  0
  7 17  1  0  0  0  0
M  END
> <FRED Chemgauss4 score>
-5.799922

$$$$
C49474201	P73869124
  -OEChem-05122015313D

 15 15  0     0  0  0  0  0  0999 V2000
  124.1367  106.5767  106.6817 C   0  0  0  0  0  0  0  0  0  0  0  0
  126.0135  108.2239  107.4722 C   0  0  0  0  0  0  0  0  0  0  0  0
  123.0419  105.7062  106.1220 C   0  0  0  0  0  0  0  0  0  0  0  0
  124.6604  106.2476  107.8291 N   0  0  0  0  0  0  0  0  0  0  0  0
  125.4814  108.5494  106.3201 N   0  0  0  0  0  0  0  0  0  0  0  0
  124.5106  107.6786  105.9340 N   0  0  0  0  0  0  0  0  0  0  0  0
  125.6316  107.1181  108.2148 N   0  0  0  0  0  0  0  0  0  0  0  0
  127.0123  108.9579  108.0589 N   0  0  0  0  0  0  0  0  0  0  0  0
  122.0819  106.0711  106.4733 H   0  0  0  0  0  0  0  0  0  0  0  0
  123.1935  104.6839  106.4551 H   0  0  0  0  0  0  0  0  0  0  0  0
  123.0771  105.7425  105.0374 H   0  0  0  0  0  0  0  0  0  0  0  0
  124.0533  107.8711  105.0474 H   0  0  0  0  0  0  0  0  0  0  0  0
  126.0886  106.9272  109.1015 H   0  0  0  0  0  0  0  0  0  0  0  0
  127.3405  109.7674  107.5860 H   0  0  0  0  0  0  0  0  0  0  0  0
  127.3688  108.6518  108.9341 H   0  0  0  0  0  0  0  0  0  0  0  0
  1  3  1  0  0  0  0
  1  4  2  0  0  0  0
  1  6  1  0  0  0  0
  2  5  2  0  0  0  0
  2  7  1  0  0  0  0
  2  8  1  0  0  0  0
  4  7  1  0  0  0  0
  5  6  1  0  0  0  0
  3  9  1  0  0  0  0
  3 10  1  0  0  0  0
  3 11  1  0  0  0  0
  6 12  1  0  0  0  0
  7 13  1  0  0  0  0
  8 14  1  0  0  0  0
  8 15  1  0  0  0  0
M  END
> <FRED Chemgauss4 score>
-5.776827

$$$$
C33505934	P90697611
  -OEChem-05122015313D

 16 15  0     0  0  0  0  0  0999 V2000
  124.5777  109.2020  109.0298 C   0  0  0  0  0  0  0  0  0  0  0  0
  126.1380  107.9132  107.6814 C   0  0  0  0  0  0  0  0  0  0  0  0
  123.8852  108.2968  106.8940 C   0  0  0  0  0  0  0  0  0  0  0  0
  125.0015  108.8449  107.6715 N   0  0  0  0  0  0  0  0  0  0  0  0
  123.7887  110.3894  109.0703 O   0  0  0  0  0  0  0  0  0  0  0  0
  127.3957  108.5280  107.9469 O   0  0  0  0  0  0  0  0  0  0  0  0
  124.1255  108.3248  105.4884 O   0  0  0  0  0  0  0  0  0  0  0  0
  123.9541  108.4089  109.4564 H   0  0  0  0  0  0  0  0  0  0  0  0
  125.4320  109.3436  109.7013 H   0  0  0  0  0  0  0  0  0  0  0  0
  126.2090  107.3932  106.7193 H   0  0  0  0  0  0  0  0  0  0  0  0
  125.9729  107.1377  108.4385 H   0  0  0  0  0  0  0  0  0  0  0  0
  122.9501  108.8358  107.0848 H   0  0  0  0  0  0  0  0  0  0  0  0
  123.7209  107.2454  107.1552 H   0  0  0  0  0  0  0  0  0  0  0  0
  123.5605  110.5393  110.0033 H   0  0  0  0  0  0  0  0  0  0  0  0
  128.0661  107.8239  107.9288 H   0  0  0  0  0  0  0  0  0  0  0  0
  123.3373  107.9450  105.0645 H   0  0  0  0  0  0  0  0  0  0  0  0
  1  4  1  0  0  0  0
  1  5  1  0  0  0  0
  2  4  1  0  0  0  0
  2  6  1  0  0  0  0
  3  4  1  0  0  0  0
  3  7  1  0  0  0  0
  1  8  1  0  0  0  0
  1  9  1  0  0  0  0
  2 10  1  0  0  0  0
  2 11  1  0  0  0  0
  3 12  1  0  0  0  0
  3 13  1  0  0  0  0
  5 14  1  0  0  0  0
  6 15  1  0  0  0  0
  7 16  1  0  0  0  0
M  END
> <FRED Chemgauss4 score>
-5.755917

$$$$
C95616414	P150349639
  -OEChem-05122015313D

 18 18  0     1  0  0  0  0  0999 V2000
  125.1429  106.0893  106.6920 C   0  0  0  0  0  0  0  0  0  0  0  0
  124.8605  107.4373  106.0439 C   0  0  0  0  0  0  0  0  0  0  0  0
  126.6462  107.8149  107.4674 C   0  0  0  0  0  0  0  0  0  0  0  0
  126.3721  106.3211  107.5710 C   0  0  1  0  0  0  0  0  0  0  0  0
  126.1270  108.1578  106.1460 N   0  0  0  0  0  0  0  0  0  0  0  0
  127.3857  106.1323  109.6529 N   0  0  0  0  0  0  0  0  0  0  0  0
  126.1776  105.8947  108.9293 N   0  0  0  0  0  0  0  0  0  0  0  0
  124.2689  105.7416  107.2542 H   0  0  0  0  0  0  0  0  0  0  0  0
  125.3679  105.3290  105.9341 H   0  0  0  0  0  0  0  0  0  0  0  0
  124.5328  107.3361  105.0050 H   0  0  0  0  0  0  0  0  0  0  0  0
  124.0801  107.9759  106.5936 H   0  0  0  0  0  0  0  0  0  0  0  0
  126.1092  108.3904  108.2315 H   0  0  0  0  0  0  0  0  0  0  0  0
  127.7118  108.0481  107.5602 H   0  0  0  0  0  0  0  0  0  0  0  0
  127.2126  105.7667  107.1443 H   0  0  0  0  0  0  0  0  0  0  0  0
  126.7674  107.7937  105.4392 H   0  0  0  0  0  0  0  0  0  0  0  0
  128.0590  106.5991  109.0458 H   0  0  0  0  0  0  0  0  0  0  0  0
  127.1926  106.7871  110.4097 H   0  0  0  0  0  0  0  0  0  0  0  0
  125.9680  104.8969  108.9479 H   0  0  0  0  0  0  0  0  0  0  0  0
  1  2  1  0  0  0  0
  1  4  1  0  0  0  0
  2  5  1  0  0  0  0
  3  4  1  0  0  0  0
  3  5  1  0  0  0  0
  4  7  1  0  0  0  0
  6  7  1  0  0  0  0
  1  8  1  0  0  0  0
  1  9  1  0  0  0  0
  2 10  1  0  0  0  0
  2 11  1  0  0  0  0
  3 12  1  0  0  0  0
  3 13  1  0  0  0  0
  4 14  1  0  0  0  0
  5 15  1  0  0  0  0
  6 16  1  0  0  0  0
  6 17  1  0  0  0  0
  7 18  1  0  0  0  0
M  END
> <FRED Chemgauss4 score>
-5.712689

$$$$
C05828092	P128165759
  -OEChem-05122015313D

 11 10  0     0  0  0  0  0  0999 V2000
  124.9915  108.2970  108.1740 C   0  0  0  0  0  0  0  0  0  0  0  0
  124.6449  104.3139  107.5309 C   0  0  0  0  0  0  0  0  0  0  0  0
  125.7725  106.1812  108.4616 C   0  0  0  0  0  0  0  0  0  0  0  0
  125.0840  109.4398  108.3539 N   0  0  0  0  0  0  0  0  0  0  0  0
  123.7509  103.9169  106.9066 N   0  0  0  0  0  0  0  0  0  0  0  0
  124.8745  106.9783  107.9601 N   0  0  0  0  0  0  0  0  0  0  0  0
  126.8731  106.5145  109.2136 N   0  0  0  0  0  0  0  0  0  0  0  0
  125.6821  104.7634  108.2539 N   0  0  0  0  0  0  0  0  0  0  0  0
  127.0767  107.4807  109.4458 H   0  0  0  0  0  0  0  0  0  0  0  0
  127.5199  105.8145  109.5598 H   0  0  0  0  0  0  0  0  0  0  0  0
  126.4031  104.1525  108.6562 H   0  0  0  0  0  0  0  0  0  0  0  0
  1  4  3  0  0  0  0
  1  6  1  0  0  0  0
  2  5  3  0  0  0  0
  2  8  1  0  0  0  0
  3  6  2  0  0  0  0
  3  7  1  0  0  0  0
  3  8  1  0  0  0  0
  7  9  1  0  0  0  0
  7 10  1  0  0  0  0
  8 11  1  0  0  0  0
M  END
> <FRED Chemgauss4 score>
-5.689541

$$$$
C63060459	P96823620
  -OEChem-05122015313D

 13 13  0     1  0  0  0  0  0999 V2000
  126.0851  105.3648  107.3312 C   0  0  0  0  0  0  0  0  0  0  0  0
  124.4357  104.5507  108.3342 C   0  0  0  0  0  0  0  0  0  0  0  0
  124.5980  107.1960  106.4863 C   0  0  0  0  0  0  0  0  0  0  0  0
  124.8772  105.7377  106.5458 C   0  0  2  0  0  0  0  0  0  0  0  0
  125.8010  104.6685  108.3734 N   0  0  0  0  0  0  0  0  0  0  0  0
  123.8075  105.1177  107.3495 N   0  0  0  0  0  0  0  0  0  0  0  0
  123.4555  107.6058  107.1161 N   0  0  0  0  0  0  0  0  0  0  0  0
  125.6163  108.2585  105.6963 S   0  0  0  0  0  0  0  0  0  0  0  0
  127.0957  105.6611  107.0199 H   0  0  0  0  0  0  0  0  0  0  0  0
  123.9070  103.9925  109.1211 H   0  0  0  0  0  0  0  0  0  0  0  0
  124.9212  105.3137  105.5397 H   0  0  0  0  0  0  0  0  0  0  0  0
  122.8518  106.9403  107.5874 H   0  0  0  0  0  0  0  0  0  0  0  0
  123.1644  108.5778  107.1401 H   0  0  0  0  0  0  0  0  0  0  0  0
  1  4  1  0  0  0  0
  1  5  2  0  0  0  0
  2  5  1  0  0  0  0
  2  6  2  0  0  0  0
  3  4  1  0  0  0  0
  3  7  1  0  0  0  0
  3  8  2  0  0  0  0
  4  6  1  0  0  0  0
  1  9  1  0  0  0  0
  2 10  1  0  0  0  0
  4 11  1  0  0  0  0
  7 12  1  0  0  0  0
  7 13  1  0  0  0  0
M  END
> <FRED Chemgauss4 score>
-5.675445

$$$$
C36437531	P130761431
  -OEChem-05122015313D

 22 22  0     1  0  0  0  0  0999 V2000
  125.8299  106.2515  106.9134 C   0  0  0  0  0  0  0  0  0  0  0  0
  124.5464  107.0340  106.7768 C   0  0  0  0  0  0  0  0  0  0  0  0
  125.7269  105.6789  108.3173 C   0  0  2  0  0  0  0  0  0  0  0  0
  124.3125  107.5461  108.1884 C   0  0  2  0  0  0  0  0  0  0  0  0
  125.0600  104.3101  108.3530 C   0  0  0  0  0  0  0  0  0  0  0  0
  124.9436  108.9094  108.4375 C   0  0  0  0  0  0  0  0  0  0  0  0
  123.7308  104.3960  107.8386 N   0  0  0  0  0  0  0  0  0  0  0  0
  124.9218  106.5954  109.0786 O   0  0  0  0  0  0  0  0  0  0  0  0
  126.2185  108.9465  107.8159 O   0  0  0  0  0  0  0  0  0  0  0  0
  125.8547  105.4487  106.1597 H   0  0  0  0  0  0  0  0  0  0  0  0
  126.7296  106.8662  106.7713 H   0  0  0  0  0  0  0  0  0  0  0  0
  124.6964  107.8685  106.0733 H   0  0  0  0  0  0  0  0  0  0  0  0
  123.7086  106.4309  106.4000 H   0  0  0  0  0  0  0  0  0  0  0  0
  126.7028  105.6264  108.7894 H   0  0  0  0  0  0  0  0  0  0  0  0
  123.2524  107.5819  108.4194 H   0  0  0  0  0  0  0  0  0  0  0  0
  125.0179  103.9591  109.3793 H   0  0  0  0  0  0  0  0  0  0  0  0
  125.6279  103.6142  107.7440 H   0  0  0  0  0  0  0  0  0  0  0  0
  125.0672  109.0819  109.5099 H   0  0  0  0  0  0  0  0  0  0  0  0
  124.3200  109.7013  108.0144 H   0  0  0  0  0  0  0  0  0  0  0  0
  123.1718  105.2188  108.0281 H   0  0  0  0  0  0  0  0  0  0  0  0
  123.2821  103.5673  107.4678 H   0  0  0  0  0  0  0  0  0  0  0  0
  126.5935  109.8253  107.9924 H   0  0  0  0  0  0  0  0  0  0  0  0
  1  2  1  0  0  0  0
  1  3  1  0  0  0  0
  2  4  1  0  0  0  0
  3  5  1  0  0  0  0
  3  8  1  0  0  0  0
  4  6  1  0  0  0  0
  4  8  1  0  0  0  0
  5  7  1  0  0  0  0
  6  9  1  0  0  0  0
  1 10  1  0  0  0  0
  1 11  1  0  0  0  0
  2 12  1  0  0  0  0
  2 13  1  0  0  0  0
  3 14  1  0  0  0  0
  4 15  1  0  0  0  0
  5 16  1  0  0  0  0
  5 17  1  0  0  0  0
  6 18  1  0  0  0  0
  6 19  1  0  0  0  0
  7 20  1  0  0  0  0
  7 21  1  0  0  0  0
  9 22  1  0  0  0  0
M  END
> <FRED Chemgauss4 score>
-5.672552

$$$$
C81147639	P126701390
  -OEChem-05122015313D

 13 13  0     0  0  0  0  0  0999 V2000
  126.0561  107.5689  107.5045 C   0  0  0  0  0  0  0  0  0  0  0  0
  125.1693  106.6185  106.7155 C   0  0  0  0  0  0  0  0  0  0  0  0
  126.4603  105.6317  109.0158 C   0  0  0  0  0  0  0  0  0  0  0  0
  126.5662  107.0383  108.6750 N   0  0  0  0  0  0  0  0  0  0  0  0
  125.2383  105.0827  108.4486 N   0  0  0  0  0  0  0  0  0  0  0  0
  126.2409  108.7299  107.1447 O   0  0  0  0  0  0  0  0  0  0  0  0
  125.4269  105.2578  107.0132 O   0  0  0  0  0  0  0  0  0  0  0  0
  124.1178  106.8572  106.9121 H   0  0  0  0  0  0  0  0  0  0  0  0
  125.3672  106.7705  105.6499 H   0  0  0  0  0  0  0  0  0  0  0  0
  127.3530  105.1209  108.6389 H   0  0  0  0  0  0  0  0  0  0  0  0
  126.4453  105.5536  110.1066 H   0  0  0  0  0  0  0  0  0  0  0  0
  127.0361  107.6609  109.3253 H   0  0  0  0  0  0  0  0  0  0  0  0
  125.2471  104.0663  108.5234 H   0  0  0  0  0  0  0  0  0  0  0  0
  1  2  1  0  0  0  0
  1  4  1  0  0  0  0
  1  6  2  0  0  0  0
  2  7  1  0  0  0  0
  3  4  1  0  0  0  0
  3  5  1  0  0  0  0
  5  7  1  0  0  0  0
  2  8  1  0  0  0  0
  2  9  1  0  0  0  0
  3 10  1  0  0  0  0
  3 11  1  0  0  0  0
  4 12  1  0  0  0  0
  5 13  1  0  0  0  0
M  END
> <FRED Chemgauss4 score>
-5.655893

$$$$
C59506286	P90579909
  -OEChem-05122015313D

 17 16  0     0  0  0  0  0  0999 V2000
  124.0187  108.5190  109.1752 C   0  0  0  0  0  0  0  0  0  0  0  0
  125.4149  106.4606  108.7044 C   0  0  0  0  0  0  0  0  0  0  0  0
  126.1416  106.6717  107.3888 C   0  0  0  0  0  0  0  0  0  0  0  0
  122.9408  110.5815  109.8206 N   0  0  0  0  0  0  0  0  0  0  0  0
  125.1557  107.7439  109.3284 N   0  0  0  0  0  0  0  0  0  0  0  0
  124.0118  109.7083  109.8796 N   0  0  0  0  0  0  0  0  0  0  0  0
  127.3576  107.3691  107.6276 O   0  0  0  0  0  0  0  0  0  0  0  0
  122.6910  108.1260  108.2230 S   0  0  0  0  0  0  0  0  0  0  0  0
  124.4568  105.9537  108.5517 H   0  0  0  0  0  0  0  0  0  0  0  0
  126.0293  105.8668  109.3879 H   0  0  0  0  0  0  0  0  0  0  0  0
  125.5295  107.2805  106.7161 H   0  0  0  0  0  0  0  0  0  0  0  0
  126.3718  105.7200  106.8988 H   0  0  0  0  0  0  0  0  0  0  0  0
  122.8687  111.0230  110.7365 H   0  0  0  0  0  0  0  0  0  0  0  0
  122.1022  110.0124  109.7152 H   0  0  0  0  0  0  0  0  0  0  0  0
  125.8785  108.1079  109.9418 H   0  0  0  0  0  0  0  0  0  0  0  0
  124.8006  109.9690  110.4628 H   0  0  0  0  0  0  0  0  0  0  0  0
  127.7886  107.4827  106.7653 H   0  0  0  0  0  0  0  0  0  0  0  0
  1  5  1  0  0  0  0
  1  6  1  0  0  0  0
  1  8  2  0  0  0  0
  2  3  1  0  0  0  0
  2  5  1  0  0  0  0
  3  7  1  0  0  0  0
  4  6  1  0  0  0  0
  2  9  1  0  0  0  0
  2 10  1  0  0  0  0
  3 11  1  0  0  0  0
  3 12  1  0  0  0  0
  4 13  1  0  0  0  0
  4 14  1  0  0  0  0
  5 15  1  0  0  0  0
  6 16  1  0  0  0  0
  7 17  1  0  0  0  0
M  END
> <FRED Chemgauss4 score>
-5.616812

$$$$
C83636283	P130840320
  -OEChem-05122015313D

 17 17  0     0  0  0  0  0  0999 V2000
  125.7582  108.5139  107.8689 C   0  0  0  0  0  0  0  0  0  0  0  0
  125.2197  104.8833  108.2634 C   0  0  0  0  0  0  0  0  0  0  0  0
  124.9465  105.6997  106.3569 C   0  0  0  0  0  0  0  0  0  0  0  0
  124.6528  104.3094  106.9513 C   0  0  0  0  0  0  0  0  0  0  0  0
  126.1311  107.1021  107.9352 C   0  0  0  0  0  0  0  0  0  0  0  0
  125.4655  109.6356  107.8172 N   0  0  0  0  0  0  0  0  0  0  0  0
  124.9665  106.2470  107.7360 N   0  0  0  0  0  0  0  0  0  0  0  0
  123.2054  104.1410  107.0863 N   0  0  0  0  0  0  0  0  0  0  0  0
  124.6776  104.6420  109.1841 H   0  0  0  0  0  0  0  0  0  0  0  0
  126.2757  104.6249  108.4193 H   0  0  0  0  0  0  0  0  0  0  0  0
  125.9031  105.7384  105.8184 H   0  0  0  0  0  0  0  0  0  0  0  0
  124.1793  106.1317  105.7055 H   0  0  0  0  0  0  0  0  0  0  0  0
  125.1786  103.4591  106.5119 H   0  0  0  0  0  0  0  0  0  0  0  0
  126.8623  106.8507  107.1616 H   0  0  0  0  0  0  0  0  0  0  0  0
  126.5610  106.8535  108.9098 H   0  0  0  0  0  0  0  0  0  0  0  0
  122.8655  103.6525  107.8844 H   0  0  0  0  0  0  0  0  0  0  0  0
  122.6377  104.3346  106.2917 H   0  0  0  0  0  0  0  0  0  0  0  0
  1  5  1  0  0  0  0
  1  6  3  0  0  0  0
  2  4  1  0  0  0  0
  2  7  1  0  0  0  0
  3  4  1  0  0  0  0
  3  7  1  0  0  0  0
  4  8  1  0  0  0  0
  5  7  1  0  0  0  0
  2  9  1  0  0  0  0
  2 10  1  0  0  0  0
  3 11  1  0  0  0  0
  3 12  1  0  0  0  0
  4 13  1  0  0  0  0
  5 14  1  0  0  0  0
  5 15  1  0  0  0  0
  8 16  1  0  0  0  0
  8 17  1  0  0  0  0
M  END
> <FRED Chemgauss4 score>
-5.602509

$$$$
C19398103	P28704104
  -OEChem-05122015313D

 17 17  0     1  0  0  0  0  0999 V2000
  125.4376  104.4489  108.6765 C   0  0  0  0  0  0  0  0  0  0  0  0
  125.1328  104.1085  107.2250 C   0  0  0  0  0  0  0  0  0  0  0  0
  124.2822  106.5114  108.0836 C   0  0  0  0  0  0  0  0  0  0  0  0
  125.5228  105.9710  108.7914 C   0  0  2  0  0  0  0  0  0  0  0  0
  127.8196  106.3211  109.0996 N   0  0  0  0  0  0  0  0  0  0  0  0
  126.7459  106.4848  108.1730 N   0  0  0  0  0  0  0  0  0  0  0  0
  123.9860  105.4018  106.6724 S   0  0  0  0  0  0  0  0  0  0  0  0
  124.6640  104.0333  109.3430 H   0  0  0  0  0  0  0  0  0  0  0  0
  126.3909  103.9794  108.9796 H   0  0  0  0  0  0  0  0  0  0  0  0
  126.0365  104.0958  106.6111 H   0  0  0  0  0  0  0  0  0  0  0  0
  124.6362  103.1371  107.1444 H   0  0  0  0  0  0  0  0  0  0  0  0
  123.4080  106.5424  108.7504 H   0  0  0  0  0  0  0  0  0  0  0  0
  124.4426  107.5276  107.6916 H   0  0  0  0  0  0  0  0  0  0  0  0
  125.5122  106.2650  109.8446 H   0  0  0  0  0  0  0  0  0  0  0  0
  127.4823  105.8314  109.9279 H   0  0  0  0  0  0  0  0  0  0  0  0
  128.5224  105.7118  108.6828 H   0  0  0  0  0  0  0  0  0  0  0  0
  126.6315  107.4760  107.9647 H   0  0  0  0  0  0  0  0  0  0  0  0
  1  2  1  0  0  0  0
  1  4  1  0  0  0  0
  2  7  1  0  0  0  0
  3  4  1  0  0  0  0
  3  7  1  0  0  0  0
  4  6  1  0  0  0  0
  5  6  1  0  0  0  0
  1  8  1  0  0  0  0
  1  9  1  0  0  0  0
  2 10  1  0  0  0  0
  2 11  1  0  0  0  0
  3 12  1  0  0  0  0
  3 13  1  0  0  0  0
  4 14  1  0  0  0  0
  5 15  1  0  0  0  0
  5 16  1  0  0  0  0
  6 17  1  0  0  0  0
M  END
> <FRED Chemgauss4 score>
-5.599176

$$$$
C49474209	P89064106
  -OEChem-05122015313D

 19 19  0     0  0  0  0  0  0999 V2000
  123.8368  106.9152  106.2202 C   0  0  0  0  0  0  0  0  0  0  0  0
  125.7392  108.2333  107.6487 C   0  0  0  0  0  0  0  0  0  0  0  0
  120.4657  106.0532  105.0395 C   0  0  0  0  0  0  0  0  0  0  0  0
  122.7718  106.1452  105.4828 C   0  0  0  0  0  0  0  0  0  0  0  0
  124.4157  107.9064  105.6021 N   0  0  0  0  0  0  0  0  0  0  0  0
  126.6612  108.8980  108.2878 N   0  0  0  0  0  0  0  0  0  0  0  0
  124.1181  106.5149  107.5076 N   0  0  0  0  0  0  0  0  0  0  0  0
  125.3654  108.5436  106.3486 N   0  0  0  0  0  0  0  0  0  0  0  0
  125.0598  107.1697  108.2069 N   0  0  0  0  0  0  0  0  0  0  0  0
  121.5128  106.7429  105.7152 O   0  0  0  0  0  0  0  0  0  0  0  0
  119.5122  106.5458  105.2448 H   0  0  0  0  0  0  0  0  0  0  0  0
  120.4327  105.0153  105.3803 H   0  0  0  0  0  0  0  0  0  0  0  0
  120.6610  106.0757  103.9648 H   0  0  0  0  0  0  0  0  0  0  0  0
  122.7566  105.1159  105.8303 H   0  0  0  0  0  0  0  0  0  0  0  0
  122.9885  106.1700  104.4186 H   0  0  0  0  0  0  0  0  0  0  0  0
  127.0155  109.6321  107.6741 H   0  0  0  0  0  0  0  0  0  0  0  0
  123.6398  105.7381  107.9517 H   0  0  0  0  0  0  0  0  0  0  0  0
  125.8339  109.3199  105.8894 H   0  0  0  0  0  0  0  0  0  0  0  0
  125.2532  106.8580  109.1530 H   0  0  0  0  0  0  0  0  0  0  0  0
  1  4  1  0  0  0  0
  1  5  2  0  0  0  0
  1  7  1  0  0  0  0
  2  6  2  0  0  0  0
  2  8  1  0  0  0  0
  2  9  1  0  0  0  0
  3 10  1  0  0  0  0
  4 10  1  0  0  0  0
  5  8  1  0  0  0  0
  7  9  1  0  0  0  0
  3 11  1  0  0  0  0
  3 12  1  0  0  0  0
  3 13  1  0  0  0  0
  4 14  1  0  0  0  0
  4 15  1  0  0  0  0
  6 16  1  0  0  0  0
  7 17  1  0  0  0  0
  8 18  1  0  0  0  0
  9 19  1  0  0  0  0
M  END
> <FRED Chemgauss4 score>
-5.439018

$$$$
C82836052	P129489593
  -OEChem-05122015313D

 19 19  0     1  0  0  0  0  0999 V2000
  123.4833  104.8157  106.9407 C   0  0  0  0  0  0  0  0  0  0  0  0
  124.1684  106.7799  106.7687 C   0  0  0  0  0  0  0  0  0  0  0  0
  124.5898  109.0667  107.7646 C   0  0  0  0  0  0  0  0  0  0  0  0
  125.4960  103.6599  107.9937 C   0  0  0  0  0  0  0  0  0  0  0  0
  124.3252  108.2602  106.4949 C   0  0  1  0  0  0  0  0  0  0  0  0
  123.1043  106.0553  106.5113 N   0  0  0  0  0  0  0  0  0  0  0  0
  125.1311  105.9974  107.3259 N   0  0  0  0  0  0  0  0  0  0  0  0
  124.7149  104.7277  107.4475 N   0  0  0  0  0  0  0  0  0  0  0  0
  125.3640  108.5104  105.5221 N   0  0  0  0  0  0  0  0  0  0  0  0
  122.8236  103.9596  106.8723 H   0  0  0  0  0  0  0  0  0  0  0  0
  125.5048  108.7288  108.2632 H   0  0  0  0  0  0  0  0  0  0  0  0
  124.7060  110.1301  107.5267 H   0  0  0  0  0  0  0  0  0  0  0  0
  123.7647  108.9857  108.4811 H   0  0  0  0  0  0  0  0  0  0  0  0
  126.0548  103.1980  107.1755 H   0  0  0  0  0  0  0  0  0  0  0  0
  126.1810  104.0583  108.7473 H   0  0  0  0  0  0  0  0  0  0  0  0
  124.8314  102.9299  108.4641 H   0  0  0  0  0  0  0  0  0  0  0  0
  123.4018  108.6419  106.0421 H   0  0  0  0  0  0  0  0  0  0  0  0
  125.7906  109.4191  105.4918 H   0  0  0  0  0  0  0  0  0  0  0  0
  125.4954  107.8534  104.7739 H   0  0  0  0  0  0  0  0  0  0  0  0
  1  6  2  0  0  0  0
  1  8  1  0  0  0  0
  2  5  1  0  0  0  0
  2  6  1  0  0  0  0
  2  7  2  0  0  0  0
  3  5  1  0  0  0  0
  4  8  1  0  0  0  0
  5  9  1  0  0  0  0
  7  8  1  0  0  0  0
  1 10  1  0  0  0  0
  3 11  1  0  0  0  0
  3 12  1  0  0  0  0
  3 13  1  0  0  0  0
  4 14  1  0  0  0  0
  4 15  1  0  0  0  0
  4 16  1  0  0  0  0
  5 17  1  0  0  0  0
  9 18  1  0  0  0  0
  9 19  1  0  0  0  0
M  END
> <FRED Chemgauss4 score>
-5.353911

$$$$
C13373498	P134222500
  -OEChem-05122015313D

 12 11  0     1  0  0  0  0  0999 V2000
  125.6993  108.3606  107.7322 C   0  0  0  0  0  0  0  0  0  0  0  0
  125.6943  104.6405  108.3072 C   0  0  0  0  0  0  0  0  0  0  0  0
  126.0300  106.9519  107.4566 C   0  0  0  0  0  0  0  0  0  0  0  0
  125.8101  106.0601  108.6881 C   0  0  2  0  0  0  0  0  0  0  0  0
  125.4390  109.4707  107.9471 N   0  0  0  0  0  0  0  0  0  0  0  0
  125.6007  103.5223  108.0108 N   0  0  0  0  0  0  0  0  0  0  0  0
  126.9363  106.2270  109.6083 N   0  0  0  0  0  0  0  0  0  0  0  0
  127.0689  106.8843  107.1083 H   0  0  0  0  0  0  0  0  0  0  0  0
  125.3952  106.6089  106.6293 H   0  0  0  0  0  0  0  0  0  0  0  0
  124.8934  106.3686  109.2061 H   0  0  0  0  0  0  0  0  0  0  0  0
  127.1170  105.4969  110.2601 H   0  0  0  0  0  0  0  0  0  0  0  0
  127.3432  107.1320  109.6865 H   0  0  0  0  0  0  0  0  0  0  0  0
  1  3  1  0  0  0  0
  1  5  3  0  0  0  0
  2  4  1  0  0  0  0
  2  6  3  0  0  0  0
  3  4  1  0  0  0  0
  4  7  1  0  0  0  0
  3  8  1  0  0  0  0
  3  9  1  0  0  0  0
  4 10  1  0  0  0  0
  7 11  1  0  0  0  0
  7 12  1  0  0  0  0
M  END
> <FRED Chemgauss4 score>
-5.351653

$$$$
C04692512	P56524089
  -OEChem-05122015313D

 10 10  0     0  0  0  0  0  0999 V2000
  125.9561  107.1734  106.6971 C   0  0  0  0  0  0  0  0  0  0  0  0
  123.9857  106.4840  106.1043 C   0  0  0  0  0  0  0  0  0  0  0  0
  125.3850  108.1445  106.0208 N   0  0  0  0  0  0  0  0  0  0  0  0
  124.1315  107.7058  105.6437 N   0  0  0  0  0  0  0  0  0  0  0  0
  125.1105  106.1086  106.7741 N   0  0  0  0  0  0  0  0  0  0  0  0
  125.3491  104.8784  107.4119 N   0  0  0  0  0  0  0  0  0  0  0  0
  126.9437  107.1897  107.1361 H   0  0  0  0  0  0  0  0  0  0  0  0
  123.1176  105.8510  105.9851 H   0  0  0  0  0  0  0  0  0  0  0  0
  126.3383  104.5974  107.4083 H   0  0  0  0  0  0  0  0  0  0  0  0
  124.8605  104.0895  106.9681 H   0  0  0  0  0  0  0  0  0  0  0  0
  1  3  2  0  0  0  0
  1  5  1  0  0  0  0
  2  4  2  0  0  0  0
  2  5  1  0  0  0  0
  3  4  1  0  0  0  0
  5  6  1  0  0  0  0
  1  7  1  0  0  0  0
  2  8  1  0  0  0  0
  6  9  1  0  0  0  0
  6 10  1  0  0  0  0
M  END
> <FRED Chemgauss4 score>
-5.301157

$$$$
C91692968	P143547631
  -OEChem-05122015313D

 14 14  0     0  0  0  0  0  0999 V2000
  125.5167  105.3309  106.8813 C   0  0  0  0  0  0  0  0  0  0  0  0
  126.4843  105.7650  108.8553 C   0  0  0  0  0  0  0  0  0  0  0  0
  125.6887  106.5704  107.7963 C   0  0  0  0  0  0  0  0  0  0  0  0
  126.7312  108.6535  107.9825 N   0  0  0  0  0  0  0  0  0  0  0  0
  126.5980  107.5067  107.1447 N   0  0  0  0  0  0  0  0  0  0  0  0
  125.5292  104.2761  108.3791 S   0  0  0  0  0  0  0  0  0  0  0  0
  124.5834  105.3116  106.3106 H   0  0  0  0  0  0  0  0  0  0  0  0
  126.3464  105.1035  106.2023 H   0  0  0  0  0  0  0  0  0  0  0  0
  127.5593  105.6499  108.6755 H   0  0  0  0  0  0  0  0  0  0  0  0
  126.3369  106.0982  109.8867 H   0  0  0  0  0  0  0  0  0  0  0  0
  124.7571  107.0164  108.1514 H   0  0  0  0  0  0  0  0  0  0  0  0
  126.2205  108.5017  108.8518 H   0  0  0  0  0  0  0  0  0  0  0  0
  127.7104  108.7508  108.2483 H   0  0  0  0  0  0  0  0  0  0  0  0
  126.2064  107.7878  106.2480 H   0  0  0  0  0  0  0  0  0  0  0  0
  1  3  1  0  0  0  0
  1  6  1  0  0  0  0
  2  3  1  0  0  0  0
  2  6  1  0  0  0  0
  3  5  1  0  0  0  0
  4  5  1  0  0  0  0
  1  7  1  0  0  0  0
  1  8  1  0  0  0  0
  2  9  1  0  0  0  0
  2 10  1  0  0  0  0
  3 11  1  0  0  0  0
  4 12  1  0  0  0  0
  4 13  1  0  0  0  0
  5 14  1  0  0  0  0
M  END
> <FRED Chemgauss4 score>
-5.288825

$$$$
C73658704	P114715255
  -OEChem-05122015313D

 15 15  0     0  0  0  0  0  0999 V2000
  126.2295  107.3146  107.5305 C   0  0  0  0  0  0  0  0  0  0  0  0
  125.2436  107.1649  108.6473 C   0  0  0  0  0  0  0  0  0  0  0  0
  125.6218  105.2942  106.4929 C   0  0  0  0  0  0  0  0  0  0  0  0
  124.9514  104.9474  107.8137 C   0  0  0  0  0  0  0  0  0  0  0  0
  126.4558  106.4966  106.5661 N   0  0  0  0  0  0  0  0  0  0  0  0
  124.2694  106.1335  108.3143 N   0  0  0  0  0  0  0  0  0  0  0  0
  126.9614  108.4447  107.6511 O   0  0  0  0  0  0  0  0  0  0  0  0
  125.7897  106.9036  109.5607 H   0  0  0  0  0  0  0  0  0  0  0  0
  124.7276  108.1162  108.8095 H   0  0  0  0  0  0  0  0  0  0  0  0
  126.2489  104.4527  106.1785 H   0  0  0  0  0  0  0  0  0  0  0  0
  124.8679  105.4413  105.7100 H   0  0  0  0  0  0  0  0  0  0  0  0
  124.2247  104.1438  107.6532 H   0  0  0  0  0  0  0  0  0  0  0  0
  125.6840  104.5822  108.5439 H   0  0  0  0  0  0  0  0  0  0  0  0
  123.7303  105.8980  109.1467 H   0  0  0  0  0  0  0  0  0  0  0  0
  127.5988  108.5340  106.9221 H   0  0  0  0  0  0  0  0  0  0  0  0
  1  2  1  0  0  0  0
  1  5  2  0  0  0  0
  1  7  1  0  0  0  0
  2  6  1  0  0  0  0
  3  4  1  0  0  0  0
  3  5  1  0  0  0  0
  4  6  1  0  0  0  0
  2  8  1  0  0  0  0
  2  9  1  0  0  0  0
  3 10  1  0  0  0  0
  3 11  1  0  0  0  0
  4 12  1  0  0  0  0
  4 13  1  0  0  0  0
  6 14  1  0  0  0  0
  7 15  1  0  0  0  0
M  END
> <FRED Chemgauss4 score>
-5.255079

$$$$
C95616413	P150349637
  -OEChem-05122015313D

 18 18  0     1  0  0  0  0  0999 V2000
  124.9685  105.3886  107.3739 C   0  0  0  0  0  0  0  0  0  0  0  0
  125.3600  104.3667  108.4379 C   0  0  0  0  0  0  0  0  0  0  0  0
  126.6031  106.3188  108.8228 C   0  0  0  0  0  0  0  0  0  0  0  0
  126.1049  106.4026  107.3910 C   0  0  2  0  0  0  0  0  0  0  0  0
  126.5818  104.8768  109.0653 N   0  0  0  0  0  0  0  0  0  0  0  0
  126.8142  108.6025  107.0399 N   0  0  0  0  0  0  0  0  0  0  0  0
  125.6762  107.7385  107.0158 N   0  0  0  0  0  0  0  0  0  0  0  0
  124.8493  104.9345  106.3846 H   0  0  0  0  0  0  0  0  0  0  0  0
  124.0129  105.8532  107.6484 H   0  0  0  0  0  0  0  0  0  0  0  0
  124.5584  104.2636  109.1778 H   0  0  0  0  0  0  0  0  0  0  0  0
  125.5461  103.3817  107.9991 H   0  0  0  0  0  0  0  0  0  0  0  0
  127.6103  106.7302  108.9382 H   0  0  0  0  0  0  0  0  0  0  0  0
  125.9316  106.8318  109.5227 H   0  0  0  0  0  0  0  0  0  0  0  0
  126.8957  106.0732  106.7037 H   0  0  0  0  0  0  0  0  0  0  0  0
  126.5921  104.6732  110.0629 H   0  0  0  0  0  0  0  0  0  0  0  0
  126.6719  109.3311  107.7389 H   0  0  0  0  0  0  0  0  0  0  0  0
  127.6261  108.0716  107.3525 H   0  0  0  0  0  0  0  0  0  0  0  0
  125.2901  107.7241  106.0710 H   0  0  0  0  0  0  0  0  0  0  0  0
  1  2  1  0  0  0  0
  1  4  1  0  0  0  0
  2  5  1  0  0  0  0
  3  4  1  0  0  0  0
  3  5  1  0  0  0  0
  4  7  1  0  0  0  0
  6  7  1  0  0  0  0
  1  8  1  0  0  0  0
  1  9  1  0  0  0  0
  2 10  1  0  0  0  0
  2 11  1  0  0  0  0
  3 12  1  0  0  0  0
  3 13  1  0  0  0  0
  4 14  1  0  0  0  0
  5 15  1  0  0  0  0
  6 16  1  0  0  0  0
  6 17  1  0  0  0  0
  7 18  1  0  0  0  0
M  END
> <FRED Chemgauss4 score>
-5.186793

$$$$
C01612596	P07653838
  -OEChem-05122015313D

 15 14  0     0  0  0  0  0  0999 V2000
  124.9157  106.7585  108.3966 C   0  0  0  0  0  0  0  0  0  0  0  0
  126.3240  106.1924  108.3846 C   0  0  0  0  0  0  0  0  0  0  0  0
  125.3706  109.0681  107.9145 C   0  0  0  0  0  0  0  0  0  0  0  0
  124.9390  108.1366  108.9380 N   0  0  0  0  0  0  0  0  0  0  0  0
  126.8489  106.2043  109.7060 O   0  0  0  0  0  0  0  0  0  0  0  0
  126.7872  109.0337  107.7806 O   0  0  0  0  0  0  0  0  0  0  0  0
  124.4936  106.7936  107.3872 H   0  0  0  0  0  0  0  0  0  0  0  0
  124.2668  106.1519  109.0354 H   0  0  0  0  0  0  0  0  0  0  0  0
  126.9720  106.8131  107.7580 H   0  0  0  0  0  0  0  0  0  0  0  0
  126.3414  105.1645  108.0080 H   0  0  0  0  0  0  0  0  0  0  0  0
  124.9377  108.8161  106.9404 H   0  0  0  0  0  0  0  0  0  0  0  0
  125.0885  110.0933  108.1757 H   0  0  0  0  0  0  0  0  0  0  0  0
  124.0031  108.3671  109.2458 H   0  0  0  0  0  0  0  0  0  0  0  0
  127.7457  105.8363  109.6538 H   0  0  0  0  0  0  0  0  0  0  0  0
  127.0236  109.6721  107.0862 H   0  0  0  0  0  0  0  0  0  0  0  0
  1  2  1  0  0  0  0
  1  4  1  0  0  0  0
  2  5  1  0  0  0  0
  3  4  1  0  0  0  0
  3  6  1  0  0  0  0
  1  7  1  0  0  0  0
  1  8  1  0  0  0  0
  2  9  1  0  0  0  0
  2 10  1  0  0  0  0
  3 11  1  0  0  0  0
  3 12  1  0  0  0  0
  4 13  1  0  0  0  0
  5 14  1  0  0  0  0
  6 15  1  0  0  0  0
M  END
> <FRED Chemgauss4 score>
-5.112453

$$$$
C34345807	P79172765
  -OEChem-05122015313D

 13 12  0     0  0  0  0  0  0999 V2000
  126.1564  106.3252  108.6803 C   0  0  0  0  0  0  0  0  0  0  0  0
  125.0560  108.3063  107.6160 C   0  0  0  0  0  0  0  0  0  0  0  0
  125.5245  105.4503  107.9415 N   0  0  0  0  0  0  0  0  0  0  0  0
  127.0799  106.0309  109.6602 N   0  0  0  0  0  0  0  0  0  0  0  0
  125.9610  107.6890  108.5556 N   0  0  0  0  0  0  0  0  0  0  0  0
  125.9167  104.1522  108.2824 O   0  0  0  0  0  0  0  0  0  0  0  0
  125.5734  108.5116  106.6753 H   0  0  0  0  0  0  0  0  0  0  0  0
  124.6750  109.2478  108.0208 H   0  0  0  0  0  0  0  0  0  0  0  0
  124.2100  107.6434  107.4148 H   0  0  0  0  0  0  0  0  0  0  0  0
  127.3311  105.0713  109.8711 H   0  0  0  0  0  0  0  0  0  0  0  0
  127.5341  106.7609  110.1979 H   0  0  0  0  0  0  0  0  0  0  0  0
  126.4841  108.3148  109.1617 H   0  0  0  0  0  0  0  0  0  0  0  0
  125.3816  103.6197  107.6699 H   0  0  0  0  0  0  0  0  0  0  0  0
  1  3  2  0  0  0  0
  1  4  1  0  0  0  0
  1  5  1  0  0  0  0
  2  5  1  0  0  0  0
  3  6  1  0  0  0  0
  2  7  1  0  0  0  0
  2  8  1  0  0  0  0
  2  9  1  0  0  0  0
  4 10  1  0  0  0  0
  4 11  1  0  0  0  0
  5 12  1  0  0  0  0
  6 13  1  0  0  0  0
M  END
> <FRED Chemgauss4 score>
-5.089720

$$$$
C19168368	P54306310
  -OEChem-05122015313D

 18 18  0     0  0  0  0  0  0999 V2000
  124.8302  107.8835  106.8196 C   0  0  0  0  0  0  0  0  0  0  0  0
  124.2346  105.5511  106.8624 C   0  0  0  0  0  0  0  0  0  0  0  0
  126.0152  107.5989  107.7466 C   0  0  0  0  0  0  0  0  0  0  0  0
  125.4192  105.2646  107.7894 C   0  0  0  0  0  0  0  0  0  0  0  0
  124.4949  106.7116  106.0111 N   0  0  0  0  0  0  0  0  0  0  0  0
  125.7261  106.4449  108.6080 N   0  0  0  0  0  0  0  0  0  0  0  0
  126.8957  106.1607  109.3917 N   0  0  0  0  0  0  0  0  0  0  0  0
  123.9563  108.1655  107.4171 H   0  0  0  0  0  0  0  0  0  0  0  0
  125.0507  108.7356  106.1646 H   0  0  0  0  0  0  0  0  0  0  0  0
  124.0152  104.6754  106.2389 H   0  0  0  0  0  0  0  0  0  0  0  0
  123.3377  105.7425  107.4620 H   0  0  0  0  0  0  0  0  0  0  0  0
  126.8962  107.3905  107.1266 H   0  0  0  0  0  0  0  0  0  0  0  0
  126.2399  108.4956  108.3416 H   0  0  0  0  0  0  0  0  0  0  0  0
  125.1919  104.3907  108.4167 H   0  0  0  0  0  0  0  0  0  0  0  0
  126.2874  105.0041  107.1708 H   0  0  0  0  0  0  0  0  0  0  0  0
  123.6536  106.9160  105.4708 H   0  0  0  0  0  0  0  0  0  0  0  0
  127.1340  106.9914  109.9222 H   0  0  0  0  0  0  0  0  0  0  0  0
  127.6669  105.9849  108.7576 H   0  0  0  0  0  0  0  0  0  0  0  0
  1  3  1  0  0  0  0
  1  5  1  0  0  0  0
  2  4  1  0  0  0  0
  2  5  1  0  0  0  0
  3  6  1  0  0  0  0
  4  6  1  0  0  0  0
  6  7  1  0  0  0  0
  1  8  1  0  0  0  0
  1  9  1  0  0  0  0
  2 10  1  0  0  0  0
  2 11  1  0  0  0  0
  3 12  1  0  0  0  0
  3 13  1  0  0  0  0
  4 14  1  0  0  0  0
  4 15  1  0  0  0  0
  5 16  1  0  0  0  0
  7 17  1  0  0  0  0
  7 18  1  0  0  0  0
M  END
> <FRED Chemgauss4 score>
-5.044052

$$$$
C34865858	P90661520
  -OEChem-05122015313D

 17 16  0     0  0  0  0  0  0999 V2000
  126.0202  106.1351  107.2583 C   0  0  0  0  0  0  0  0  0  0  0  0
  125.3855  105.1187  107.1757 C   0  0  0  0  0  0  0  0  0  0  0  0
  126.7976  107.3784  107.3592 C   0  0  0  0  0  0  0  0  0  0  0  0
  124.6142  103.8762  107.0760 C   0  0  0  0  0  0  0  0  0  0  0  0
  125.8784  108.5851  107.5324 C   0  0  0  0  0  0  0  0  0  0  0  0
  123.1929  104.1578  106.9208 N   0  0  0  0  0  0  0  0  0  0  0  0
  124.9585  108.6881  106.4056 N   0  0  0  0  0  0  0  0  0  0  0  0
  127.4093  107.4985  106.4568 H   0  0  0  0  0  0  0  0  0  0  0  0
  127.4886  107.3061  108.2079 H   0  0  0  0  0  0  0  0  0  0  0  0
  124.7690  103.2615  107.9689 H   0  0  0  0  0  0  0  0  0  0  0  0
  124.9586  103.2951  106.2142 H   0  0  0  0  0  0  0  0  0  0  0  0
  126.4674  109.5071  107.6066 H   0  0  0  0  0  0  0  0  0  0  0  0
  125.3001  108.4930  108.4589 H   0  0  0  0  0  0  0  0  0  0  0  0
  122.8030  104.9179  107.4375 H   0  0  0  0  0  0  0  0  0  0  0  0
  122.6219  103.4717  106.4734 H   0  0  0  0  0  0  0  0  0  0  0  0
  125.3030  108.4708  105.4946 H   0  0  0  0  0  0  0  0  0  0  0  0
  124.0908  109.1603  106.5476 H   0  0  0  0  0  0  0  0  0  0  0  0
  1  2  3  0  0  0  0
  1  3  1  0  0  0  0
  2  4  1  0  0  0  0
  3  5  1  0  0  0  0
  4  6  1  0  0  0  0
  5  7  1  0  0  0  0
  3  8  1  0  0  0  0
  3  9  1  0  0  0  0
  4 10  1  0  0  0  0
  4 11  1  0  0  0  0
  5 12  1  0  0  0  0
  5 13  1  0  0  0  0
  6 14  1  0  0  0  0
  6 15  1  0  0  0  0
  7 16  1  0  0  0  0
  7 17  1  0  0  0  0
M  END
> <FRED Chemgauss4 score>
-5.040268

$$$$
C19171869	P28313982
  -OEChem-05122015313D

 19 18  0     0  0  0  0  0  0999 V2000
  125.5986  104.9911  108.1250 C   0  0  0  0  0  0  0  0  0  0  0  0
  124.0965  108.9767  108.5487 C   0  0  0  0  0  0  0  0  0  0  0  0
  125.9228  106.1261  107.1772 C   0  0  0  0  0  0  0  0  0  0  0  0
  124.8047  107.6349  108.5901 C   0  0  0  0  0  0  0  0  0  0  0  0
  123.3116  110.7689  109.8295 N   0  0  0  0  0  0  0  0  0  0  0  0
  123.9571  109.5074  109.9241 N   0  0  0  0  0  0  0  0  0  0  0  0
  124.9046  107.1128  107.2713 O   0  0  0  0  0  0  0  0  0  0  0  0
  125.5516  105.3466  109.1580 H   0  0  0  0  0  0  0  0  0  0  0  0
  124.6387  104.5331  107.8647 H   0  0  0  0  0  0  0  0  0  0  0  0
  126.3560  104.2032  108.0567 H   0  0  0  0  0  0  0  0  0  0  0  0
  124.6595  109.7045  107.9557 H   0  0  0  0  0  0  0  0  0  0  0  0
  123.0948  108.8657  108.1227 H   0  0  0  0  0  0  0  0  0  0  0  0
  125.9683  105.7638  106.1459 H   0  0  0  0  0  0  0  0  0  0  0  0
  126.8817  106.5831  107.4392 H   0  0  0  0  0  0  0  0  0  0  0  0
  124.2282  106.9253  109.1916 H   0  0  0  0  0  0  0  0  0  0  0  0
  125.8116  107.7240  109.0107 H   0  0  0  0  0  0  0  0  0  0  0  0
  123.0103  110.9320  108.8690 H   0  0  0  0  0  0  0  0  0  0  0  0
  122.4584  110.7258  110.3853 H   0  0  0  0  0  0  0  0  0  0  0  0
  124.8830  109.6163  110.3164 H   0  0  0  0  0  0  0  0  0  0  0  0
  1  3  1  0  0  0  0
  2  4  1  0  0  0  0
  2  6  1  0  0  0  0
  3  7  1  0  0  0  0
  4  7  1  0  0  0  0
  5  6  1  0  0  0  0
  1  8  1  0  0  0  0
  1  9  1  0  0  0  0
  1 10  1  0  0  0  0
  2 11  1  0  0  0  0
  2 12  1  0  0  0  0
  3 13  1  0  0  0  0
  3 14  1  0  0  0  0
  4 15  1  0  0  0  0
  4 16  1  0  0  0  0
  5 17  1  0  0  0  0
  5 18  1  0  0  0  0
  6 19  1  0  0  0  0
M  END
> <FRED Chemgauss4 score>
-4.969528

$$$$
C91692967	P143547969
  -OEChem-05122015313D

 15 15  0     0  0  0  0  0  0999 V2000
  123.1099  105.2246  108.5071 C   0  0  0  0  0  0  0  0  0  0  0  0
  124.6183  104.6592  107.2009 C   0  0  0  0  0  0  0  0  0  0  0  0
  124.5974  104.9036  108.7175 C   0  0  0  0  0  0  0  0  0  0  0  0
  123.1569  104.3978  107.2728 N   0  0  0  0  0  0  0  0  0  0  0  0
  126.6929  105.7980  109.2364 N   0  0  0  0  0  0  0  0  0  0  0  0
  125.3208  106.1290  109.0226 N   0  0  0  0  0  0  0  0  0  0  0  0
  122.4331  104.8457  109.2791 H   0  0  0  0  0  0  0  0  0  0  0  0
  122.8524  106.2719  108.3051 H   0  0  0  0  0  0  0  0  0  0  0  0
  124.8642  105.5185  106.5646 H   0  0  0  0  0  0  0  0  0  0  0  0
  125.2149  103.8034  106.8707 H   0  0  0  0  0  0  0  0  0  0  0  0
  124.8135  104.0406  109.3463 H   0  0  0  0  0  0  0  0  0  0  0  0
  122.9379  103.4156  107.4440 H   0  0  0  0  0  0  0  0  0  0  0  0
  126.8347  104.8040  109.0585 H   0  0  0  0  0  0  0  0  0  0  0  0
  127.2599  106.2880  108.5457 H   0  0  0  0  0  0  0  0  0  0  0  0
  124.9406  106.5462  109.8711 H   0  0  0  0  0  0  0  0  0  0  0  0
  1  3  1  0  0  0  0
  1  4  1  0  0  0  0
  2  3  1  0  0  0  0
  2  4  1  0  0  0  0
  3  6  1  0  0  0  0
  5  6  1  0  0  0  0
  1  7  1  0  0  0  0
  1  8  1  0  0  0  0
  2  9  1  0  0  0  0
  2 10  1  0  0  0  0
  3 11  1  0  0  0  0
  4 12  1  0  0  0  0
  5 13  1  0  0  0  0
  5 14  1  0  0  0  0
  6 15  1  0  0  0  0
M  END
> <FRED Chemgauss4 score>
-4.534045

$$$$
C95116282	P149156999
  -OEChem-05122015313D

 13 12  0     0  0  0  0  0  0999 V2000
  125.3669  105.8101  108.3692 C   0  0  0  0  0  0  0  0  0  0  0  0
  124.8841  107.2130  108.7064 C   0  0  0  0  0  0  0  0  0  0  0  0
  124.5938  104.9584  107.7495 N   0  0  0  0  0  0  0  0  0  0  0  0
  127.1015  106.0309  109.9775 N   0  0  0  0  0  0  0  0  0  0  0  0
  126.6587  105.5311  108.7698 N   0  0  0  0  0  0  0  0  0  0  0  0
  125.2352  103.7355  107.5414 O   0  0  0  0  0  0  0  0  0  0  0  0
  124.4147  107.2123  109.6945 H   0  0  0  0  0  0  0  0  0  0  0  0
  125.7143  107.9249  108.7184 H   0  0  0  0  0  0  0  0  0  0  0  0
  124.1574  107.5408  107.9573 H   0  0  0  0  0  0  0  0  0  0  0  0
  128.1170  106.1095  109.9415 H   0  0  0  0  0  0  0  0  0  0  0  0
  126.7496  106.9816  110.0822 H   0  0  0  0  0  0  0  0  0  0  0  0
  127.2549  104.8783  108.2713 H   0  0  0  0  0  0  0  0  0  0  0  0
  124.5444  103.2281  107.0827 H   0  0  0  0  0  0  0  0  0  0  0  0
  1  2  1  0  0  0  0
  1  3  2  0  0  0  0
  1  5  1  0  0  0  0
  3  6  1  0  0  0  0
  4  5  1  0  0  0  0
  2  7  1  0  0  0  0
  2  8  1  0  0  0  0
  2  9  1  0  0  0  0
  4 10  1  0  0  0  0
  4 11  1  0  0  0  0
  5 12  1  0  0  0  0
  6 13  1  0  0  0  0
M  END
> <FRED Chemgauss4 score>
-4.244709

$$$$
C97950844	P155523258
  -OEChem-05122015313D

 11 11  0     1  0  0  0  0  0999 V2000
  126.8635  107.3643  107.1777 C   0  0  2  0  0  0  0  0  0  0  0  0
  125.9209  106.4028  106.5682 N   0  0  0  0  0  0  0  0  0  0  0  0
  125.5389  105.5905  107.4491 N   0  0  0  0  0  0  0  0  0  0  0  0
  126.9719  106.9968  108.5838 N   0  0  0  0  0  0  0  0  0  0  0  0
  126.1319  105.9127  108.6194 N   0  0  0  0  0  0  0  0  0  0  0  0
  126.4355  108.7523  107.0485 N   0  0  0  0  0  0  0  0  0  0  0  0
  127.8368  107.2470  106.6867 H   0  0  0  0  0  0  0  0  0  0  0  0
  126.5409  107.7196  109.1592 H   0  0  0  0  0  0  0  0  0  0  0  0
  125.9426  105.3741  109.4548 H   0  0  0  0  0  0  0  0  0  0  0  0
  125.9811  109.0286  106.2041 H   0  0  0  0  0  0  0  0  0  0  0  0
  126.7856  109.4164  107.7062 H   0  0  0  0  0  0  0  0  0  0  0  0
  1  2  1  0  0  0  0
  1  4  1  0  0  0  0
  1  6  1  0  0  0  0
  2  3  2  0  0  0  0
  3  5  1  0  0  0  0
  4  5  1  0  0  0  0
  1  7  1  0  0  0  0
  4  8  1  0  0  0  0
  5  9  1  0  0  0  0
  6 10  1  0  0  0  0
  6 11  1  0  0  0  0
M  END
> <FRED Chemgauss4 score>
-3.855083

$$$$
