5C_CG2012	P10000008
  -OEChem-05182014473D

 36 37  0     1  0  0  0  0  0999 V2000
  114.6407  105.7880  103.7684 C   0  0  0  0  0  0  0  0  0  0  0  0
  115.6497  105.0374  103.1650 C   0  0  0  0  0  0  0  0  0  0  0  0
  114.8809  106.4304  104.9830 C   0  0  0  0  0  0  0  0  0  0  0  0
  116.8988  104.9291  103.7762 C   0  0  0  0  0  0  0  0  0  0  0  0
  116.1300  106.3222  105.5942 C   0  0  0  0  0  0  0  0  0  0  0  0
  118.9147  106.4995  106.4200 C   0  0  0  0  0  0  0  0  0  0  0  0
  119.2043  104.3106  105.4394 C   0  0  0  0  0  0  0  0  0  0  0  0
  120.1640  106.3912  107.0308 C   0  0  0  0  0  0  0  0  0  0  0  0
  120.4537  104.2022  106.0502 C   0  0  0  0  0  0  0  0  0  0  0  0
  117.1390  105.5715  104.9908 C   0  0  0  0  0  0  0  0  0  0  0  0
  118.4348  105.4592  105.6243 C   0  0  0  0  0  0  0  0  0  0  0  0
  120.9335  105.2426  106.8459 C   0  0  0  0  0  0  0  0  0  0  0  0
  122.2634  105.1273  107.4961 C   0  0  0  0  0  0  0  0  0  0  0  0
  124.9301  107.1966  106.0303 C   0  0  0  0  0  0  0  0  0  0  0  0
  124.5683  104.8470  107.0668 C   0  0  0  0  0  0  0  0  0  0  0  0
  125.2220  106.2205  107.1832 C   0  0  2  0  0  0  0  0  0  0  0  0
  124.8716  106.7814  108.5270 N   0  3  0  0  0  0  0  0  0  0  0  0
  123.7157  107.4710  105.8228 O   0  5  0  0  0  0  0  0  0  0  0  0
  122.4233  105.1699  108.7060 O   0  0  0  0  0  0  0  0  0  0  0  0
  125.9555  107.5984  105.4076 O   0  0  0  0  0  0  0  0  0  0  0  0
  123.2434  104.9706  106.5643 O   0  0  0  0  0  0  0  0  0  0  0  0
  113.6687  105.8735  103.2915 H   0  0  0  0  0  0  0  0  0  0  0  0
  115.4633  104.5385  102.2185 H   0  0  0  0  0  0  0  0  0  0  0  0
  114.0962  107.0162  105.4528 H   0  0  0  0  0  0  0  0  0  0  0  0
  117.6752  104.3405  103.2930 H   0  0  0  0  0  0  0  0  0  0  0  0
  116.3028  106.8290  106.5407 H   0  0  0  0  0  0  0  0  0  0  0  0
  118.3267  107.4012  106.5737 H   0  0  0  0  0  0  0  0  0  0  0  0
  118.8440  103.4911  104.8220 H   0  0  0  0  0  0  0  0  0  0  0  0
  120.5283  107.2079  107.6488 H   0  0  0  0  0  0  0  0  0  0  0  0
  121.0450  103.3027  105.8993 H   0  0  0  0  0  0  0  0  0  0  0  0
  124.5208  104.3537  108.0439 H   0  0  0  0  0  0  0  0  0  0  0  0
  125.1348  104.2011  106.3878 H   0  0  0  0  0  0  0  0  0  0  0  0
  126.3103  106.0847  107.2080 H   0  0  0  0  0  0  0  0  0  0  0  0
  123.8706  106.9735  108.5790 H   0  0  0  0  0  0  0  0  0  0  0  0
  125.3809  107.6511  108.6893 H   0  0  0  0  0  0  0  0  0  0  0  0
  125.1163  106.1163  109.2615 H   0  0  0  0  0  0  0  0  0  0  0  0
  1  2  1  0  0  0  0
  1  3  2  0  0  0  0
  2  4  2  0  0  0  0
  3  5  1  0  0  0  0
  4 10  1  0  0  0  0
  5 10  2  0  0  0  0
  6  8  2  0  0  0  0
  6 11  1  0  0  0  0
  7  9  1  0  0  0  0
  7 11  2  0  0  0  0
  8 12  1  0  0  0  0
  9 12  2  0  0  0  0
 10 11  1  0  0  0  0
 12 13  1  0  0  0  0
 13 19  2  0  0  0  0
 13 21  1  0  0  0  0
 14 16  1  0  0  0  0
 14 18  1  0  0  0  0
 14 20  2  0  0  0  0
 15 16  1  0  0  0  0
 15 21  1  0  0  0  0
 16 17  1  0  0  0  0
  1 22  1  0  0  0  0
  2 23  1  0  0  0  0
  3 24  1  0  0  0  0
  4 25  1  0  0  0  0
  5 26  1  0  0  0  0
  6 27  1  0  0  0  0
  7 28  1  0  0  0  0
  8 29  1  0  0  0  0
  9 30  1  0  0  0  0
 15 31  1  0  0  0  0
 15 32  1  0  0  0  0
 16 33  1  0  0  0  0
 17 34  1  0  0  0  0
 17 35  1  0  0  0  0
 17 36  1  0  0  0  0
M  CHG  2  17   1  18  -1
M  END
> <FRED Chemgauss4 score>
-13.919043

$$$$
2C_CG2012	P10000014
  -OEChem-05182014473D

 37 39  0     1  0  0  0  0  0999 V2000
  117.2341  104.9385   99.4023 C   0  0  0  0  0  0  0  0  0  0  0  0
  118.3296  105.0530   98.5293 C   0  0  0  0  0  0  0  0  0  0  0  0
  117.4190  104.9067  100.7879 C   0  0  0  0  0  0  0  0  0  0  0  0
  118.5412  104.8908  103.8470 C   0  0  0  0  0  0  0  0  0  0  0  0
  119.2962  104.9096  105.0237 C   0  0  0  0  0  0  0  0  0  0  0  0
  119.6323  105.1380   99.0241 C   0  0  0  0  0  0  0  0  0  0  0  0
  121.3707  105.1138  103.7632 C   0  0  0  0  0  0  0  0  0  0  0  0
  118.7111  104.9908  101.2790 C   0  0  0  0  0  0  0  0  0  0  0  0
  119.2095  104.9838  102.6376 C   0  0  0  0  0  0  0  0  0  0  0  0
  120.6968  105.0201  104.9821 C   0  0  0  0  0  0  0  0  0  0  0  0
  119.8084  105.1059  100.3963 C   0  0  0  0  0  0  0  0  0  0  0  0
  120.6177  105.0945  102.6024 C   0  0  0  0  0  0  0  0  0  0  0  0
  121.4522  105.0366  106.2252 C   0  0  0  0  0  0  0  0  0  0  0  0
  124.5901  107.0432  105.5451 C   0  0  0  0  0  0  0  0  0  0  0  0
  121.1071  105.1808  101.1718 C   0  0  0  0  0  0  0  0  0  0  0  0
  123.7378  105.0077  106.9076 C   0  0  0  0  0  0  0  0  0  0  0  0
  124.8542  105.6203  106.0675 C   0  0  2  0  0  0  0  0  0  0  0  0
  126.1272  105.5115  106.8491 N   0  3  0  0  0  0  0  0  0  0  0  0
  125.6010  107.7869  105.4102 O   0  5  0  0  0  0  0  0  0  0  0  0
  121.0234  105.4791  107.2989 O   0  0  0  0  0  0  0  0  0  0  0  0
  123.3720  107.3071  105.3281 O   0  0  0  0  0  0  0  0  0  0  0  0
  122.7000  104.4998  106.0624 O   0  0  0  0  0  0  0  0  0  0  0  0
  116.2291  104.8747   98.9929 H   0  0  0  0  0  0  0  0  0  0  0  0
  118.1586  105.0756   97.4563 H   0  0  0  0  0  0  0  0  0  0  0  0
  116.5632  104.8181  101.4490 H   0  0  0  0  0  0  0  0  0  0  0  0
  117.4608  104.8051  103.8944 H   0  0  0  0  0  0  0  0  0  0  0  0
  118.7827  104.8369  105.9799 H   0  0  0  0  0  0  0  0  0  0  0  0
  120.4766  105.2259   98.3492 H   0  0  0  0  0  0  0  0  0  0  0  0
  122.4519  105.1987  103.7204 H   0  0  0  0  0  0  0  0  0  0  0  0
  121.7521  104.3308  100.9308 H   0  0  0  0  0  0  0  0  0  0  0  0
  121.6112  106.1347  100.9918 H   0  0  0  0  0  0  0  0  0  0  0  0
  123.2999  105.7549  107.5787 H   0  0  0  0  0  0  0  0  0  0  0  0
  124.1174  104.1828  107.5198 H   0  0  0  0  0  0  0  0  0  0  0  0
  125.0092  104.9883  105.1844 H   0  0  0  0  0  0  0  0  0  0  0  0
  126.3992  106.4267  107.2096 H   0  0  0  0  0  0  0  0  0  0  0  0
  126.8770  105.1580  106.2535 H   0  0  0  0  0  0  0  0  0  0  0  0
  126.0046  104.8726  107.6356 H   0  0  0  0  0  0  0  0  0  0  0  0
  1  2  1  0  0  0  0
  1  3  2  0  0  0  0
  2  6  2  0  0  0  0
  3  8  1  0  0  0  0
  4  5  1  0  0  0  0
  4  9  2  0  0  0  0
  5 10  2  0  0  0  0
  6 11  1  0  0  0  0
  7 10  1  0  0  0  0
  7 12  2  0  0  0  0
  8  9  1  0  0  0  0
  8 11  2  0  0  0  0
  9 12  1  0  0  0  0
 10 13  1  0  0  0  0
 11 15  1  0  0  0  0
 12 15  1  0  0  0  0
 13 20  2  0  0  0  0
 13 22  1  0  0  0  0
 14 17  1  0  0  0  0
 14 19  1  0  0  0  0
 14 21  2  0  0  0  0
 16 17  1  0  0  0  0
 16 22  1  0  0  0  0
 17 18  1  0  0  0  0
  1 23  1  0  0  0  0
  2 24  1  0  0  0  0
  3 25  1  0  0  0  0
  4 26  1  0  0  0  0
  5 27  1  0  0  0  0
  6 28  1  0  0  0  0
  7 29  1  0  0  0  0
 15 30  1  0  0  0  0
 15 31  1  0  0  0  0
 16 32  1  0  0  0  0
 16 33  1  0  0  0  0
 17 34  1  0  0  0  0
 18 35  1  0  0  0  0
 18 36  1  0  0  0  0
 18 37  1  0  0  0  0
M  CHG  2  18   1  19  -1
M  END
> <FRED Chemgauss4 score>
-13.134476

$$$$
3C_CG2012	P10000018
  -OEChem-05182014473D

 32 33  0     1  0  0  0  0  0999 V2000
  117.3860  104.4909  103.2741 C   0  0  0  0  0  0  0  0  0  0  0  0
  118.4719  105.0353  102.5950 C   0  0  0  0  0  0  0  0  0  0  0  0
  117.5047  104.1492  104.6215 C   0  0  0  0  0  0  0  0  0  0  0  0
  119.6808  105.2400  103.2607 C   0  0  0  0  0  0  0  0  0  0  0  0
  118.8513  104.0102  106.6636 C   0  0  0  0  0  0  0  0  0  0  0  0
  120.0602  104.2148  107.3293 C   0  0  0  0  0  0  0  0  0  0  0  0
  121.0275  105.1010  105.3027 C   0  0  0  0  0  0  0  0  0  0  0  0
  118.7139  104.3483  105.3074 C   0  0  0  0  0  0  0  0  0  0  0  0
  119.8183  104.9019  104.6168 C   0  0  0  0  0  0  0  0  0  0  0  0
  121.1462  104.7592  106.6501 C   0  0  0  0  0  0  0  0  0  0  0  0
  122.4065  104.9698  107.3444 C   0  0  0  0  0  0  0  0  0  0  0  0
  124.7957  107.2557  105.6994 C   0  0  0  0  0  0  0  0  0  0  0  0
  124.7743  105.0491  107.0620 C   0  0  0  0  0  0  0  0  0  0  0  0
  125.1766  106.5192  106.9954 C   0  0  2  0  0  0  0  0  0  0  0  0
  124.6526  107.1929  108.2262 N   0  3  0  0  0  0  0  0  0  0  0  0
  123.5678  107.2784  105.4083 O   0  5  0  0  0  0  0  0  0  0  0  0
  122.5074  105.2146  108.5539 O   0  0  0  0  0  0  0  0  0  0  0  0
  125.7749  107.7409  105.0618 O   0  0  0  0  0  0  0  0  0  0  0  0
  123.4733  104.8626  106.4943 O   0  0  0  0  0  0  0  0  0  0  0  0
  116.4456  104.3304  102.7548 H   0  0  0  0  0  0  0  0  0  0  0  0
  118.3787  105.3016  101.5461 H   0  0  0  0  0  0  0  0  0  0  0  0
  116.6432  103.7236  105.1319 H   0  0  0  0  0  0  0  0  0  0  0  0
  120.5159  105.6682  102.7100 H   0  0  0  0  0  0  0  0  0  0  0  0
  118.0150  103.5841  107.2140 H   0  0  0  0  0  0  0  0  0  0  0  0
  120.1410  103.9448  108.3792 H   0  0  0  0  0  0  0  0  0  0  0  0
  121.8838  105.5254  104.7807 H   0  0  0  0  0  0  0  0  0  0  0  0
  124.7503  104.6980  108.0995 H   0  0  0  0  0  0  0  0  0  0  0  0
  125.4837  104.4246  106.5087 H   0  0  0  0  0  0  0  0  0  0  0  0
  126.2684  106.5833  107.0805 H   0  0  0  0  0  0  0  0  0  0  0  0
  123.9894  107.9258  107.9720 H   0  0  0  0  0  0  0  0  0  0  0  0
  125.4203  107.6136  108.7513 H   0  0  0  0  0  0  0  0  0  0  0  0
  124.1789  106.5153  108.8246 H   0  0  0  0  0  0  0  0  0  0  0  0
  1  2  1  0  0  0  0
  1  3  2  0  0  0  0
  2  4  2  0  0  0  0
  3  8  1  0  0  0  0
  4  9  1  0  0  0  0
  5  6  2  0  0  0  0
  5  8  1  0  0  0  0
  6 10  1  0  0  0  0
  7  9  1  0  0  0  0
  7 10  2  0  0  0  0
  8  9  2  0  0  0  0
 10 11  1  0  0  0  0
 11 17  2  0  0  0  0
 11 19  1  0  0  0  0
 12 14  1  0  0  0  0
 12 16  1  0  0  0  0
 12 18  2  0  0  0  0
 13 14  1  0  0  0  0
 13 19  1  0  0  0  0
 14 15  1  0  0  0  0
  1 20  1  0  0  0  0
  2 21  1  0  0  0  0
  3 22  1  0  0  0  0
  4 23  1  0  0  0  0
  5 24  1  0  0  0  0
  6 25  1  0  0  0  0
  7 26  1  0  0  0  0
 13 27  1  0  0  0  0
 13 28  1  0  0  0  0
 14 29  1  0  0  0  0
 15 30  1  0  0  0  0
 15 31  1  0  0  0  0
 15 32  1  0  0  0  0
M  CHG  2  15   1  16  -1
M  END
> <FRED Chemgauss4 score>
-12.741322

$$$$
C94262347	P147739855
  -OEChem-05182014473D

 36 38  0     1  0  0  0  0  0999 V2000
  120.5856  104.0212  105.4475 C   0  0  0  0  0  0  0  0  0  0  0  0
  119.6545  103.8659  104.4240 C   0  0  0  0  0  0  0  0  0  0  0  0
  125.8455  106.2832  108.7327 C   0  0  0  0  0  0  0  0  0  0  0  0
  125.1385  104.1962  108.6996 C   0  0  0  0  0  0  0  0  0  0  0  0
  121.4192  105.1287  105.3367 C   0  0  0  0  0  0  0  0  0  0  0  0
  125.4001  105.9228  107.4827 C   0  0  0  0  0  0  0  0  0  0  0  0
  121.3241  106.0182  104.2724 C   0  0  0  0  0  0  0  0  0  0  0  0
  119.6190  104.7971  103.3914 C   0  0  0  0  0  0  0  0  0  0  0  0
  122.9001  106.7594  105.4956 C   0  0  0  0  0  0  0  0  0  0  0  0
  117.6039  105.2112  100.3516 C   0  0  0  0  0  0  0  0  0  0  0  0
  125.3545  106.7636  106.2273 C   0  0  0  0  0  0  0  0  0  0  0  0
  118.6754  105.5824  101.3545 C   0  0  0  0  0  0  0  0  0  0  0  0
  124.0072  107.5416  106.0768 C   0  0  1  0  0  0  0  0  0  0  0  0
  124.9611  104.6225  107.4688 N   0  0  0  0  0  0  0  0  0  0  0  0
  120.4225  105.8800  103.2686 N   0  0  0  0  0  0  0  0  0  0  0  0
  122.2492  107.0255  104.3841 N   0  0  0  0  0  0  0  0  0  0  0  0
  125.6712  105.1670  109.5014 N   0  0  0  0  0  0  0  0  0  0  0  0
  122.4356  105.6255  106.1063 N   0  0  0  0  0  0  0  0  0  0  0  0
  124.3029  108.7767  105.3062 N   0  0  0  0  0  0  0  0  0  0  0  0
  118.6889  104.6162  102.3963 O   0  0  0  0  0  0  0  0  0  0  0  0
  120.6536  103.3239  106.2734 H   0  0  0  0  0  0  0  0  0  0  0  0
  118.9678  103.0250  104.4394 H   0  0  0  0  0  0  0  0  0  0  0  0
  126.2559  107.1983  109.1347 H   0  0  0  0  0  0  0  0  0  0  0  0
  124.9052  103.2083  109.0712 H   0  0  0  0  0  0  0  0  0  0  0  0
  117.8026  104.2290   99.9139 H   0  0  0  0  0  0  0  0  0  0  0  0
  116.6184  105.1931  100.8285 H   0  0  0  0  0  0  0  0  0  0  0  0
  117.5547  105.9529   99.5474 H   0  0  0  0  0  0  0  0  0  0  0  0
  125.5263  106.0939  105.3729 H   0  0  0  0  0  0  0  0  0  0  0  0
  126.2002  107.4639  106.2216 H   0  0  0  0  0  0  0  0  0  0  0  0
  118.4708  106.5657  101.7885 H   0  0  0  0  0  0  0  0  0  0  0  0
  119.6594  105.5993  100.8766 H   0  0  0  0  0  0  0  0  0  0  0  0
  123.7356  107.9051  107.0923 H   0  0  0  0  0  0  0  0  0  0  0  0
  125.8958  105.0753  110.4831 H   0  0  0  0  0  0  0  0  0  0  0  0
  122.7810  105.2263  106.9692 H   0  0  0  0  0  0  0  0  0  0  0  0
  125.2087  109.1528  105.4010 H   0  0  0  0  0  0  0  0  0  0  0  0
  123.5325  109.2522  104.9171 H   0  0  0  0  0  0  0  0  0  0  0  0
  1  2  2  0  0  0  0
  1  5  1  0  0  0  0
  2  8  1  0  0  0  0
  3  6  2  0  0  0  0
  3 17  1  0  0  0  0
  4 14  2  0  0  0  0
  4 17  1  0  0  0  0
  5  7  2  0  0  0  0
  5 18  1  0  0  0  0
  6 11  1  0  0  0  0
  6 14  1  0  0  0  0
  7 15  1  0  0  0  0
  7 16  1  0  0  0  0
  8 15  2  0  0  0  0
  8 20  1  0  0  0  0
  9 13  1  0  0  0  0
  9 16  2  0  0  0  0
  9 18  1  0  0  0  0
 10 12  1  0  0  0  0
 11 13  1  0  0  0  0
 12 20  1  0  0  0  0
 13 19  1  0  0  0  0
  1 21  1  0  0  0  0
  2 22  1  0  0  0  0
  3 23  1  0  0  0  0
  4 24  1  0  0  0  0
 10 25  1  0  0  0  0
 10 26  1  0  0  0  0
 10 27  1  0  0  0  0
 11 28  1  0  0  0  0
 11 29  1  0  0  0  0
 12 30  1  0  0  0  0
 12 31  1  0  0  0  0
 13 32  1  0  0  0  0
 17 33  1  0  0  0  0
 18 34  1  0  0  0  0
 19 35  1  0  0  0  0
 19 36  1  0  0  0  0
M  END
> <FRED Chemgauss4 score>
-11.693546

$$$$
C94263729	P147740637
  -OEChem-05182014473D

 31 33  0     1  0  0  0  0  0999 V2000
  124.4419  104.9180  107.1424 C   0  0  0  0  0  0  0  0  0  0  0  0
  125.3173  105.9845  106.9558 C   0  0  0  0  0  0  0  0  0  0  0  0
  121.5337  104.1799  102.2927 C   0  0  0  0  0  0  0  0  0  0  0  0
  120.0379  105.2223  101.0546 C   0  0  0  0  0  0  0  0  0  0  0  0
  123.2172  105.0271  106.4928 C   0  0  0  0  0  0  0  0  0  0  0  0
  120.2700  104.0565  102.8203 C   0  0  0  0  0  0  0  0  0  0  0  0
  122.8945  106.1300  105.7104 C   0  0  0  0  0  0  0  0  0  0  0  0
  124.9241  107.0543  106.1586 C   0  0  0  0  0  0  0  0  0  0  0  0
  121.1947  104.8523  105.6228 C   0  0  0  0  0  0  0  0  0  0  0  0
  119.8469  103.3266  104.0747 C   0  0  0  0  0  0  0  0  0  0  0  0
  119.8818  104.2426  105.3407 C   0  0  2  0  0  0  0  0  0  0  0  0
  119.3433  104.7074  102.0448 N   0  0  0  0  0  0  0  0  0  0  0  0
  123.7367  107.1759  105.5194 N   0  0  0  0  0  0  0  0  0  0  0  0
  121.6363  106.0080  105.1765 N   0  0  0  0  0  0  0  0  0  0  0  0
  121.3689  104.9289  101.1617 N   0  0  0  0  0  0  0  0  0  0  0  0
  122.1124  104.2230  106.4205 N   0  0  0  0  0  0  0  0  0  0  0  0
  125.8665  108.1077  106.0116 N   0  0  0  0  0  0  0  0  0  0  0  0
  118.8041  105.2561  105.2058 N   0  0  0  0  0  0  0  0  0  0  0  0
  124.7003  104.0620  107.7534 H   0  0  0  0  0  0  0  0  0  0  0  0
  126.2926  105.9662  107.4342 H   0  0  0  0  0  0  0  0  0  0  0  0
  122.5025  103.8171  102.6045 H   0  0  0  0  0  0  0  0  0  0  0  0
  119.6432  105.8106  100.2383 H   0  0  0  0  0  0  0  0  0  0  0  0
  120.5094  102.4576  104.1924 H   0  0  0  0  0  0  0  0  0  0  0  0
  118.8412  102.9080  103.9362 H   0  0  0  0  0  0  0  0  0  0  0  0
  119.5556  103.6088  106.1945 H   0  0  0  0  0  0  0  0  0  0  0  0
  122.0978  105.2146  100.5216 H   0  0  0  0  0  0  0  0  0  0  0  0
  121.9959  103.3267  106.8747 H   0  0  0  0  0  0  0  0  0  0  0  0
  126.7241  108.0543  106.5129 H   0  0  0  0  0  0  0  0  0  0  0  0
  125.6049  108.9120  105.4878 H   0  0  0  0  0  0  0  0  0  0  0  0
  118.8576  106.0422  105.7974 H   0  0  0  0  0  0  0  0  0  0  0  0
  118.0067  104.9902  104.6915 H   0  0  0  0  0  0  0  0  0  0  0  0
  1  2  1  0  0  0  0
  1  5  2  0  0  0  0
  2  8  2  0  0  0  0
  3  6  2  0  0  0  0
  3 15  1  0  0  0  0
  4 12  2  0  0  0  0
  4 15  1  0  0  0  0
  5  7  1  0  0  0  0
  5 16  1  0  0  0  0
  6 10  1  0  0  0  0
  6 12  1  0  0  0  0
  7 13  2  0  0  0  0
  7 14  1  0  0  0  0
  8 13  1  0  0  0  0
  8 17  1  0  0  0  0
  9 11  1  0  0  0  0
  9 14  2  0  0  0  0
  9 16  1  0  0  0  0
 10 11  1  0  0  0  0
 11 18  1  0  0  0  0
  1 19  1  0  0  0  0
  2 20  1  0  0  0  0
  3 21  1  0  0  0  0
  4 22  1  0  0  0  0
 10 23  1  0  0  0  0
 10 24  1  0  0  0  0
 11 25  1  0  0  0  0
 15 26  1  0  0  0  0
 16 27  1  0  0  0  0
 17 28  1  0  0  0  0
 17 29  1  0  0  0  0
 18 30  1  0  0  0  0
 18 31  1  0  0  0  0
M  END
> <FRED Chemgauss4 score>
-11.248054

$$$$
C92781676	P145255482
  -OEChem-05182014473D

 38 40  0     1  0  0  0  0  0999 V2000
  118.6699  105.1349  102.1732 C   0  0  0  0  0  0  0  0  0  0  0  0
  117.4205  105.0270  101.6033 C   0  0  0  0  0  0  0  0  0  0  0  0
  117.5434  103.8911  103.7815 C   0  0  0  0  0  0  0  0  0  0  0  0
  127.3957  105.8412  108.5529 C   0  0  0  0  0  0  0  0  0  0  0  0
  118.7413  104.4768  103.4350 C   0  0  0  0  0  0  0  0  0  0  0  0
  125.5108  105.6402  107.6100 C   0  0  0  0  0  0  0  0  0  0  0  0
  125.2639  105.5315  108.9573 C   0  0  0  0  0  0  0  0  0  0  0  0
  121.9463  105.2933  106.4236 C   0  0  0  0  0  0  0  0  0  0  0  0
  124.4243  105.5689  106.6063 C   0  0  0  0  0  0  0  0  0  0  0  0
  123.9405  105.2982  109.5757 C   0  0  0  0  0  0  0  0  0  0  0  0
  123.1426  105.0027  107.2729 C   0  0  1  0  0  0  0  0  0  0  0  0
  118.9634  105.7119  106.2463 C   0  0  0  0  0  0  0  0  0  0  0  0
  119.9845  104.4291  104.2906 C   0  0  0  0  0  0  0  0  0  0  0  0
  119.6934  104.4441  105.8024 C   0  0  1  0  0  0  0  0  0  0  0  0
  126.8378  105.8380  107.3577 N   0  0  0  0  0  0  0  0  0  0  0  0
  126.4784  105.6575  109.5589 N   0  0  0  0  0  0  0  0  0  0  0  0
  122.8627  105.5964  108.6013 N   0  0  0  0  0  0  0  0  0  0  0  0
  120.9371  104.3559  106.5335 N   0  0  0  0  0  0  0  0  0  0  0  0
  121.9348  106.2958  105.7188 O   0  0  0  0  0  0  0  0  0  0  0  0
  116.3400  104.1353  102.5880 S   0  0  0  0  0  0  0  0  0  0  0  0
  119.4909  105.6623  101.7040 H   0  0  0  0  0  0  0  0  0  0  0  0
  117.0902  105.4296  100.6562 H   0  0  0  0  0  0  0  0  0  0  0  0
  117.3129  103.3318  104.6776 H   0  0  0  0  0  0  0  0  0  0  0  0
  128.4484  105.9695  108.7610 H   0  0  0  0  0  0  0  0  0  0  0  0
  124.2451  106.5728  106.2018 H   0  0  0  0  0  0  0  0  0  0  0  0
  124.7207  104.9279  105.7679 H   0  0  0  0  0  0  0  0  0  0  0  0
  123.8615  104.2541  109.9004 H   0  0  0  0  0  0  0  0  0  0  0  0
  123.8068  105.9376  110.4542 H   0  0  0  0  0  0  0  0  0  0  0  0
  123.2193  103.9082  107.3767 H   0  0  0  0  0  0  0  0  0  0  0  0
  119.5425  106.6065  105.9898 H   0  0  0  0  0  0  0  0  0  0  0  0
  118.7919  105.7205  107.3286 H   0  0  0  0  0  0  0  0  0  0  0  0
  117.9923  105.8034  105.7492 H   0  0  0  0  0  0  0  0  0  0  0  0
  120.5812  103.5448  104.0294 H   0  0  0  0  0  0  0  0  0  0  0  0
  120.6059  105.2937  104.0189 H   0  0  0  0  0  0  0  0  0  0  0  0
  119.0816  103.5770  106.0772 H   0  0  0  0  0  0  0  0  0  0  0  0
  126.6740  105.6215  110.5507 H   0  0  0  0  0  0  0  0  0  0  0  0
  121.9843  105.2282  108.9667 H   0  0  0  0  0  0  0  0  0  0  0  0
  121.0759  103.5670  107.1579 H   0  0  0  0  0  0  0  0  0  0  0  0
  1  2  2  0  0  0  0
  1  5  1  0  0  0  0
  2 20  1  0  0  0  0
  3  5  2  0  0  0  0
  3 20  1  0  0  0  0
  4 15  2  0  0  0  0
  4 16  1  0  0  0  0
  5 13  1  0  0  0  0
  6  7  2  0  0  0  0
  6  9  1  0  0  0  0
  6 15  1  0  0  0  0
  7 10  1  0  0  0  0
  7 16  1  0  0  0  0
  8 11  1  0  0  0  0
  8 18  1  0  0  0  0
  8 19  2  0  0  0  0
  9 11  1  0  0  0  0
 10 17  1  0  0  0  0
 11 17  1  0  0  0  0
 12 14  1  0  0  0  0
 13 14  1  0  0  0  0
 14 18  1  0  0  0  0
  1 21  1  0  0  0  0
  2 22  1  0  0  0  0
  3 23  1  0  0  0  0
  4 24  1  0  0  0  0
  9 25  1  0  0  0  0
  9 26  1  0  0  0  0
 10 27  1  0  0  0  0
 10 28  1  0  0  0  0
 11 29  1  0  0  0  0
 12 30  1  0  0  0  0
 12 31  1  0  0  0  0
 12 32  1  0  0  0  0
 13 33  1  0  0  0  0
 13 34  1  0  0  0  0
 14 35  1  0  0  0  0
 16 36  1  0  0  0  0
 17 37  1  0  0  0  0
 18 38  1  0  0  0  0
M  END
> <FRED Chemgauss4 score>
-11.152527

$$$$
C85909496	P134507222
  -OEChem-05182014473D

 45 46  0     1  0  0  0  0  0999 V2000
  118.7318  103.6501  105.6941 C   0  0  0  0  0  0  0  0  0  0  0  0
  117.6649  105.8143  105.5713 C   0  0  0  0  0  0  0  0  0  0  0  0
  119.9824  104.2676  105.7113 C   0  0  0  0  0  0  0  0  0  0  0  0
  118.9156  106.4318  105.5886 C   0  0  0  0  0  0  0  0  0  0  0  0
  117.5730  104.4235  105.6240 C   0  0  0  0  0  0  0  0  0  0  0  0
  120.0743  105.6584  105.6586 C   0  0  0  0  0  0  0  0  0  0  0  0
  115.6492  104.6874  103.3179 C   0  0  0  0  0  0  0  0  0  0  0  0
  122.5994  105.4659  108.2952 C   0  0  2  0  0  0  0  0  0  0  0  0
  123.9429  106.1736  108.1049 C   0  0  1  0  0  0  0  0  0  0  0  0
  121.4184  106.4186  108.0835 C   0  0  2  0  0  0  0  0  0  0  0  0
  123.9506  106.8900  106.7469 C   0  0  2  0  0  0  0  0  0  0  0  0
  121.5567  107.1616  106.7531 C   0  0  1  0  0  0  0  0  0  0  0  0
  114.3095  105.3437  103.3157 C   0  0  0  0  0  0  0  0  0  0  0  0
  116.2358  103.7636  105.6062 C   0  0  0  0  0  0  0  0  0  0  0  0
  115.7621  103.4498  104.1818 C   0  0  0  0  0  0  0  0  0  0  0  0
  125.2162  107.7076  106.5152 C   0  0  0  0  0  0  0  0  0  0  0  0
  116.5607  105.1550  102.6474 O   0  0  0  0  0  0  0  0  0  0  0  0
  122.8392  107.7902  106.6414 O   0  0  0  0  0  0  0  0  0  0  0  0
  122.5430  104.8711  109.5863 O   0  0  0  0  0  0  0  0  0  0  0  0
  124.1403  107.1090  109.1642 O   0  0  0  0  0  0  0  0  0  0  0  0
  121.3624  107.3887  109.1280 O   0  0  0  0  0  0  0  0  0  0  0  0
  125.3631  107.9283  105.1239 O   0  0  0  0  0  0  0  0  0  0  0  0
  121.3020  106.2643  105.6769 O   0  0  0  0  0  0  0  0  0  0  0  0
  118.6695  102.5660  105.7354 H   0  0  0  0  0  0  0  0  0  0  0  0
  116.7673  106.4250  105.5165 H   0  0  0  0  0  0  0  0  0  0  0  0
  120.8815  103.6596  105.7663 H   0  0  0  0  0  0  0  0  0  0  0  0
  118.9804  107.5155  105.5476 H   0  0  0  0  0  0  0  0  0  0  0  0
  122.5332  104.6517  107.5640 H   0  0  0  0  0  0  0  0  0  0  0  0
  124.7564  105.4423  108.1692 H   0  0  0  0  0  0  0  0  0  0  0  0
  120.4815  105.8519  108.1171 H   0  0  0  0  0  0  0  0  0  0  0  0
  123.8748  106.1487  105.9410 H   0  0  0  0  0  0  0  0  0  0  0  0
  120.8102  107.9630  106.7058 H   0  0  0  0  0  0  0  0  0  0  0  0
  114.2114  106.1061  104.1044 H   0  0  0  0  0  0  0  0  0  0  0  0
  114.0982  105.8677  102.3705 H   0  0  0  0  0  0  0  0  0  0  0  0
  113.4643  104.6542  103.4658 H   0  0  0  0  0  0  0  0  0  0  0  0
  116.2611  102.8342  106.1998 H   0  0  0  0  0  0  0  0  0  0  0  0
  115.4896  104.3993  106.1119 H   0  0  0  0  0  0  0  0  0  0  0  0
  114.7782  102.9667  104.2135 H   0  0  0  0  0  0  0  0  0  0  0  0
  116.4644  102.7611  103.6972 H   0  0  0  0  0  0  0  0  0  0  0  0
  126.0851  107.1635  106.8866 H   0  0  0  0  0  0  0  0  0  0  0  0
  125.1389  108.6680  107.0255 H   0  0  0  0  0  0  0  0  0  0  0  0
  123.2742  104.2347  109.6320 H   0  0  0  0  0  0  0  0  0  0  0  0
  124.1309  106.5975  109.9874 H   0  0  0  0  0  0  0  0  0  0  0  0
  120.5998  107.9554  108.9360 H   0  0  0  0  0  0  0  0  0  0  0  0
  126.1745  108.4501  105.0021 H   0  0  0  0  0  0  0  0  0  0  0  0
  1  3  2  0  0  0  0
  1  5  1  0  0  0  0
  2  4  1  0  0  0  0
  2  5  2  0  0  0  0
  3  6  1  0  0  0  0
  4  6  2  0  0  0  0
  5 14  1  0  0  0  0
  6 23  1  0  0  0  0
  7 13  1  0  0  0  0
  7 15  1  0  0  0  0
  7 17  2  0  0  0  0
  8  9  1  0  0  0  0
  8 10  1  0  0  0  0
  8 19  1  0  0  0  0
  9 11  1  0  0  0  0
  9 20  1  0  0  0  0
 10 12  1  0  0  0  0
 10 21  1  0  0  0  0
 11 16  1  0  0  0  0
 11 18  1  0  0  0  0
 12 18  1  0  0  0  0
 12 23  1  0  0  0  0
 14 15  1  0  0  0  0
 16 22  1  0  0  0  0
  1 24  1  0  0  0  0
  2 25  1  0  0  0  0
  3 26  1  0  0  0  0
  4 27  1  0  0  0  0
  8 28  1  0  0  0  0
  9 29  1  0  0  0  0
 10 30  1  0  0  0  0
 11 31  1  0  0  0  0
 12 32  1  0  0  0  0
 13 33  1  0  0  0  0
 13 34  1  0  0  0  0
 13 35  1  0  0  0  0
 14 36  1  0  0  0  0
 14 37  1  0  0  0  0
 15 38  1  0  0  0  0
 15 39  1  0  0  0  0
 16 40  1  0  0  0  0
 16 41  1  0  0  0  0
 19 42  1  0  0  0  0
 20 43  1  0  0  0  0
 21 44  1  0  0  0  0
 22 45  1  0  0  0  0
M  END
> <FRED Chemgauss4 score>
-11.111241

$$$$
lig_from_structure
  -OEChem-05182014473D

 42 44  0     1  0  0  0  0  0999 V2000
  115.7216  104.7119  101.7127 C   0  0  0  0  0  0  0  0  0  0  0  0
  117.0575  104.8127  101.3242 C   0  0  0  0  0  0  0  0  0  0  0  0
  115.3924  104.6408  103.0663 C   0  0  0  0  0  0  0  0  0  0  0  0
  118.0641  104.8423  102.2894 C   0  0  0  0  0  0  0  0  0  0  0  0
  116.3990  104.6704  104.0314 C   0  0  0  0  0  0  0  0  0  0  0  0
  118.5229  105.3449  105.9028 C   0  0  0  0  0  0  0  0  0  0  0  0
  120.0426  104.2890  104.3494 C   0  0  0  0  0  0  0  0  0  0  0  0
  119.5298  105.3747  106.8676 C   0  0  0  0  0  0  0  0  0  0  0  0
  121.0495  104.3188  105.3143 C   0  0  0  0  0  0  0  0  0  0  0  0
  117.7349  104.7711  103.6430 C   0  0  0  0  0  0  0  0  0  0  0  0
  118.7793  104.8020  104.6437 C   0  0  0  0  0  0  0  0  0  0  0  0
  120.7931  104.8616  106.5734 C   0  0  0  0  0  0  0  0  0  0  0  0
  121.8648  104.8933  107.6004 C   0  0  0  0  0  0  0  0  0  0  0  0
  125.4870  105.1932  107.0972 C   0  0  0  0  0  0  0  0  0  0  0  0
  124.1262  106.2618  108.7971 C   0  0  0  0  0  0  0  0  0  0  0  0
  124.2044  105.0310  107.9016 C   0  0  1  0  0  0  0  0  0  0  0  0
  125.8639  106.6600  107.2680 C   0  0  1  0  0  0  0  0  0  0  0  0
  125.2184  107.5734  106.2281 C   0  0  0  0  0  0  0  0  0  0  0  0
  125.3961  106.9813  108.6246 N   0  0  0  0  0  0  0  0  0  0  0  0
  121.6448  104.8350  108.8002 O   0  0  0  0  0  0  0  0  0  0  0  0
  123.8707  107.1859  106.0002 O   0  0  0  0  0  0  0  0  0  0  0  0
  125.9775  107.5121  105.0289 O   0  0  0  0  0  0  0  0  0  0  0  0
  123.0925  104.9930  107.0174 O   0  0  0  0  0  0  0  0  0  0  0  0
  114.9379  104.6907  100.9612 H   0  0  0  0  0  0  0  0  0  0  0  0
  117.3139  104.8698  100.2704 H   0  0  0  0  0  0  0  0  0  0  0  0
  114.3524  104.5638  103.3696 H   0  0  0  0  0  0  0  0  0  0  0  0
  119.1009  104.9213  101.9705 H   0  0  0  0  0  0  0  0  0  0  0  0
  116.1271  104.6147  105.0829 H   0  0  0  0  0  0  0  0  0  0  0  0
  117.5433  105.7488  106.1473 H   0  0  0  0  0  0  0  0  0  0  0  0
  120.2579  103.8625  103.3726 H   0  0  0  0  0  0  0  0  0  0  0  0
  119.3192  105.8000  107.8455 H   0  0  0  0  0  0  0  0  0  0  0  0
  122.0303  103.9162  105.0744 H   0  0  0  0  0  0  0  0  0  0  0  0
  126.2806  104.5340  107.4747 H   0  0  0  0  0  0  0  0  0  0  0  0
  125.3261  104.9331  106.0400 H   0  0  0  0  0  0  0  0  0  0  0  0
  123.2723  106.9167  108.5673 H   0  0  0  0  0  0  0  0  0  0  0  0
  124.0376  105.9609  109.8526 H   0  0  0  0  0  0  0  0  0  0  0  0
  124.2142  104.1128  108.4898 H   0  0  0  0  0  0  0  0  0  0  0  0
  126.9557  106.7874  107.2216 H   0  0  0  0  0  0  0  0  0  0  0  0
  125.2224  108.6056  106.5918 H   0  0  0  0  0  0  0  0  0  0  0  0
  125.2119  107.9846  108.6819 H   0  0  0  0  0  0  0  0  0  0  0  0
  123.4888  107.7840  105.3361 H   0  0  0  0  0  0  0  0  0  0  0  0
  125.5457  108.1007  104.3868 H   0  0  0  0  0  0  0  0  0  0  0  0
  1  2  1  0  0  0  0
  1  3  2  0  0  0  0
  2  4  2  0  0  0  0
  3  5  1  0  0  0  0
  4 10  1  0  0  0  0
  5 10  2  0  0  0  0
  6  8  2  0  0  0  0
  6 11  1  0  0  0  0
  7  9  1  0  0  0  0
  7 11  2  0  0  0  0
  8 12  1  0  0  0  0
  9 12  2  0  0  0  0
 10 11  1  0  0  0  0
 12 13  1  0  0  0  0
 13 20  2  0  0  0  0
 13 23  1  0  0  0  0
 14 16  1  0  0  0  0
 14 17  1  0  0  0  0
 15 16  1  0  0  0  0
 15 19  1  0  0  0  0
 16 23  1  0  0  0  0
 17 18  1  0  0  0  0
 17 19  1  0  0  0  0
 18 21  1  0  0  0  0
 18 22  1  0  0  0  0
  1 24  1  0  0  0  0
  2 25  1  0  0  0  0
  3 26  1  0  0  0  0
  4 27  1  0  0  0  0
  5 28  1  0  0  0  0
  6 29  1  0  0  0  0
  7 30  1  0  0  0  0
  8 31  1  0  0  0  0
  9 32  1  0  0  0  0
 14 33  1  0  0  0  0
 14 34  1  0  0  0  0
 15 35  1  0  0  0  0
 15 36  1  0  0  0  0
 16 37  1  0  0  0  0
 17 38  1  0  0  0  0
 18 39  1  0  0  0  0
 19 40  1  0  0  0  0
 21 41  1  0  0  0  0
 22 42  1  0  0  0  0
M  END
> <FRED Chemgauss4 score>
-10.682622

$$$$
C79403161	P124075411
  -OEChem-05182014473D

 46 47  0     1  0  0  0  0  0999 V2000
  122.7551  104.3536  106.4667 C   0  0  0  0  0  0  0  0  0  0  0  0
  123.5586  105.4577  106.7286 C   0  0  0  0  0  0  0  0  0  0  0  0
  121.8424  104.3980  105.4187 C   0  0  0  0  0  0  0  0  0  0  0  0
  123.4119  106.5731  105.9198 C   0  0  0  0  0  0  0  0  0  0  0  0
  121.7724  105.5608  104.6685 C   0  0  0  0  0  0  0  0  0  0  0  0
  119.6856  104.4143  101.7110 C   0  0  0  0  0  0  0  0  0  0  0  0
  118.4533  104.0716  102.5506 C   0  0  0  0  0  0  0  0  0  0  0  0
  118.4977  106.1537  104.0729 C   0  0  0  0  0  0  0  0  0  0  0  0
  120.9615  104.6136  102.5300 C   0  0  0  0  0  0  0  0  0  0  0  0
  119.8412  106.6475  103.5381 C   0  0  0  0  0  0  0  0  0  0  0  0
  117.6987  105.3076  103.0680 C   0  0  2  0  0  0  0  0  0  0  0  0
  115.5398  104.0926  102.6813 C   0  0  0  0  0  0  0  0  0  0  0  0
  115.5924  106.1150  104.1624 C   0  0  0  0  0  0  0  0  0  0  0  0
  116.6597  103.9771  104.9217 C   0  0  0  0  0  0  0  0  0  0  0  0
  124.2581  107.7762  106.1729 C   0  0  0  0  0  0  0  0  0  0  0  0
  116.3749  104.8738  103.7072 C   0  0  0  0  0  0  0  0  0  0  0  0
  122.5364  106.6534  104.8928 N   0  0  0  0  0  0  0  0  0  0  0  0
  120.8489  105.5899  103.6168 N   0  0  0  0  0  0  0  0  0  0  0  0
  125.3191  107.9112  105.2079 N   0  0  0  0  0  0  0  0  0  0  0  0
  122.8408  103.4598  107.0776 H   0  0  0  0  0  0  0  0  0  0  0  0
  124.2746  105.4356  107.5431 H   0  0  0  0  0  0  0  0  0  0  0  0
  121.2122  103.5403  105.2070 H   0  0  0  0  0  0  0  0  0  0  0  0
  119.8720  103.5819  101.0201 H   0  0  0  0  0  0  0  0  0  0  0  0
  119.4882  105.2873  101.0779 H   0  0  0  0  0  0  0  0  0  0  0  0
  117.7687  103.4999  101.9101 H   0  0  0  0  0  0  0  0  0  0  0  0
  118.7258  103.4085  103.3809 H   0  0  0  0  0  0  0  0  0  0  0  0
  118.6499  105.5889  105.0019 H   0  0  0  0  0  0  0  0  0  0  0  0
  117.8935  107.0317  104.3359 H   0  0  0  0  0  0  0  0  0  0  0  0
  121.2612  103.6471  102.9555 H   0  0  0  0  0  0  0  0  0  0  0  0
  121.7616  104.9218  101.8444 H   0  0  0  0  0  0  0  0  0  0  0  0
  119.7559  107.0480  102.5213 H   0  0  0  0  0  0  0  0  0  0  0  0
  120.1507  107.4954  104.1647 H   0  0  0  0  0  0  0  0  0  0  0  0
  117.4517  105.9441  102.2077 H   0  0  0  0  0  0  0  0  0  0  0  0
  114.5850  103.7683  103.1101 H   0  0  0  0  0  0  0  0  0  0  0  0
  116.0716  103.1983  102.3374 H   0  0  0  0  0  0  0  0  0  0  0  0
  115.3184  104.7075  101.8018 H   0  0  0  0  0  0  0  0  0  0  0  0
  114.6393  105.8338  104.6243 H   0  0  0  0  0  0  0  0  0  0  0  0
  116.1619  106.6930  104.8988 H   0  0  0  0  0  0  0  0  0  0  0  0
  115.3710  106.7772  103.3179 H   0  0  0  0  0  0  0  0  0  0  0  0
  115.7287  103.6514  105.3994 H   0  0  0  0  0  0  0  0  0  0  0  0
  117.2539  104.5055  105.6755 H   0  0  0  0  0  0  0  0  0  0  0  0
  117.2154  103.0793  104.6283 H   0  0  0  0  0  0  0  0  0  0  0  0
  123.6583  108.6959  106.1358 H   0  0  0  0  0  0  0  0  0  0  0  0
  124.7221  107.7391  107.1677 H   0  0  0  0  0  0  0  0  0  0  0  0
  126.1551  108.4081  105.4668 H   0  0  0  0  0  0  0  0  0  0  0  0
  125.1332  107.6923  104.2432 H   0  0  0  0  0  0  0  0  0  0  0  0
  1  2  1  0  0  0  0
  1  3  2  0  0  0  0
  2  4  2  0  0  0  0
  3  5  1  0  0  0  0
  4 15  1  0  0  0  0
  4 17  1  0  0  0  0
  5 17  2  0  0  0  0
  5 18  1  0  0  0  0
  6  7  1  0  0  0  0
  6  9  1  0  0  0  0
  7 11  1  0  0  0  0
  8 10  1  0  0  0  0
  8 11  1  0  0  0  0
  9 18  1  0  0  0  0
 10 18  1  0  0  0  0
 11 16  1  0  0  0  0
 12 16  1  0  0  0  0
 13 16  1  0  0  0  0
 14 16  1  0  0  0  0
 15 19  1  0  0  0  0
  1 20  1  0  0  0  0
  2 21  1  0  0  0  0
  3 22  1  0  0  0  0
  6 23  1  0  0  0  0
  6 24  1  0  0  0  0
  7 25  1  0  0  0  0
  7 26  1  0  0  0  0
  8 27  1  0  0  0  0
  8 28  1  0  0  0  0
  9 29  1  0  0  0  0
  9 30  1  0  0  0  0
 10 31  1  0  0  0  0
 10 32  1  0  0  0  0
 11 33  1  0  0  0  0
 12 34  1  0  0  0  0
 12 35  1  0  0  0  0
 12 36  1  0  0  0  0
 13 37  1  0  0  0  0
 13 38  1  0  0  0  0
 13 39  1  0  0  0  0
 14 40  1  0  0  0  0
 14 41  1  0  0  0  0
 14 42  1  0  0  0  0
 15 43  1  0  0  0  0
 15 44  1  0  0  0  0
 19 45  1  0  0  0  0
 19 46  1  0  0  0  0
M  END
> <FRED Chemgauss4 score>
-10.666153

$$$$
C61875170	P94810310
  -OEChem-05182014473D

 33 34  0     0  0  0  0  0  0999 V2000
  119.8439  104.2040  106.5243 C   0  0  0  0  0  0  0  0  0  0  0  0
  118.9062  104.1542  105.4969 C   0  0  0  0  0  0  0  0  0  0  0  0
  118.3437  104.4700  103.1335 C   0  0  0  0  0  0  0  0  0  0  0  0
  121.1436  104.6094  106.2475 C   0  0  0  0  0  0  0  0  0  0  0  0
  118.7317  104.8283  101.8505 C   0  0  0  0  0  0  0  0  0  0  0  0
  119.2675  104.5109  104.1866 C   0  0  0  0  0  0  0  0  0  0  0  0
  120.5853  104.9233  103.8982 C   0  0  0  0  0  0  0  0  0  0  0  0
  121.5026  104.9639  104.9447 C   0  0  0  0  0  0  0  0  0  0  0  0
  120.0426  105.2183  101.6658 C   0  0  0  0  0  0  0  0  0  0  0  0
  120.5039  105.6122  100.3025 C   0  0  0  0  0  0  0  0  0  0  0  0
  125.1909  106.5980  107.5655 C   0  0  0  0  0  0  0  0  0  0  0  0
  124.0956  105.7966  106.8925 C   0  0  0  0  0  0  0  0  0  0  0  0
  120.9647  105.2716  102.6541 N   0  0  0  0  0  0  0  0  0  0  0  0
  122.7789  105.3518  104.7256 N   0  5  0  0  0  0  0  0  0  0  0  0
  124.6559  107.8973  108.0402 N   0  3  0  0  0  0  0  0  0  0  0  0
  122.4995  107.5786  106.0079 O   0  0  0  0  0  0  0  0  0  0  0  0
  124.6190  107.1654  104.8048 O   0  0  0  0  0  0  0  0  0  0  0  0
  123.4347  106.6057  105.4503 S   0  0  0  0  0  0  0  0  0  0  0  0
  119.5607  103.9274  107.5353 H   0  0  0  0  0  0  0  0  0  0  0  0
  117.8913  103.8354  105.7241 H   0  0  0  0  0  0  0  0  0  0  0  0
  117.3162  104.1588  103.3078 H   0  0  0  0  0  0  0  0  0  0  0  0
  121.8669  104.6441  107.0597 H   0  0  0  0  0  0  0  0  0  0  0  0
  118.0233  104.7995  101.0300 H   0  0  0  0  0  0  0  0  0  0  0  0
  120.3588  106.6880  100.1470 H   0  0  0  0  0  0  0  0  0  0  0  0
  121.5669  105.3797  100.1598 H   0  0  0  0  0  0  0  0  0  0  0  0
  119.9523  105.0699   99.5239 H   0  0  0  0  0  0  0  0  0  0  0  0
  125.5675  106.0789  108.4515 H   0  0  0  0  0  0  0  0  0  0  0  0
  126.0222  106.8230  106.8913 H   0  0  0  0  0  0  0  0  0  0  0  0
  124.4941  104.8388  106.5436 H   0  0  0  0  0  0  0  0  0  0  0  0
  123.2576  105.5971  107.5671 H   0  0  0  0  0  0  0  0  0  0  0  0
  124.7910  108.6298  107.3350 H   0  0  0  0  0  0  0  0  0  0  0  0
  125.1284  108.1962  108.9004 H   0  0  0  0  0  0  0  0  0  0  0  0
  123.6516  107.8308  108.2382 H   0  0  0  0  0  0  0  0  0  0  0  0
  1  2  2  0  0  0  0
  1  4  1  0  0  0  0
  2  6  1  0  0  0  0
  3  5  2  0  0  0  0
  3  6  1  0  0  0  0
  4  8  2  0  0  0  0
  5  9  1  0  0  0  0
  6  7  2  0  0  0  0
  7  8  1  0  0  0  0
  7 13  1  0  0  0  0
  8 14  1  0  0  0  0
  9 10  1  0  0  0  0
  9 13  2  0  0  0  0
 11 12  1  0  0  0  0
 11 15  1  0  0  0  0
 12 18  1  0  0  0  0
 14 18  1  0  0  0  0
 16 18  2  0  0  0  0
 17 18  2  0  0  0  0
  1 19  1  0  0  0  0
  2 20  1  0  0  0  0
  3 21  1  0  0  0  0
  4 22  1  0  0  0  0
  5 23  1  0  0  0  0
 10 24  1  0  0  0  0
 10 25  1  0  0  0  0
 10 26  1  0  0  0  0
 11 27  1  0  0  0  0
 11 28  1  0  0  0  0
 12 29  1  0  0  0  0
 12 30  1  0  0  0  0
 15 31  1  0  0  0  0
 15 32  1  0  0  0  0
 15 33  1  0  0  0  0
M  CHG  2  14  -1  15   1
M  END
> <FRED Chemgauss4 score>
-10.649652

$$$$
BenzylCysteine	P10000006
  -OEChem-05182014473D

 27 27  0     1  0  0  0  0  0999 V2000
  117.2532  104.5645  104.9423 C   0  0  0  0  0  0  0  0  0  0  0  0
  117.5462  105.8779  105.3094 C   0  0  0  0  0  0  0  0  0  0  0  0
  118.0965  103.5256  105.3361 C   0  0  0  0  0  0  0  0  0  0  0  0
  118.6827  106.1524  106.0702 C   0  0  0  0  0  0  0  0  0  0  0  0
  119.2330  103.8000  106.0968 C   0  0  0  0  0  0  0  0  0  0  0  0
  119.5261  105.1134  106.4639 C   0  0  0  0  0  0  0  0  0  0  0  0
  124.7511  107.1850  105.5317 C   0  0  0  0  0  0  0  0  0  0  0  0
  120.7517  105.4087  107.2839 C   0  0  0  0  0  0  0  0  0  0  0  0
  123.4472  105.8979  107.3873 C   0  0  0  0  0  0  0  0  0  0  0  0
  124.7679  106.1236  106.6465 C   0  0  2  0  0  0  0  0  0  0  0  0
  125.8254  106.3318  107.6875 N   0  3  0  0  0  0  0  0  0  0  0  0
  125.8432  107.7969  105.3552 O   0  5  0  0  0  0  0  0  0  0  0  0
  123.6464  107.3422  104.9396 O   0  0  0  0  0  0  0  0  0  0  0  0
  122.2662  104.8562  106.4692 S   0  0  0  0  0  0  0  0  0  0  0  0
  116.3675  104.3508  104.3511 H   0  0  0  0  0  0  0  0  0  0  0  0
  116.8891  106.6868  105.0038 H   0  0  0  0  0  0  0  0  0  0  0  0
  117.8681  102.5028  105.0514 H   0  0  0  0  0  0  0  0  0  0  0  0
  118.9032  107.1788  106.3514 H   0  0  0  0  0  0  0  0  0  0  0  0
  119.8844  102.9842  106.3989 H   0  0  0  0  0  0  0  0  0  0  0  0
  120.8272  106.4841  107.4796 H   0  0  0  0  0  0  0  0  0  0  0  0
  120.6783  104.9179  108.2608 H   0  0  0  0  0  0  0  0  0  0  0  0
  123.6335  105.4165  108.3538 H   0  0  0  0  0  0  0  0  0  0  0  0
  122.9555  106.8540  107.5956 H   0  0  0  0  0  0  0  0  0  0  0  0
  125.0449  105.1842  106.1513 H   0  0  0  0  0  0  0  0  0  0  0  0
  126.7321  106.4800  107.2434 H   0  0  0  0  0  0  0  0  0  0  0  0
  125.8871  105.5137  108.2944 H   0  0  0  0  0  0  0  0  0  0  0  0
  125.6020  107.1478  108.2579 H   0  0  0  0  0  0  0  0  0  0  0  0
  1  2  1  0  0  0  0
  1  3  2  0  0  0  0
  2  4  2  0  0  0  0
  3  5  1  0  0  0  0
  4  6  1  0  0  0  0
  5  6  2  0  0  0  0
  6  8  1  0  0  0  0
  7 10  1  0  0  0  0
  7 12  1  0  0  0  0
  7 13  2  0  0  0  0
  8 14  1  0  0  0  0
  9 10  1  0  0  0  0
  9 14  1  0  0  0  0
 10 11  1  0  0  0  0
  1 15  1  0  0  0  0
  2 16  1  0  0  0  0
  3 17  1  0  0  0  0
  4 18  1  0  0  0  0
  5 19  1  0  0  0  0
  8 20  1  0  0  0  0
  8 21  1  0  0  0  0
  9 22  1  0  0  0  0
  9 23  1  0  0  0  0
 10 24  1  0  0  0  0
 11 25  1  0  0  0  0
 11 26  1  0  0  0  0
 11 27  1  0  0  0  0
M  CHG  2  11   1  12  -1
M  END
> <FRED Chemgauss4 score>
-10.437839

$$$$
C05248176	P07761419
  -OEChem-05182014473D

 42 44  0     0  0  0  0  0  0999 V2000
  120.9166  104.5711  102.0504 C   0  0  0  0  0  0  0  0  0  0  0  0
  121.3534  104.4733  103.3696 C   0  0  0  0  0  0  0  0  0  0  0  0
  119.5649  104.7569  101.7756 C   0  0  0  0  0  0  0  0  0  0  0  0
  118.6139  104.7305  106.5535 C   0  0  0  0  0  0  0  0  0  0  0  0
  119.9682  104.5448  106.8152 C   0  0  0  0  0  0  0  0  0  0  0  0
  120.4418  104.5598  104.4327 C   0  0  0  0  0  0  0  0  0  0  0  0
  119.0639  104.7499  104.1594 C   0  0  0  0  0  0  0  0  0  0  0  0
  118.6424  104.8463  102.8259 C   0  0  0  0  0  0  0  0  0  0  0  0
  118.1639  104.8332  105.2310 C   0  0  0  0  0  0  0  0  0  0  0  0
  120.8770  104.4601  105.7627 C   0  0  0  0  0  0  0  0  0  0  0  0
  117.2089  105.0449  102.5163 C   0  0  0  0  0  0  0  0  0  0  0  0
  116.7214  105.0324  104.9698 C   0  0  0  0  0  0  0  0  0  0  0  0
  114.9373  105.4255  103.3417 C   0  0  0  0  0  0  0  0  0  0  0  0
  122.4018  106.4564  107.0925 C   0  0  0  0  0  0  0  0  0  0  0  0
  124.3557  104.8454  107.1087 C   0  0  0  0  0  0  0  0  0  0  0  0
  123.5932  105.9000  104.9288 C   0  0  0  0  0  0  0  0  0  0  0  0
  123.1421  105.3572  106.3013 C   0  0  0  0  0  0  0  0  0  0  0  0
  116.3442  105.1571  103.6200 N   0  0  0  0  0  0  0  0  0  0  0  0
  122.2428  104.2703  106.0875 N   0  0  0  0  0  0  0  0  0  0  0  0
  116.8534  105.0928  101.3408 O   0  0  0  0  0  0  0  0  0  0  0  0
  115.9394  105.0719  105.9173 O   0  0  0  0  0  0  0  0  0  0  0  0
  121.5860  107.2407  106.2287 O   0  0  0  0  0  0  0  0  0  0  0  0
  123.9682  104.3055  108.3676 O   0  0  0  0  0  0  0  0  0  0  0  0
  124.4656  107.0142  105.0866 O   0  0  0  0  0  0  0  0  0  0  0  0
  121.6317  104.5019  101.2357 H   0  0  0  0  0  0  0  0  0  0  0  0
  122.4176  104.3274  103.5402 H   0  0  0  0  0  0  0  0  0  0  0  0
  119.2511  104.8305  100.7378 H   0  0  0  0  0  0  0  0  0  0  0  0
  117.9259  104.7931  107.3923 H   0  0  0  0  0  0  0  0  0  0  0  0
  120.3041  104.4673  107.8463 H   0  0  0  0  0  0  0  0  0  0  0  0
  114.3908  104.4856  103.2282 H   0  0  0  0  0  0  0  0  0  0  0  0
  114.8382  106.0037  102.4190 H   0  0  0  0  0  0  0  0  0  0  0  0
  114.4917  105.9949  104.1617 H   0  0  0  0  0  0  0  0  0  0  0  0
  121.7519  106.0100  107.8534 H   0  0  0  0  0  0  0  0  0  0  0  0
  123.1045  107.1341  107.5900 H   0  0  0  0  0  0  0  0  0  0  0  0
  125.0639  105.6551  107.3150 H   0  0  0  0  0  0  0  0  0  0  0  0
  124.8951  104.0660  106.5584 H   0  0  0  0  0  0  0  0  0  0  0  0
  122.7387  106.2332  104.3299 H   0  0  0  0  0  0  0  0  0  0  0  0
  124.1329  105.1285  104.3685 H   0  0  0  0  0  0  0  0  0  0  0  0
  122.5587  103.3247  106.1612 H   0  0  0  0  0  0  0  0  0  0  0  0
  121.1528  107.9070  106.7851 H   0  0  0  0  0  0  0  0  0  0  0  0
  124.7820  104.0103  108.8056 H   0  0  0  0  0  0  0  0  0  0  0  0
  124.7095  107.3043  104.1936 H   0  0  0  0  0  0  0  0  0  0  0  0
  1  2  1  0  0  0  0
  1  3  2  0  0  0  0
  2  6  2  0  0  0  0
  3  8  1  0  0  0  0
  4  5  1  0  0  0  0
  4  9  2  0  0  0  0
  5 10  2  0  0  0  0
  6  7  1  0  0  0  0
  6 10  1  0  0  0  0
  7  8  2  0  0  0  0
  7  9  1  0  0  0  0
  8 11  1  0  0  0  0
  9 12  1  0  0  0  0
 10 19  1  0  0  0  0
 11 18  1  0  0  0  0
 11 20  2  0  0  0  0
 12 18  1  0  0  0  0
 12 21  2  0  0  0  0
 13 18  1  0  0  0  0
 14 17  1  0  0  0  0
 14 22  1  0  0  0  0
 15 17  1  0  0  0  0
 15 23  1  0  0  0  0
 16 17  1  0  0  0  0
 16 24  1  0  0  0  0
 17 19  1  0  0  0  0
  1 25  1  0  0  0  0
  2 26  1  0  0  0  0
  3 27  1  0  0  0  0
  4 28  1  0  0  0  0
  5 29  1  0  0  0  0
 13 30  1  0  0  0  0
 13 31  1  0  0  0  0
 13 32  1  0  0  0  0
 14 33  1  0  0  0  0
 14 34  1  0  0  0  0
 15 35  1  0  0  0  0
 15 36  1  0  0  0  0
 16 37  1  0  0  0  0
 16 38  1  0  0  0  0
 19 39  1  0  0  0  0
 22 40  1  0  0  0  0
 23 41  1  0  0  0  0
 24 42  1  0  0  0  0
M  END
> <FRED Chemgauss4 score>
-10.373398

$$$$
BenzylSerine	P10000007
  -OEChem-05182014473D

 27 27  0     1  0  0  0  0  0999 V2000
  118.8815  104.3140  104.9045 C   0  0  0  0  0  0  0  0  0  0  0  0
  119.0326  103.9819  106.2507 C   0  0  0  0  0  0  0  0  0  0  0  0
  119.9623  104.8269  104.1871 C   0  0  0  0  0  0  0  0  0  0  0  0
  120.2643  104.1627  106.8798 C   0  0  0  0  0  0  0  0  0  0  0  0
  121.1941  105.0078  104.8161 C   0  0  0  0  0  0  0  0  0  0  0  0
  121.3452  104.6757  106.1624 C   0  0  0  0  0  0  0  0  0  0  0  0
  124.6160  107.6305  105.8552 C   0  0  0  0  0  0  0  0  0  0  0  0
  122.6704  104.8707  106.8385 C   0  0  0  0  0  0  0  0  0  0  0  0
  123.9581  106.4179  108.0513 C   0  0  0  0  0  0  0  0  0  0  0  0
  125.0463  106.7354  107.0303 C   0  0  2  0  0  0  0  0  0  0  0  0
  126.2281  107.2761  107.7747 N   0  3  0  0  0  0  0  0  0  0  0  0
  125.5033  108.3883  105.3742 O   0  5  0  0  0  0  0  0  0  0  0  0
  123.4019  107.5116  105.5194 O   0  0  0  0  0  0  0  0  0  0  0  0
  122.7193  106.1769  107.3953 O   0  0  0  0  0  0  0  0  0  0  0  0
  117.9227  104.1719  104.4145 H   0  0  0  0  0  0  0  0  0  0  0  0
  118.1914  103.5815  106.8092 H   0  0  0  0  0  0  0  0  0  0  0  0
  119.8454  105.0846  103.1387 H   0  0  0  0  0  0  0  0  0  0  0  0
  120.3727  103.9013  107.9291 H   0  0  0  0  0  0  0  0  0  0  0  0
  122.0306  105.4081  104.2494 H   0  0  0  0  0  0  0  0  0  0  0  0
  122.8142  104.1360  107.6381 H   0  0  0  0  0  0  0  0  0  0  0  0
  123.4915  104.7542  106.1230 H   0  0  0  0  0  0  0  0  0  0  0  0
  123.8215  107.2523  108.7480 H   0  0  0  0  0  0  0  0  0  0  0  0
  124.2173  105.5279  108.6344 H   0  0  0  0  0  0  0  0  0  0  0  0
  125.3950  105.7923  106.5918 H   0  0  0  0  0  0  0  0  0  0  0  0
  126.0002  108.1803  108.1896 H   0  0  0  0  0  0  0  0  0  0  0  0
  127.0188  107.3967  107.1404 H   0  0  0  0  0  0  0  0  0  0  0  0
  126.5003  106.6331  108.5192 H   0  0  0  0  0  0  0  0  0  0  0  0
  1  2  1  0  0  0  0
  1  3  2  0  0  0  0
  2  4  2  0  0  0  0
  3  5  1  0  0  0  0
  4  6  1  0  0  0  0
  5  6  2  0  0  0  0
  6  8  1  0  0  0  0
  7 10  1  0  0  0  0
  7 12  1  0  0  0  0
  7 13  2  0  0  0  0
  8 14  1  0  0  0  0
  9 10  1  0  0  0  0
  9 14  1  0  0  0  0
 10 11  1  0  0  0  0
  1 15  1  0  0  0  0
  2 16  1  0  0  0  0
  3 17  1  0  0  0  0
  4 18  1  0  0  0  0
  5 19  1  0  0  0  0
  8 20  1  0  0  0  0
  8 21  1  0  0  0  0
  9 22  1  0  0  0  0
  9 23  1  0  0  0  0
 10 24  1  0  0  0  0
 11 25  1  0  0  0  0
 11 26  1  0  0  0  0
 11 27  1  0  0  0  0
M  CHG  2  11   1  12  -1
M  END
> <FRED Chemgauss4 score>
-10.171827

$$$$
C90931135	P142254808
  -OEChem-05182014473D

 34 35  0     0  0  0  0  0  0999 V2000
  117.6219  103.9339  104.0675 C   0  0  0  0  0  0  0  0  0  0  0  0
  116.8173  106.2005  103.8400 C   0  0  0  0  0  0  0  0  0  0  0  0
  116.6334  103.6783  105.0179 C   0  0  0  0  0  0  0  0  0  0  0  0
  115.8287  105.9450  104.7904 C   0  0  0  0  0  0  0  0  0  0  0  0
  121.3939  105.1399  105.8534 C   0  0  0  0  0  0  0  0  0  0  0  0
  117.7139  105.1950  103.4786 C   0  0  0  0  0  0  0  0  0  0  0  0
  115.7368  104.6838  105.3793 C   0  0  0  0  0  0  0  0  0  0  0  0
  121.4679  106.2225  105.0022 C   0  0  0  0  0  0  0  0  0  0  0  0
  123.3995  106.4645  106.0122 C   0  0  0  0  0  0  0  0  0  0  0  0
  120.4123  106.5824  104.0422 C   0  0  0  0  0  0  0  0  0  0  0  0
  121.1227  104.7268  102.5841 C   0  0  0  0  0  0  0  0  0  0  0  0
  118.7702  105.4682  102.4621 C   0  0  0  0  0  0  0  0  0  0  0  0
  124.7227  107.0077  106.3890 C   0  0  0  0  0  0  0  0  0  0  0  0
  122.6171  106.9835  105.0922 N   0  0  0  0  0  0  0  0  0  0  0  0
  125.3925  107.6644  105.2890 N   0  0  0  0  0  0  0  0  0  0  0  0
  120.0727  105.6330  103.0561 N   0  0  0  0  0  0  0  0  0  0  0  0
  119.8992  107.6913  104.1877 O   0  0  0  0  0  0  0  0  0  0  0  0
  114.7715  104.4339  106.3057 O   0  0  0  0  0  0  0  0  0  0  0  0
  122.8162  105.0606  106.8084 S   0  0  0  0  0  0  0  0  0  0  0  0
  118.3162  103.1446  103.7920 H   0  0  0  0  0  0  0  0  0  0  0  0
  116.8815  107.1863  103.3864 H   0  0  0  0  0  0  0  0  0  0  0  0
  116.5667  102.6936  105.4729 H   0  0  0  0  0  0  0  0  0  0  0  0
  115.1332  106.7322  105.0673 H   0  0  0  0  0  0  0  0  0  0  0  0
  120.6017  104.4121  105.9599 H   0  0  0  0  0  0  0  0  0  0  0  0
  121.1414  103.8218  103.1970 H   0  0  0  0  0  0  0  0  0  0  0  0
  122.0992  105.2146  102.6469 H   0  0  0  0  0  0  0  0  0  0  0  0
  120.9385  104.4438  101.5442 H   0  0  0  0  0  0  0  0  0  0  0  0
  118.8411  104.6479  101.7340 H   0  0  0  0  0  0  0  0  0  0  0  0
  118.5533  106.3812  101.8906 H   0  0  0  0  0  0  0  0  0  0  0  0
  124.6434  107.7475  107.2039 H   0  0  0  0  0  0  0  0  0  0  0  0
  125.4057  106.2217  106.7538 H   0  0  0  0  0  0  0  0  0  0  0  0
  126.3954  107.7079  105.2899 H   0  0  0  0  0  0  0  0  0  0  0  0
  124.8510  108.2328  104.6631 H   0  0  0  0  0  0  0  0  0  0  0  0
  114.2300  105.2263  106.4494 H   0  0  0  0  0  0  0  0  0  0  0  0
  1  3  2  0  0  0  0
  1  6  1  0  0  0  0
  2  4  1  0  0  0  0
  2  6  2  0  0  0  0
  3  7  1  0  0  0  0
  4  7  2  0  0  0  0
  5  8  2  0  0  0  0
  5 19  1  0  0  0  0
  6 12  1  0  0  0  0
  7 18  1  0  0  0  0
  8 10  1  0  0  0  0
  8 14  1  0  0  0  0
  9 13  1  0  0  0  0
  9 14  2  0  0  0  0
  9 19  1  0  0  0  0
 10 16  1  0  0  0  0
 10 17  2  0  0  0  0
 11 16  1  0  0  0  0
 12 16  1  0  0  0  0
 13 15  1  0  0  0  0
  1 20  1  0  0  0  0
  2 21  1  0  0  0  0
  3 22  1  0  0  0  0
  4 23  1  0  0  0  0
  5 24  1  0  0  0  0
 11 25  1  0  0  0  0
 11 26  1  0  0  0  0
 11 27  1  0  0  0  0
 12 28  1  0  0  0  0
 12 29  1  0  0  0  0
 13 30  1  0  0  0  0
 13 31  1  0  0  0  0
 15 32  1  0  0  0  0
 15 33  1  0  0  0  0
 18 34  1  0  0  0  0
M  END
> <FRED Chemgauss4 score>
-10.148143

$$$$
cmpd16b_JGP2019	P10000012
  -OEChem-05182014473D

 41 43  0     1  0  0  0  0  0999 V2000
  116.4967  104.3389  104.1846 C   0  0  0  0  0  0  0  0  0  0  0  0
  116.7479  106.6923  104.6701 C   0  0  0  0  0  0  0  0  0  0  0  0
  119.1992  104.0050  105.2109 C   0  0  0  0  0  0  0  0  0  0  0  0
  118.7498  105.9079  106.6301 C   0  0  0  0  0  0  0  0  0  0  0  0
  115.3419  104.6133  103.4519 C   0  0  0  0  0  0  0  0  0  0  0  0
  115.5931  106.9667  103.9374 C   0  0  0  0  0  0  0  0  0  0  0  0
  120.3535  103.7306  105.9442 C   0  0  0  0  0  0  0  0  0  0  0  0
  119.9041  105.6335  107.3635 C   0  0  0  0  0  0  0  0  0  0  0  0
  117.1996  105.3784  104.7938 C   0  0  0  0  0  0  0  0  0  0  0  0
  118.3973  105.0937  105.5538 C   0  0  0  0  0  0  0  0  0  0  0  0
  114.8902  105.9272  103.3282 C   0  0  0  0  0  0  0  0  0  0  0  0
  120.7060  104.5448  107.0206 C   0  0  0  0  0  0  0  0  0  0  0  0
  124.8058  107.4355  105.4828 C   0  0  0  0  0  0  0  0  0  0  0  0
  125.6663  105.3955  106.6182 C   0  0  0  0  0  0  0  0  0  0  0  0
  124.8444  106.0266  108.7645 C   0  0  0  0  0  0  0  0  0  0  0  0
  125.6459  106.9211  106.6317 C   0  0  2  0  0  0  0  0  0  0  0  0
  124.6644  104.9812  107.6856 C   0  0  1  0  0  0  0  0  0  0  0  0
  125.1126  107.2855  107.9917 N   0  3  0  0  0  0  0  0  0  0  0  0
  123.6114  107.0276  105.4635 O   0  5  0  0  0  0  0  0  0  0  0  0
  125.4110  108.2093  104.6891 O   0  0  0  0  0  0  0  0  0  0  0  0
  121.9488  104.7697  109.2632 O   0  0  0  0  0  0  0  0  0  0  0  0
  122.4512  102.7843  107.7768 O   0  0  0  0  0  0  0  0  0  0  0  0
  123.3353  105.0421  107.1840 O   0  0  0  0  0  0  0  0  0  0  0  0
  113.7812  106.1907  102.6246 F   0  0  0  0  0  0  0  0  0  0  0  0
  122.1659  104.1963  107.9494 S   0  0  0  0  0  0  0  0  0  0  0  0
  116.8360  103.3095  104.2718 H   0  0  0  0  0  0  0  0  0  0  0  0
  117.2848  107.5135  105.1390 H   0  0  0  0  0  0  0  0  0  0  0  0
  118.9380  103.3613  104.3744 H   0  0  0  0  0  0  0  0  0  0  0  0
  118.1354  106.7605  106.9101 H   0  0  0  0  0  0  0  0  0  0  0  0
  114.7943  103.8043  102.9776 H   0  0  0  0  0  0  0  0  0  0  0  0
  115.2408  107.9894  103.8406 H   0  0  0  0  0  0  0  0  0  0  0  0
  120.9714  102.8803  105.6688 H   0  0  0  0  0  0  0  0  0  0  0  0
  120.1702  106.2740  108.1998 H   0  0  0  0  0  0  0  0  0  0  0  0
  125.4204  104.9772  105.6363 H   0  0  0  0  0  0  0  0  0  0  0  0
  126.6674  105.0459  106.8993 H   0  0  0  0  0  0  0  0  0  0  0  0
  123.9645  106.2005  109.3887 H   0  0  0  0  0  0  0  0  0  0  0  0
  125.7339  105.8418  109.3743 H   0  0  0  0  0  0  0  0  0  0  0  0
  126.6566  107.3337  106.5524 H   0  0  0  0  0  0  0  0  0  0  0  0
  124.8439  103.9675  108.0551 H   0  0  0  0  0  0  0  0  0  0  0  0
  124.2419  107.8264  107.8976 H   0  0  0  0  0  0  0  0  0  0  0  0
  125.7733  107.8902  108.4991 H   0  0  0  0  0  0  0  0  0  0  0  0
  1  5  1  0  0  0  0
  1  9  2  0  0  0  0
  2  6  2  0  0  0  0
  2  9  1  0  0  0  0
  3  7  2  0  0  0  0
  3 10  1  0  0  0  0
  4  8  1  0  0  0  0
  4 10  2  0  0  0  0
  5 11  2  0  0  0  0
  6 11  1  0  0  0  0
  7 12  1  0  0  0  0
  8 12  2  0  0  0  0
  9 10  1  0  0  0  0
 11 24  1  0  0  0  0
 12 25  1  0  0  0  0
 13 16  1  0  0  0  0
 13 19  1  0  0  0  0
 13 20  2  0  0  0  0
 14 16  1  0  0  0  0
 14 17  1  0  0  0  0
 15 17  1  0  0  0  0
 15 18  1  0  0  0  0
 16 18  1  0  0  0  0
 17 23  1  0  0  0  0
 21 25  2  0  0  0  0
 22 25  2  0  0  0  0
 23 25  1  0  0  0  0
  1 26  1  0  0  0  0
  2 27  1  0  0  0  0
  3 28  1  0  0  0  0
  4 29  1  0  0  0  0
  5 30  1  0  0  0  0
  6 31  1  0  0  0  0
  7 32  1  0  0  0  0
  8 33  1  0  0  0  0
 14 34  1  0  0  0  0
 14 35  1  0  0  0  0
 15 36  1  0  0  0  0
 15 37  1  0  0  0  0
 16 38  1  0  0  0  0
 17 39  1  0  0  0  0
 18 40  1  0  0  0  0
 18 41  1  0  0  0  0
M  CHG  2  18   1  19  -1
M  END
> <FRED Chemgauss4 score>
-10.132319

$$$$
C94208176	P147647080
  -OEChem-05182014473D

 27 28  0     0  0  0  0  0  0999 V2000
  124.5063  105.5272  107.3736 C   0  0  0  0  0  0  0  0  0  0  0  0
  119.1795  103.8744  102.0865 C   0  0  0  0  0  0  0  0  0  0  0  0
  118.6916  103.4455  103.3209 C   0  0  0  0  0  0  0  0  0  0  0  0
  123.1777  105.6369  106.9787 C   0  0  0  0  0  0  0  0  0  0  0  0
  120.6858  105.3933  103.2096 C   0  0  0  0  0  0  0  0  0  0  0  0
  125.0228  107.3737  105.9665 C   0  0  0  0  0  0  0  0  0  0  0  0
  120.1979  104.9645  104.4440 C   0  0  0  0  0  0  0  0  0  0  0  0
  125.4527  106.4082  106.8625 C   0  0  0  0  0  0  0  0  0  0  0  0
  120.1766  104.8483  102.0309 C   0  0  0  0  0  0  0  0  0  0  0  0
  119.2008  103.9906  104.4996 C   0  0  0  0  0  0  0  0  0  0  0  0
  122.8495  106.6371  106.0776 C   0  0  0  0  0  0  0  0  0  0  0  0
  121.4243  106.7854  105.6296 C   0  0  0  0  0  0  0  0  0  0  0  0
  123.7410  107.5113  105.5594 N   0  0  0  0  0  0  0  0  0  0  0  0
  120.7337  105.5348  105.6207 N   0  0  0  0  0  0  0  0  0  0  0  0
  126.7554  106.3241  107.2295 O   0  0  0  0  0  0  0  0  0  0  0  0
  120.7782  105.3767  100.5075 Cl  0  0  0  0  0  0  0  0  0  0  0  0
  118.5689  103.4304  106.0065 Cl  0  0  0  0  0  0  0  0  0  0  0  0
  124.7984  104.7552  108.0802 H   0  0  0  0  0  0  0  0  0  0  0  0
  118.7735  103.4408  101.1762 H   0  0  0  0  0  0  0  0  0  0  0  0
  117.9147  102.6856  103.3469 H   0  0  0  0  0  0  0  0  0  0  0  0
  122.4292  104.9562  107.3699 H   0  0  0  0  0  0  0  0  0  0  0  0
  121.4635  106.1531  103.1684 H   0  0  0  0  0  0  0  0  0  0  0  0
  125.7174  108.0883  105.5358 H   0  0  0  0  0  0  0  0  0  0  0  0
  120.8800  107.4666  106.2928 H   0  0  0  0  0  0  0  0  0  0  0  0
  121.3716  107.2041  104.6191 H   0  0  0  0  0  0  0  0  0  0  0  0
  120.6105  105.0182  106.4695 H   0  0  0  0  0  0  0  0  0  0  0  0
  126.8860  105.5960  107.8604 H   0  0  0  0  0  0  0  0  0  0  0  0
  1  4  2  0  0  0  0
  1  8  1  0  0  0  0
  2  3  1  0  0  0  0
  2  9  2  0  0  0  0
  3 10  2  0  0  0  0
  4 11  1  0  0  0  0
  5  7  2  0  0  0  0
  5  9  1  0  0  0  0
  6  8  2  0  0  0  0
  6 13  1  0  0  0  0
  7 10  1  0  0  0  0
  7 14  1  0  0  0  0
  8 15  1  0  0  0  0
  9 16  1  0  0  0  0
 10 17  1  0  0  0  0
 11 12  1  0  0  0  0
 11 13  2  0  0  0  0
 12 14  1  0  0  0  0
  1 18  1  0  0  0  0
  2 19  1  0  0  0  0
  3 20  1  0  0  0  0
  4 21  1  0  0  0  0
  5 22  1  0  0  0  0
  6 23  1  0  0  0  0
 12 24  1  0  0  0  0
 12 25  1  0  0  0  0
 14 26  1  0  0  0  0
 15 27  1  0  0  0  0
M  END
> <FRED Chemgauss4 score>
-10.113379

$$$$
C44265826	P66858087
  -OEChem-05182014473D

 32 33  0     1  0  0  0  0  0999 V2000
  116.6219  105.1119  103.6776 C   0  0  0  0  0  0  0  0  0  0  0  0
  117.4828  104.9688  102.5895 C   0  0  0  0  0  0  0  0  0  0  0  0
  117.1176  105.0089  104.9774 C   0  0  0  0  0  0  0  0  0  0  0  0
  119.3351  104.6196  104.1009 C   0  0  0  0  0  0  0  0  0  0  0  0
  118.8394  104.7226  102.8011 C   0  0  0  0  0  0  0  0  0  0  0  0
  118.4741  104.7627  105.1890 C   0  0  0  0  0  0  0  0  0  0  0  0
  121.5916  105.5149  104.7799 C   0  0  0  0  0  0  0  0  0  0  0  0
  122.8183  106.7152  105.9350 C   0  0  0  0  0  0  0  0  0  0  0  0
  125.6333  105.7070  106.4595 C   0  0  0  0  0  0  0  0  0  0  0  0
  120.8188  104.3510  104.3322 C   0  0  0  0  0  0  0  0  0  0  0  0
  123.7360  107.3799  106.9518 C   0  0  2  0  0  0  0  0  0  0  0  0
  125.2265  107.1736  106.5872 C   0  0  2  0  0  0  0  0  0  0  0  0
  122.3086  105.5095  105.9409 N   0  0  0  0  0  0  0  0  0  0  0  0
  121.6377  106.6486  104.0740 N   0  0  0  0  0  0  0  0  0  0  0  0
  123.4314  106.8967  108.3031 N   0  0  0  0  0  0  0  0  0  0  0  0
  122.4680  107.4622  104.8553 O   0  0  0  0  0  0  0  0  0  0  0  0
  125.4890  107.7969  105.3252 O   0  0  0  0  0  0  0  0  0  0  0  0
  119.8693  104.5528  101.4254 Cl  0  0  0  0  0  0  0  0  0  0  0  0
  119.0458  104.6471  106.8144 Cl  0  0  0  0  0  0  0  0  0  0  0  0
  115.5655  105.3025  103.5123 H   0  0  0  0  0  0  0  0  0  0  0  0
  117.0794  105.0500  101.5832 H   0  0  0  0  0  0  0  0  0  0  0  0
  116.4329  105.1234  105.8137 H   0  0  0  0  0  0  0  0  0  0  0  0
  125.0111  105.1719  105.7366 H   0  0  0  0  0  0  0  0  0  0  0  0
  125.5682  105.1967  107.4268 H   0  0  0  0  0  0  0  0  0  0  0  0
  126.6766  105.6288  106.1335 H   0  0  0  0  0  0  0  0  0  0  0  0
  120.9012  103.5027  105.0480 H   0  0  0  0  0  0  0  0  0  0  0  0
  121.2344  103.9176  103.3950 H   0  0  0  0  0  0  0  0  0  0  0  0
  123.5322  108.4590  106.9378 H   0  0  0  0  0  0  0  0  0  0  0  0
  125.8829  107.6537  107.3219 H   0  0  0  0  0  0  0  0  0  0  0  0
  122.4847  106.6808  108.5145 H   0  0  0  0  0  0  0  0  0  0  0  0
  124.1332  106.9984  108.9995 H   0  0  0  0  0  0  0  0  0  0  0  0
  126.4382  107.6946  105.1662 H   0  0  0  0  0  0  0  0  0  0  0  0
  1  2  1  0  0  0  0
  1  3  2  0  0  0  0
  2  5  2  0  0  0  0
  3  6  1  0  0  0  0
  4  5  1  0  0  0  0
  4  6  2  0  0  0  0
  4 10  1  0  0  0  0
  5 18  1  0  0  0  0
  6 19  1  0  0  0  0
  7 10  1  0  0  0  0
  7 13  1  0  0  0  0
  7 14  2  0  0  0  0
  8 11  1  0  0  0  0
  8 13  2  0  0  0  0
  8 16  1  0  0  0  0
  9 12  1  0  0  0  0
 11 12  1  0  0  0  0
 11 15  1  0  0  0  0
 12 17  1  0  0  0  0
 14 16  1  0  0  0  0
  1 20  1  0  0  0  0
  2 21  1  0  0  0  0
  3 22  1  0  0  0  0
  9 23  1  0  0  0  0
  9 24  1  0  0  0  0
  9 25  1  0  0  0  0
 10 26  1  0  0  0  0
 10 27  1  0  0  0  0
 11 28  1  0  0  0  0
 12 29  1  0  0  0  0
 15 30  1  0  0  0  0
 15 31  1  0  0  0  0
 17 32  1  0  0  0  0
M  END
> <FRED Chemgauss4 score>
-10.097076

$$$$
C79000372	P123335450
  -OEChem-05182014473D

 39 40  0     1  0  0  0  0  0999 V2000
  118.8459  103.8229  106.3664 C   0  0  0  0  0  0  0  0  0  0  0  0
  117.5731  104.1363  105.8895 C   0  0  0  0  0  0  0  0  0  0  0  0
  118.5304  104.8066  103.7750 C   0  0  0  0  0  0  0  0  0  0  0  0
  119.8032  104.4933  104.2519 C   0  0  0  0  0  0  0  0  0  0  0  0
  119.9610  104.0015  105.5476 C   0  0  0  0  0  0  0  0  0  0  0  0
  117.4153  104.6281  104.5938 C   0  0  0  0  0  0  0  0  0  0  0  0
  120.9507  104.6907  103.3764 C   0  0  0  0  0  0  0  0  0  0  0  0
  123.5903  106.7697  108.4772 C   0  0  0  0  0  0  0  0  0  0  0  0
  123.7473  105.2479  108.4558 C   0  0  0  0  0  0  0  0  0  0  0  0
  124.3806  107.4453  107.3694 C   0  0  0  0  0  0  0  0  0  0  0  0
  123.9611  105.1140  105.9190 C   0  0  0  0  0  0  0  0  0  0  0  0
  123.2593  104.5717  107.1645 C   0  0  2  0  0  0  0  0  0  0  0  0
  121.3193  103.6563  106.0859 C   0  0  0  0  0  0  0  0  0  0  0  0
  121.1567  105.9226  102.9489 N   0  0  0  0  0  0  0  0  0  0  0  0
  121.7961  103.6445  102.9987 N   0  0  0  0  0  0  0  0  0  0  0  0
  121.8043  104.6579  107.0220 N   0  0  0  0  0  0  0  0  0  0  0  0
  124.8942  107.2943  104.8112 O   0  0  0  0  0  0  0  0  0  0  0  0
  122.4893  107.2685  105.5596 O   0  0  0  0  0  0  0  0  0  0  0  0
  120.1977  106.8131  103.4421 O   0  0  0  0  0  0  0  0  0  0  0  0
  116.1931  104.9294  104.1360 F   0  0  0  0  0  0  0  0  0  0  0  0
  123.8739  106.8874  105.7585 S   0  0  0  0  0  0  0  0  0  0  0  0
  118.9587  103.4409  107.3776 H   0  0  0  0  0  0  0  0  0  0  0  0
  116.7049  103.9975  106.5269 H   0  0  0  0  0  0  0  0  0  0  0  0
  118.3929  105.1897  102.7671 H   0  0  0  0  0  0  0  0  0  0  0  0
  122.5308  107.0204  108.3636 H   0  0  0  0  0  0  0  0  0  0  0  0
  123.9083  107.1531  109.4525 H   0  0  0  0  0  0  0  0  0  0  0  0
  124.8170  105.0120  108.6113 H   0  0  0  0  0  0  0  0  0  0  0  0
  123.2209  104.8180  109.3299 H   0  0  0  0  0  0  0  0  0  0  0  0
  124.2455  108.5325  107.3972 H   0  0  0  0  0  0  0  0  0  0  0  0
  125.4498  107.2286  107.4659 H   0  0  0  0  0  0  0  0  0  0  0  0
  125.0344  104.8502  105.9204 H   0  0  0  0  0  0  0  0  0  0  0  0
  123.5263  104.6865  104.9964 H   0  0  0  0  0  0  0  0  0  0  0  0
  123.5152  103.4757  107.2480 H   0  0  0  0  0  0  0  0  0  0  0  0
  121.2951  102.6924  106.6059 H   0  0  0  0  0  0  0  0  0  0  0  0
  122.0526  103.5712  105.2770 H   0  0  0  0  0  0  0  0  0  0  0  0
  121.6626  102.6975  103.3344 H   0  0  0  0  0  0  0  0  0  0  0  0
  122.6023  103.8070  102.4045 H   0  0  0  0  0  0  0  0  0  0  0  0
  121.3755  104.5083  107.9324 H   0  0  0  0  0  0  0  0  0  0  0  0
  120.4869  107.6511  103.0433 H   0  0  0  0  0  0  0  0  0  0  0  0
  1  2  1  0  0  0  0
  1  5  2  0  0  0  0
  2  6  2  0  0  0  0
  3  4  2  0  0  0  0
  3  6  1  0  0  0  0
  4  5  1  0  0  0  0
  4  7  1  0  0  0  0
  5 13  1  0  0  0  0
  6 20  1  0  0  0  0
  7 14  2  0  0  0  0
  7 15  1  0  0  0  0
  8  9  1  0  0  0  0
  8 10  1  0  0  0  0
  9 12  1  0  0  0  0
 10 21  1  0  0  0  0
 11 12  1  0  0  0  0
 11 21  1  0  0  0  0
 12 16  1  0  0  0  0
 13 16  1  0  0  0  0
 14 19  1  0  0  0  0
 17 21  2  0  0  0  0
 18 21  2  0  0  0  0
  1 22  1  0  0  0  0
  2 23  1  0  0  0  0
  3 24  1  0  0  0  0
  8 25  1  0  0  0  0
  8 26  1  0  0  0  0
  9 27  1  0  0  0  0
  9 28  1  0  0  0  0
 10 29  1  0  0  0  0
 10 30  1  0  0  0  0
 11 31  1  0  0  0  0
 11 32  1  0  0  0  0
 12 33  1  0  0  0  0
 13 34  1  0  0  0  0
 13 35  1  0  0  0  0
 15 36  1  0  0  0  0
 15 37  1  0  0  0  0
 16 38  1  0  0  0  0
 19 39  1  0  0  0  0
M  END
> <FRED Chemgauss4 score>
-10.090018

$$$$
C40710439	P61811697
  -OEChem-05182014473D

 26 27  0     1  0  0  0  0  0999 V2000
  118.9334  104.7933  106.1430 C   0  0  0  0  0  0  0  0  0  0  0  0
  120.1705  104.4216  106.6756 C   0  0  0  0  0  0  0  0  0  0  0  0
  119.9553  106.6226  104.9295 C   0  0  0  0  0  0  0  0  0  0  0  0
  121.2175  106.2685  105.4534 C   0  0  0  0  0  0  0  0  0  0  0  0
  118.8250  105.8791  105.2812 C   0  0  0  0  0  0  0  0  0  0  0  0
  121.3016  105.1730  106.3181 C   0  0  0  0  0  0  0  0  0  0  0  0
  123.3872  106.3115  105.8499 C   0  0  0  0  0  0  0  0  0  0  0  0
  125.4007  107.1414  107.1830 C   0  0  0  0  0  0  0  0  0  0  0  0
  125.7681  105.9418  108.0502 C   0  0  0  0  0  0  0  0  0  0  0  0
  124.8056  106.7293  105.8107 C   0  0  2  0  0  0  0  0  0  0  0  0
  122.4200  106.9102  105.1952 N   0  0  0  0  0  0  0  0  0  0  0  0
  125.0193  107.8156  104.8591 N   0  0  0  0  0  0  0  0  0  0  0  0
  126.2832  106.4145  109.2884 O   0  0  0  0  0  0  0  0  0  0  0  0
  117.6282  106.2150  104.7809 F   0  0  0  0  0  0  0  0  0  0  0  0
  122.9424  104.9640  106.8051 S   0  0  0  0  0  0  0  0  0  0  0  0
  118.0455  104.2247  106.4062 H   0  0  0  0  0  0  0  0  0  0  0  0
  120.2481  103.5720  107.3470 H   0  0  0  0  0  0  0  0  0  0  0  0
  119.8594  107.4685  104.2548 H   0  0  0  0  0  0  0  0  0  0  0  0
  126.2991  107.7589  107.0444 H   0  0  0  0  0  0  0  0  0  0  0  0
  124.7015  107.7869  107.7309 H   0  0  0  0  0  0  0  0  0  0  0  0
  124.8945  105.3177  108.2603 H   0  0  0  0  0  0  0  0  0  0  0  0
  126.5363  105.3311  107.5655 H   0  0  0  0  0  0  0  0  0  0  0  0
  125.4511  105.9154  105.4211 H   0  0  0  0  0  0  0  0  0  0  0  0
  124.4890  107.8112  104.0147 H   0  0  0  0  0  0  0  0  0  0  0  0
  125.8173  108.4002  104.9855 H   0  0  0  0  0  0  0  0  0  0  0  0
  126.5068  105.6306  109.8156 H   0  0  0  0  0  0  0  0  0  0  0  0
  1  2  1  0  0  0  0
  1  5  2  0  0  0  0
  2  6  2  0  0  0  0
  3  4  2  0  0  0  0
  3  5  1  0  0  0  0
  4  6  1  0  0  0  0
  4 11  1  0  0  0  0
  5 14  1  0  0  0  0
  6 15  1  0  0  0  0
  7 10  1  0  0  0  0
  7 11  2  0  0  0  0
  7 15  1  0  0  0  0
  8  9  1  0  0  0  0
  8 10  1  0  0  0  0
  9 13  1  0  0  0  0
 10 12  1  0  0  0  0
  1 16  1  0  0  0  0
  2 17  1  0  0  0  0
  3 18  1  0  0  0  0
  8 19  1  0  0  0  0
  8 20  1  0  0  0  0
  9 21  1  0  0  0  0
  9 22  1  0  0  0  0
 10 23  1  0  0  0  0
 12 24  1  0  0  0  0
 12 25  1  0  0  0  0
 13 26  1  0  0  0  0
M  END
> <FRED Chemgauss4 score>
-10.046499

$$$$
cmpd14b_JGP2019	P10000040
  -OEChem-05182014473D

 38 39  0     1  0  0  0  0  0999 V2000
  119.3375  103.6320  105.5445 C   0  0  0  0  0  0  0  0  0  0  0  0
  118.6519  105.7662  106.4459 C   0  0  0  0  0  0  0  0  0  0  0  0
  121.9986  104.2457  106.5499 C   0  0  0  0  0  0  0  0  0  0  0  0
  120.9019  105.5330  108.2755 C   0  0  0  0  0  0  0  0  0  0  0  0
  118.1321  103.5385  104.8489 C   0  0  0  0  0  0  0  0  0  0  0  0
  117.4465  105.6727  105.7503 C   0  0  0  0  0  0  0  0  0  0  0  0
  123.2036  104.3391  107.2461 C   0  0  0  0  0  0  0  0  0  0  0  0
  122.1070  105.6262  108.9717 C   0  0  0  0  0  0  0  0  0  0  0  0
  119.5974  104.7458  106.3430 C   0  0  0  0  0  0  0  0  0  0  0  0
  120.8477  104.8427  107.0646 C   0  0  0  0  0  0  0  0  0  0  0  0
  117.1866  104.5588  104.9518 C   0  0  0  0  0  0  0  0  0  0  0  0
  123.2579  105.0293  108.4570 C   0  0  0  0  0  0  0  0  0  0  0  0
  124.7642  107.6736  105.0799 C   0  0  0  0  0  0  0  0  0  0  0  0
  125.7265  106.6875  107.2603 C   0  0  0  0  0  0  0  0  0  0  0  0
  124.9155  107.8093  106.6051 C   0  0  1  0  0  0  0  0  0  0  0  0
  125.4490  106.5807  108.6902 N   0  0  0  0  0  0  0  0  0  0  0  0
  125.5440  109.1128  106.9917 N   0  3  0  0  0  0  0  0  0  0  0  0
  125.8312  107.6323  104.4079 O   0  5  0  0  0  0  0  0  0  0  0  0
  123.5649  107.6213  104.6790 O   0  0  0  0  0  0  0  0  0  0  0  0
  124.4764  105.3591  110.7410 O   0  0  0  0  0  0  0  0  0  0  0  0
  125.5948  104.0127  108.9353 O   0  0  0  0  0  0  0  0  0  0  0  0
  116.0290  104.4690  104.2838 F   0  0  0  0  0  0  0  0  0  0  0  0
  124.7849  105.1458  109.3398 S   0  0  0  0  0  0  0  0  0  0  0  0
  120.0645  102.8284  105.4542 H   0  0  0  0  0  0  0  0  0  0  0  0
  118.8397  106.6408  107.0641 H   0  0  0  0  0  0  0  0  0  0  0  0
  121.9724  103.7046  105.6071 H   0  0  0  0  0  0  0  0  0  0  0  0
  120.0137  106.0040  108.6900 H   0  0  0  0  0  0  0  0  0  0  0  0
  117.9294  102.6714  104.2273 H   0  0  0  0  0  0  0  0  0  0  0  0
  116.7098  106.4667  105.8298 H   0  0  0  0  0  0  0  0  0  0  0  0
  124.0945  103.8707  106.8364 H   0  0  0  0  0  0  0  0  0  0  0  0
  122.1388  106.1665  109.9138 H   0  0  0  0  0  0  0  0  0  0  0  0
  126.7984  106.8749  107.1279 H   0  0  0  0  0  0  0  0  0  0  0  0
  125.5060  105.7251  106.7836 H   0  0  0  0  0  0  0  0  0  0  0  0
  123.9045  107.8321  107.0318 H   0  0  0  0  0  0  0  0  0  0  0  0
  126.0091  107.1819  109.3137 H   0  0  0  0  0  0  0  0  0  0  0  0
  125.5576  109.2103  108.0075 H   0  0  0  0  0  0  0  0  0  0  0  0
  125.0146  109.8902  106.5951 H   0  0  0  0  0  0  0  0  0  0  0  0
  126.5028  109.1585  106.6450 H   0  0  0  0  0  0  0  0  0  0  0  0
  1  5  1  0  0  0  0
  1  9  2  0  0  0  0
  2  6  2  0  0  0  0
  2  9  1  0  0  0  0
  3  7  2  0  0  0  0
  3 10  1  0  0  0  0
  4  8  1  0  0  0  0
  4 10  2  0  0  0  0
  5 11  2  0  0  0  0
  6 11  1  0  0  0  0
  7 12  1  0  0  0  0
  8 12  2  0  0  0  0
  9 10  1  0  0  0  0
 11 22  1  0  0  0  0
 12 23  1  0  0  0  0
 13 15  1  0  0  0  0
 13 18  1  0  0  0  0
 13 19  2  0  0  0  0
 14 15  1  0  0  0  0
 14 16  1  0  0  0  0
 15 17  1  0  0  0  0
 16 23  1  0  0  0  0
 20 23  2  0  0  0  0
 21 23  2  0  0  0  0
  1 24  1  0  0  0  0
  2 25  1  0  0  0  0
  3 26  1  0  0  0  0
  4 27  1  0  0  0  0
  5 28  1  0  0  0  0
  6 29  1  0  0  0  0
  7 30  1  0  0  0  0
  8 31  1  0  0  0  0
 14 32  1  0  0  0  0
 14 33  1  0  0  0  0
 15 34  1  0  0  0  0
 16 35  1  0  0  0  0
 17 36  1  0  0  0  0
 17 37  1  0  0  0  0
 17 38  1  0  0  0  0
M  CHG  2  17   1  18  -1
M  END
> <FRED Chemgauss4 score>
-10.039877

$$$$
C39421458	P59746003
  -OEChem-05182014473D

 45 47  0     1  0  0  0  0  0999 V2000
  119.6637  104.3297  102.3168 C   0  0  0  0  0  0  0  0  0  0  0  0
  117.5541  104.9246  103.3331 C   0  0  0  0  0  0  0  0  0  0  0  0
  119.1156  104.5457  101.0525 C   0  0  0  0  0  0  0  0  0  0  0  0
  117.0060  105.1407  102.0687 C   0  0  0  0  0  0  0  0  0  0  0  0
  118.8829  104.5190  103.4571 C   0  0  0  0  0  0  0  0  0  0  0  0
  117.7868  104.9513  100.9285 C   0  0  0  0  0  0  0  0  0  0  0  0
  120.8741  104.0819  106.4942 C   0  0  0  0  0  0  0  0  0  0  0  0
  119.4526  104.2947  104.7719 C   0  0  0  0  0  0  0  0  0  0  0  0
  125.3344  106.9838  106.3077 C   0  0  0  0  0  0  0  0  0  0  0  0
  124.7817  106.9269  109.1849 C   0  0  0  0  0  0  0  0  0  0  0  0
  123.6128  106.9553  108.2161 C   0  0  0  0  0  0  0  0  0  0  0  0
  125.8940  106.0861  108.5916 C   0  0  0  0  0  0  0  0  0  0  0  0
  120.9129  104.5070  105.0647 C   0  0  1  0  0  0  0  0  0  0  0  0
  124.0435  107.5693  106.8866 C   0  0  2  0  0  0  0  0  0  0  0  0
  127.5378  105.9685  106.7494 C   0  0  0  0  0  0  0  0  0  0  0  0
  121.3393  105.9298  104.9367 C   0  0  0  0  0  0  0  0  0  0  0  0
  122.9043  107.4930  105.8684 C   0  0  0  0  0  0  0  0  0  0  0  0
  119.6937  103.7633  106.9093 N   0  0  0  0  0  0  0  0  0  0  0  0
  118.7872  103.9032  105.8184 N   0  0  0  0  0  0  0  0  0  0  0  0
  126.2484  106.4549  107.2228 N   0  0  0  0  0  0  0  0  0  0  0  0
  122.6769  106.1360  105.5087 N   0  0  0  0  0  0  0  0  0  0  0  0
  125.5637  107.0708  105.0973 O   0  0  0  0  0  0  0  0  0  0  0  0
  124.3722  108.9474  107.0817 O   0  0  0  0  0  0  0  0  0  0  0  0
  117.1112  105.2192   99.3689 Cl  0  0  0  0  0  0  0  0  0  0  0  0
  120.7000  104.0132  102.4020 H   0  0  0  0  0  0  0  0  0  0  0  0
  116.9365  105.0755  104.2148 H   0  0  0  0  0  0  0  0  0  0  0  0
  119.7356  104.3950  100.1725 H   0  0  0  0  0  0  0  0  0  0  0  0
  115.9689  105.4563  101.9876 H   0  0  0  0  0  0  0  0  0  0  0  0
  121.7811  104.0526  107.1130 H   0  0  0  0  0  0  0  0  0  0  0  0
  125.1424  107.9434  109.3715 H   0  0  0  0  0  0  0  0  0  0  0  0
  124.4714  106.5179  110.1512 H   0  0  0  0  0  0  0  0  0  0  0  0
  123.2196  105.9458  108.0650 H   0  0  0  0  0  0  0  0  0  0  0  0
  122.7909  107.5372  108.6477 H   0  0  0  0  0  0  0  0  0  0  0  0
  126.8026  106.1919  109.1927 H   0  0  0  0  0  0  0  0  0  0  0  0
  125.5979  105.0333  108.6056 H   0  0  0  0  0  0  0  0  0  0  0  0
  121.5407  103.8254  104.4856 H   0  0  0  0  0  0  0  0  0  0  0  0
  128.2731  106.7772  106.7649 H   0  0  0  0  0  0  0  0  0  0  0  0
  127.4480  105.5940  105.7261 H   0  0  0  0  0  0  0  0  0  0  0  0
  127.8938  105.1569  107.3897 H   0  0  0  0  0  0  0  0  0  0  0  0
  120.6443  106.5876  105.4672 H   0  0  0  0  0  0  0  0  0  0  0  0
  121.3765  106.2307  103.8855 H   0  0  0  0  0  0  0  0  0  0  0  0
  123.1906  108.0571  104.9929 H   0  0  0  0  0  0  0  0  0  0  0  0
  122.0118  107.9035  106.3165 H   0  0  0  0  0  0  0  0  0  0  0  0
  123.3668  105.8174  104.8112 H   0  0  0  0  0  0  0  0  0  0  0  0
  123.5811  109.3691  107.4506 H   0  0  0  0  0  0  0  0  0  0  0  0
  1  3  2  0  0  0  0
  1  5  1  0  0  0  0
  2  4  1  0  0  0  0
  2  5  2  0  0  0  0
  3  6  1  0  0  0  0
  4  6  2  0  0  0  0
  5  8  1  0  0  0  0
  6 24  1  0  0  0  0
  7 13  1  0  0  0  0
  7 18  2  0  0  0  0
  8 13  1  0  0  0  0
  8 19  2  0  0  0  0
  9 14  1  0  0  0  0
  9 20  1  0  0  0  0
  9 22  2  0  0  0  0
 10 11  1  0  0  0  0
 10 12  1  0  0  0  0
 11 14  1  0  0  0  0
 12 20  1  0  0  0  0
 13 16  1  0  0  0  0
 14 17  1  0  0  0  0
 14 23  1  0  0  0  0
 15 20  1  0  0  0  0
 16 21  1  0  0  0  0
 17 21  1  0  0  0  0
 18 19  1  0  0  0  0
  1 25  1  0  0  0  0
  2 26  1  0  0  0  0
  3 27  1  0  0  0  0
  4 28  1  0  0  0  0
  7 29  1  0  0  0  0
 10 30  1  0  0  0  0
 10 31  1  0  0  0  0
 11 32  1  0  0  0  0
 11 33  1  0  0  0  0
 12 34  1  0  0  0  0
 12 35  1  0  0  0  0
 13 36  1  0  0  0  0
 15 37  1  0  0  0  0
 15 38  1  0  0  0  0
 15 39  1  0  0  0  0
 16 40  1  0  0  0  0
 16 41  1  0  0  0  0
 17 42  1  0  0  0  0
 17 43  1  0  0  0  0
 21 44  1  0  0  0  0
 23 45  1  0  0  0  0
M  END
> <FRED Chemgauss4 score>
-10.038302

$$$$
C50393690	P75386039
  -OEChem-05182014473D

 31 32  0     1  0  0  0  0  0999 V2000
  120.6538  104.9113  101.1788 C   0  0  0  0  0  0  0  0  0  0  0  0
  121.1675  105.1358  102.4561 C   0  0  0  0  0  0  0  0  0  0  0  0
  119.2739  104.8667  100.9799 C   0  0  0  0  0  0  0  0  0  0  0  0
  120.3013  105.3157  103.5345 C   0  0  0  0  0  0  0  0  0  0  0  0
  118.4077  105.0466  102.0583 C   0  0  0  0  0  0  0  0  0  0  0  0
  118.9213  105.2711  103.3356 C   0  0  0  0  0  0  0  0  0  0  0  0
  124.1592  106.9211  105.9810 C   0  0  0  0  0  0  0  0  0  0  0  0
  123.8041  105.0236  108.1709 C   0  0  0  0  0  0  0  0  0  0  0  0
  123.0527  104.7881  106.8699 C   0  0  0  0  0  0  0  0  0  0  0  0
  125.1796  105.5772  107.8511 C   0  0  0  0  0  0  0  0  0  0  0  0
  122.8737  106.1161  106.1386 C   0  0  2  0  0  0  0  0  0  0  0  0
  120.9027  105.5536  104.8894 C   0  0  0  0  0  0  0  0  0  0  0  0
  125.1457  106.6877  106.9176 N   0  0  0  0  0  0  0  0  0  0  0  0
  122.3149  105.8932  104.8061 N   0  0  0  0  0  0  0  0  0  0  0  0
  124.2811  107.7917  105.1167 O   0  0  0  0  0  0  0  0  0  0  0  0
  116.7089  104.9785  101.7392 Cl  0  0  0  0  0  0  0  0  0  0  0  0
  117.8644  105.4975  104.6928 Cl  0  0  0  0  0  0  0  0  0  0  0  0
  121.3283  104.7706  100.3395 H   0  0  0  0  0  0  0  0  0  0  0  0
  122.2444  105.1682  102.5993 H   0  0  0  0  0  0  0  0  0  0  0  0
  118.8914  104.6904   99.9775 H   0  0  0  0  0  0  0  0  0  0  0  0
  123.2487  105.7305  108.7990 H   0  0  0  0  0  0  0  0  0  0  0  0
  123.8980  104.0888  108.7341 H   0  0  0  0  0  0  0  0  0  0  0  0
  123.6100  104.0727  106.2509 H   0  0  0  0  0  0  0  0  0  0  0  0
  122.0759  104.3375  107.0828 H   0  0  0  0  0  0  0  0  0  0  0  0
  125.6810  105.9219  108.7609 H   0  0  0  0  0  0  0  0  0  0  0  0
  125.8077  104.8035  107.3958 H   0  0  0  0  0  0  0  0  0  0  0  0
  122.1799  106.7511  106.7126 H   0  0  0  0  0  0  0  0  0  0  0  0
  120.3882  106.3740  105.4016 H   0  0  0  0  0  0  0  0  0  0  0  0
  120.8088  104.6651  105.5225 H   0  0  0  0  0  0  0  0  0  0  0  0
  125.9141  107.3504  106.9568 H   0  0  0  0  0  0  0  0  0  0  0  0
  122.4275  106.7414  104.2545 H   0  0  0  0  0  0  0  0  0  0  0  0
  1  2  1  0  0  0  0
  1  3  2  0  0  0  0
  2  4  2  0  0  0  0
  3  5  1  0  0  0  0
  4  6  1  0  0  0  0
  4 12  1  0  0  0  0
  5  6  2  0  0  0  0
  5 16  1  0  0  0  0
  6 17  1  0  0  0  0
  7 11  1  0  0  0  0
  7 13  1  0  0  0  0
  7 15  2  0  0  0  0
  8  9  1  0  0  0  0
  8 10  1  0  0  0  0
  9 11  1  0  0  0  0
 10 13  1  0  0  0  0
 11 14  1  0  0  0  0
 12 14  1  0  0  0  0
  1 18  1  0  0  0  0
  2 19  1  0  0  0  0
  3 20  1  0  0  0  0
  8 21  1  0  0  0  0
  8 22  1  0  0  0  0
  9 23  1  0  0  0  0
  9 24  1  0  0  0  0
 10 25  1  0  0  0  0
 10 26  1  0  0  0  0
 11 27  1  0  0  0  0
 12 28  1  0  0  0  0
 12 29  1  0  0  0  0
 13 30  1  0  0  0  0
 14 31  1  0  0  0  0
M  END
> <FRED Chemgauss4 score>
-10.018183

$$$$
C87968908	P137595317
  -OEChem-05182014473D

 47 48  0     1  0  0  0  0  0999 V2000
  121.6169  105.4665  105.3792 C   0  0  0  0  0  0  0  0  0  0  0  0
  123.5372  106.1591  105.7148 C   0  0  0  0  0  0  0  0  0  0  0  0
  119.4227  106.6350  105.2681 C   0  0  0  0  0  0  0  0  0  0  0  0
  119.5336  104.1054  105.3509 C   0  0  0  0  0  0  0  0  0  0  0  0
  117.9786  106.5525  104.7743 C   0  0  0  0  0  0  0  0  0  0  0  0
  118.0892  104.0289  104.8569 C   0  0  0  0  0  0  0  0  0  0  0  0
  120.2275  105.3884  104.8638 C   0  0  0  0  0  0  0  0  0  0  0  0
  117.2856  105.2724  105.2591 C   0  0  0  0  0  0  0  0  0  0  0  0
  125.4674  106.0476  108.2088 C   0  0  0  0  0  0  0  0  0  0  0  0
  115.0622  106.4273  105.1623 C   0  0  0  0  0  0  0  0  0  0  0  0
  115.1721  103.9238  105.2440 C   0  0  0  0  0  0  0  0  0  0  0  0
  115.8957  105.1435  103.1764 C   0  0  0  0  0  0  0  0  0  0  0  0
  124.8289  106.8539  105.7976 C   0  0  2  0  0  0  0  0  0  0  0  0
  125.2376  107.2265  107.2654 C   0  0  2  0  0  0  0  0  0  0  0  0
  115.8610  105.1921  104.7132 C   0  0  0  0  0  0  0  0  0  0  0  0
  122.4554  106.4941  105.0582 N   0  0  0  0  0  0  0  0  0  0  0  0
  122.1256  104.5329  106.1888 N   0  0  0  0  0  0  0  0  0  0  0  0
  124.8686  108.0688  104.9421 N   0  0  0  0  0  0  0  0  0  0  0  0
  123.4259  105.0008  106.4166 O   0  0  0  0  0  0  0  0  0  0  0  0
  126.4612  107.9678  107.2085 O   0  0  0  0  0  0  0  0  0  0  0  0
  119.8948  107.5372  104.8593 H   0  0  0  0  0  0  0  0  0  0  0  0
  119.4272  106.7488  106.3604 H   0  0  0  0  0  0  0  0  0  0  0  0
  119.5444  104.0642  106.4483 H   0  0  0  0  0  0  0  0  0  0  0  0
  120.0836  103.2227  105.0011 H   0  0  0  0  0  0  0  0  0  0  0  0
  117.4265  107.4321  105.1263 H   0  0  0  0  0  0  0  0  0  0  0  0
  117.9695  106.5905  103.6774 H   0  0  0  0  0  0  0  0  0  0  0  0
  118.0873  103.9190  103.7649 H   0  0  0  0  0  0  0  0  0  0  0  0
  117.6154  103.1291  105.2673 H   0  0  0  0  0  0  0  0  0  0  0  0
  120.2876  105.3552  103.7680 H   0  0  0  0  0  0  0  0  0  0  0  0
  117.2254  105.3055  106.3552 H   0  0  0  0  0  0  0  0  0  0  0  0
  126.2117  105.3492  107.8162 H   0  0  0  0  0  0  0  0  0  0  0  0
  124.5341  105.5032  108.3902 H   0  0  0  0  0  0  0  0  0  0  0  0
  125.8171  106.4040  109.1843 H   0  0  0  0  0  0  0  0  0  0  0  0
  114.0337  106.3982  104.7853 H   0  0  0  0  0  0  0  0  0  0  0  0
  115.5255  107.3504  104.7961 H   0  0  0  0  0  0  0  0  0  0  0  0
  115.0148  106.4892  106.2553 H   0  0  0  0  0  0  0  0  0  0  0  0
  114.1469  103.8447  104.8649 H   0  0  0  0  0  0  0  0  0  0  0  0
  115.7128  103.0229  104.9331 H   0  0  0  0  0  0  0  0  0  0  0  0
  115.1237  103.9224  106.3387 H   0  0  0  0  0  0  0  0  0  0  0  0
  114.8831  105.0856  102.7614 H   0  0  0  0  0  0  0  0  0  0  0  0
  116.4540  104.2724  102.8156 H   0  0  0  0  0  0  0  0  0  0  0  0
  116.3736  106.0398  102.7650 H   0  0  0  0  0  0  0  0  0  0  0  0
  125.6499  106.2028  105.4139 H   0  0  0  0  0  0  0  0  0  0  0  0
  124.4856  107.8874  107.7115 H   0  0  0  0  0  0  0  0  0  0  0  0
  124.4014  108.0166  104.0766 H   0  0  0  0  0  0  0  0  0  0  0  0
  125.5176  108.7661  105.1929 H   0  0  0  0  0  0  0  0  0  0  0  0
  126.6441  108.2561  108.1141 H   0  0  0  0  0  0  0  0  0  0  0  0
  1  7  1  0  0  0  0
  1 16  1  0  0  0  0
  1 17  2  0  0  0  0
  2 13  1  0  0  0  0
  2 16  2  0  0  0  0
  2 19  1  0  0  0  0
  3  5  1  0  0  0  0
  3  7  1  0  0  0  0
  4  6  1  0  0  0  0
  4  7  1  0  0  0  0
  5  8  1  0  0  0  0
  6  8  1  0  0  0  0
  8 15  1  0  0  0  0
  9 14  1  0  0  0  0
 10 15  1  0  0  0  0
 11 15  1  0  0  0  0
 12 15  1  0  0  0  0
 13 14  1  0  0  0  0
 13 18  1  0  0  0  0
 14 20  1  0  0  0  0
 17 19  1  0  0  0  0
  3 21  1  0  0  0  0
  3 22  1  0  0  0  0
  4 23  1  0  0  0  0
  4 24  1  0  0  0  0
  5 25  1  0  0  0  0
  5 26  1  0  0  0  0
  6 27  1  0  0  0  0
  6 28  1  0  0  0  0
  7 29  1  0  0  0  0
  8 30  1  0  0  0  0
  9 31  1  0  0  0  0
  9 32  1  0  0  0  0
  9 33  1  0  0  0  0
 10 34  1  0  0  0  0
 10 35  1  0  0  0  0
 10 36  1  0  0  0  0
 11 37  1  0  0  0  0
 11 38  1  0  0  0  0
 11 39  1  0  0  0  0
 12 40  1  0  0  0  0
 12 41  1  0  0  0  0
 12 42  1  0  0  0  0
 13 43  1  0  0  0  0
 14 44  1  0  0  0  0
 18 45  1  0  0  0  0
 18 46  1  0  0  0  0
 20 47  1  0  0  0  0
M  END
> <FRED Chemgauss4 score>
-9.962408

$$$$
C88037217	P137697158
  -OEChem-05182014473D

 31 32  0     1  0  0  0  0  0999 V2000
  120.5757  104.3660  106.0435 C   0  0  0  0  0  0  0  0  0  0  0  0
  119.5794  104.3630  105.0709 C   0  0  0  0  0  0  0  0  0  0  0  0
  121.4793  105.4206  105.9729 C   0  0  0  0  0  0  0  0  0  0  0  0
  119.5527  105.3808  104.1232 C   0  0  0  0  0  0  0  0  0  0  0  0
  121.3884  106.4037  104.9940 C   0  0  0  0  0  0  0  0  0  0  0  0
  123.0805  106.9286  106.1734 C   0  0  0  0  0  0  0  0  0  0  0  0
  118.4734  105.3572  103.0885 C   0  0  0  0  0  0  0  0  0  0  0  0
  126.2856  104.9070  108.7667 C   0  0  0  0  0  0  0  0  0  0  0  0
  125.7255  105.6372  107.5558 C   0  0  0  0  0  0  0  0  0  0  0  0
  124.8574  106.8286  107.9732 C   0  0  0  0  0  0  0  0  0  0  0  0
  124.3044  107.6003  106.7639 C   0  0  1  0  0  0  0  0  0  0  0  0
  120.4238  106.4141  104.0406 N   0  0  0  0  0  0  0  0  0  0  0  0
  122.3885  107.3333  105.1307 N   0  0  0  0  0  0  0  0  0  0  0  0
  122.5708  105.7794  106.7159 N   0  0  0  0  0  0  0  0  0  0  0  0
  125.2957  107.7580  105.7252 N   0  0  0  0  0  0  0  0  0  0  0  0
  120.6402  103.5966  106.8030 H   0  0  0  0  0  0  0  0  0  0  0  0
  118.8372  103.5703  105.0621 H   0  0  0  0  0  0  0  0  0  0  0  0
  117.5968  105.9099  103.4439 H   0  0  0  0  0  0  0  0  0  0  0  0
  118.8165  105.8088  102.1502 H   0  0  0  0  0  0  0  0  0  0  0  0
  118.1705  104.3290  102.8577 H   0  0  0  0  0  0  0  0  0  0  0  0
  125.4803  104.5527  109.4180 H   0  0  0  0  0  0  0  0  0  0  0  0
  126.8865  104.0444  108.4616 H   0  0  0  0  0  0  0  0  0  0  0  0
  126.9250  105.5765  109.3504 H   0  0  0  0  0  0  0  0  0  0  0  0
  126.5582  105.9761  106.9291 H   0  0  0  0  0  0  0  0  0  0  0  0
  125.1319  104.9361  106.9575 H   0  0  0  0  0  0  0  0  0  0  0  0
  124.0218  106.4614  108.5836 H   0  0  0  0  0  0  0  0  0  0  0  0
  125.4488  107.4942  108.6154 H   0  0  0  0  0  0  0  0  0  0  0  0
  124.0474  108.6179  107.0837 H   0  0  0  0  0  0  0  0  0  0  0  0
  122.9344  105.2848  107.5198 H   0  0  0  0  0  0  0  0  0  0  0  0
  126.2570  107.8844  105.9874 H   0  0  0  0  0  0  0  0  0  0  0  0
  124.9891  107.9417  104.7863 H   0  0  0  0  0  0  0  0  0  0  0  0
  1  2  2  0  0  0  0
  1  3  1  0  0  0  0
  2  4  1  0  0  0  0
  3  5  2  0  0  0  0
  3 14  1  0  0  0  0
  4  7  1  0  0  0  0
  4 12  2  0  0  0  0
  5 12  1  0  0  0  0
  5 13  1  0  0  0  0
  6 11  1  0  0  0  0
  6 13  2  0  0  0  0
  6 14  1  0  0  0  0
  8  9  1  0  0  0  0
  9 10  1  0  0  0  0
 10 11  1  0  0  0  0
 11 15  1  0  0  0  0
  1 16  1  0  0  0  0
  2 17  1  0  0  0  0
  7 18  1  0  0  0  0
  7 19  1  0  0  0  0
  7 20  1  0  0  0  0
  8 21  1  0  0  0  0
  8 22  1  0  0  0  0
  8 23  1  0  0  0  0
  9 24  1  0  0  0  0
  9 25  1  0  0  0  0
 10 26  1  0  0  0  0
 10 27  1  0  0  0  0
 11 28  1  0  0  0  0
 14 29  1  0  0  0  0
 15 30  1  0  0  0  0
 15 31  1  0  0  0  0
M  END
> <FRED Chemgauss4 score>
-9.943403

$$$$
C39959114	P97216792
  -OEChem-05182014473D

 42 44  0     1  0  0  0  0  0999 V2000
  117.5119  105.4013  104.0332 C   0  0  0  0  0  0  0  0  0  0  0  0
  119.6294  104.8858  100.6814 C   0  0  0  0  0  0  0  0  0  0  0  0
  119.6800  104.6810  103.1689 C   0  0  0  0  0  0  0  0  0  0  0  0
  116.8740  105.1537  102.8736 C   0  0  0  0  0  0  0  0  0  0  0  0
  118.4320  105.0714   99.8570 C   0  0  0  0  0  0  0  0  0  0  0  0
  118.9187  105.0391  104.2243 C   0  0  0  0  0  0  0  0  0  0  0  0
  119.0773  104.6236  101.8630 C   0  0  0  0  0  0  0  0  0  0  0  0
  122.6825  105.9112  106.8251 C   0  0  0  0  0  0  0  0  0  0  0  0
  117.5923  104.4433  101.7636 C   0  0  2  0  0  0  0  0  0  0  0  0
  119.4627  105.1621  105.6087 C   0  0  1  0  0  0  0  0  0  0  0  0
  121.2483  105.5146  106.9189 C   0  0  2  0  0  0  0  0  0  0  0  0
  125.4821  105.3142  105.9071 C   0  0  0  0  0  0  0  0  0  0  0  0
  125.6516  103.9256  107.9844 C   0  0  0  0  0  0  0  0  0  0  0  0
  125.3388  106.4345  108.1439 C   0  0  0  0  0  0  0  0  0  0  0  0
  124.9932  105.1602  107.3537 C   0  0  0  0  0  0  0  0  0  0  0  0
  117.2605  104.9282  100.4070 N   0  0  0  0  0  0  0  0  0  0  0  0
  120.8797  104.8083  105.7008 N   0  0  0  0  0  0  0  0  0  0  0  0
  119.3332  106.5295  106.1189 N   0  0  0  0  0  0  0  0  0  0  0  0
  123.5594  104.9780  107.3444 N   0  0  0  0  0  0  0  0  0  0  0  0
  122.9803  106.9859  106.3171 O   0  0  0  0  0  0  0  0  0  0  0  0
  120.4554  106.6812  107.0500 O   0  0  0  0  0  0  0  0  0  0  0  0
  126.7405  106.6805  108.1527 O   0  0  0  0  0  0  0  0  0  0  0  0
  116.9884  105.8845  104.8518 H   0  0  0  0  0  0  0  0  0  0  0  0
  120.6399  105.1437  100.4244 H   0  0  0  0  0  0  0  0  0  0  0  0
  120.7446  104.4993  103.2670 H   0  0  0  0  0  0  0  0  0  0  0  0
  115.8263  105.4108  102.7580 H   0  0  0  0  0  0  0  0  0  0  0  0
  118.5629  105.3932   98.8135 H   0  0  0  0  0  0  0  0  0  0  0  0
  117.3332  103.3771  101.8159 H   0  0  0  0  0  0  0  0  0  0  0  0
  118.8754  104.5034  106.2505 H   0  0  0  0  0  0  0  0  0  0  0  0
  121.1094  104.8760  107.8041 H   0  0  0  0  0  0  0  0  0  0  0  0
  125.0307  106.1884  105.4249 H   0  0  0  0  0  0  0  0  0  0  0  0
  126.5713  105.4320  105.8679 H   0  0  0  0  0  0  0  0  0  0  0  0
  125.2303  104.4314  105.3078 H   0  0  0  0  0  0  0  0  0  0  0  0
  125.3277  103.7797  109.0210 H   0  0  0  0  0  0  0  0  0  0  0  0
  126.7436  104.0132  107.9806 H   0  0  0  0  0  0  0  0  0  0  0  0
  125.3848  103.0145  107.4359 H   0  0  0  0  0  0  0  0  0  0  0  0
  124.8574  107.3113  107.6975 H   0  0  0  0  0  0  0  0  0  0  0  0
  125.0028  106.3630  109.1848 H   0  0  0  0  0  0  0  0  0  0  0  0
  120.9446  103.8151  105.8820 H   0  0  0  0  0  0  0  0  0  0  0  0
  119.5896  107.2047  105.3979 H   0  0  0  0  0  0  0  0  0  0  0  0
  123.1782  104.1231  107.7384 H   0  0  0  0  0  0  0  0  0  0  0  0
  126.8772  107.4929  108.6655 H   0  0  0  0  0  0  0  0  0  0  0  0
  1  4  2  0  0  0  0
  1  6  1  0  0  0  0
  2  5  1  0  0  0  0
  2  7  2  0  0  0  0
  3  6  2  0  0  0  0
  3  7  1  0  0  0  0
  4  9  1  0  0  0  0
  5 16  2  0  0  0  0
  6 10  1  0  0  0  0
  7  9  1  0  0  0  0
  8 11  1  0  0  0  0
  8 19  1  0  0  0  0
  8 20  2  0  0  0  0
  9 16  1  0  0  0  0
 10 17  1  0  0  0  0
 10 18  1  0  0  0  0
 11 17  1  0  0  0  0
 11 21  1  0  0  0  0
 12 15  1  0  0  0  0
 13 15  1  0  0  0  0
 14 15  1  0  0  0  0
 14 22  1  0  0  0  0
 15 19  1  0  0  0  0
 18 21  1  0  0  0  0
  1 23  1  0  0  0  0
  2 24  1  0  0  0  0
  3 25  1  0  0  0  0
  4 26  1  0  0  0  0
  5 27  1  0  0  0  0
  9 28  1  0  0  0  0
 10 29  1  0  0  0  0
 11 30  1  0  0  0  0
 12 31  1  0  0  0  0
 12 32  1  0  0  0  0
 12 33  1  0  0  0  0
 13 34  1  0  0  0  0
 13 35  1  0  0  0  0
 13 36  1  0  0  0  0
 14 37  1  0  0  0  0
 14 38  1  0  0  0  0
 17 39  1  0  0  0  0
 18 40  1  0  0  0  0
 19 41  1  0  0  0  0
 22 42  1  0  0  0  0
M  END
> <FRED Chemgauss4 score>
-9.912069

$$$$
C63180763	P97025531
  -OEChem-05182014473D

 35 36  0     1  0  0  0  0  0999 V2000
  118.5078  104.4948  100.5895 C   0  0  0  0  0  0  0  0  0  0  0  0
  119.7267  105.0026  100.1914 C   0  0  0  0  0  0  0  0  0  0  0  0
  119.5075  104.5212  102.5414 C   0  0  0  0  0  0  0  0  0  0  0  0
  122.1812  105.4928  106.5419 C   0  0  0  0  0  0  0  0  0  0  0  0
  118.4276  104.8789  105.9012 C   0  0  0  0  0  0  0  0  0  0  0  0
  119.6996  105.5008  106.4895 C   0  0  0  0  0  0  0  0  0  0  0  0
  118.7197  103.8399  104.8207 C   0  0  0  0  0  0  0  0  0  0  0  0
  121.0343  104.7164  104.4887 C   0  0  0  0  0  0  0  0  0  0  0  0
  120.9677  104.7849  106.0217 C   0  0  1  0  0  0  0  0  0  0  0  0
  125.4078  104.9565  107.0881 C   0  0  0  0  0  0  0  0  0  0  0  0
  124.1953  105.2012  107.9706 C   0  0  0  0  0  0  0  0  0  0  0  0
  118.3804  104.2177  101.9367 N   0  0  0  0  0  0  0  0  0  0  0  0
  119.7315  104.3654  103.9060 N   0  0  0  0  0  0  0  0  0  0  0  0
  126.6253  105.4192  107.6983 N   0  0  0  0  0  0  0  0  0  0  0  0
  122.9767  104.7166  107.3629 N   0  0  0  0  0  0  0  0  0  0  0  0
  122.3844  106.6582  106.2220 O   0  0  0  0  0  0  0  0  0  0  0  0
  120.7624  105.1450  101.5510 S   0  0  0  0  0  0  0  0  0  0  0  0
  117.6706  104.3061   99.9312 H   0  0  0  0  0  0  0  0  0  0  0  0
  120.0467  105.2876   99.1993 H   0  0  0  0  0  0  0  0  0  0  0  0
  117.8411  104.4159  106.7084 H   0  0  0  0  0  0  0  0  0  0  0  0
  117.7954  105.6762  105.4804 H   0  0  0  0  0  0  0  0  0  0  0  0
  119.7356  106.5653  106.2228 H   0  0  0  0  0  0  0  0  0  0  0  0
  119.6428  105.4500  107.5854 H   0  0  0  0  0  0  0  0  0  0  0  0
  119.0783  102.9136  105.2768 H   0  0  0  0  0  0  0  0  0  0  0  0
  117.7917  103.6165  104.2874 H   0  0  0  0  0  0  0  0  0  0  0  0
  121.3786  105.6814  104.0941 H   0  0  0  0  0  0  0  0  0  0  0  0
  121.7723  103.9602  104.1916 H   0  0  0  0  0  0  0  0  0  0  0  0
  120.9917  103.7852  106.4261 H   0  0  0  0  0  0  0  0  0  0  0  0
  125.3103  105.4670  106.1248 H   0  0  0  0  0  0  0  0  0  0  0  0
  125.5283  103.8845  106.9037 H   0  0  0  0  0  0  0  0  0  0  0  0
  124.3091  104.6772  108.9245 H   0  0  0  0  0  0  0  0  0  0  0  0
  124.0595  106.2682  108.1747 H   0  0  0  0  0  0  0  0  0  0  0  0
  126.6184  106.2851  108.2132 H   0  0  0  0  0  0  0  0  0  0  0  0
  127.4990  104.9901  107.4377 H   0  0  0  0  0  0  0  0  0  0  0  0
  122.6915  103.7597  107.5482 H   0  0  0  0  0  0  0  0  0  0  0  0
  1  2  2  0  0  0  0
  1 12  1  0  0  0  0
  2 17  1  0  0  0  0
  3 12  2  0  0  0  0
  3 13  1  0  0  0  0
  3 17  1  0  0  0  0
  4  9  1  0  0  0  0
  4 15  1  0  0  0  0
  4 16  2  0  0  0  0
  5  6  1  0  0  0  0
  5  7  1  0  0  0  0
  6  9  1  0  0  0  0
  7 13  1  0  0  0  0
  8  9  1  0  0  0  0
  8 13  1  0  0  0  0
 10 11  1  0  0  0  0
 10 14  1  0  0  0  0
 11 15  1  0  0  0  0
  1 18  1  0  0  0  0
  2 19  1  0  0  0  0
  5 20  1  0  0  0  0
  5 21  1  0  0  0  0
  6 22  1  0  0  0  0
  6 23  1  0  0  0  0
  7 24  1  0  0  0  0
  7 25  1  0  0  0  0
  8 26  1  0  0  0  0
  8 27  1  0  0  0  0
  9 28  1  0  0  0  0
 10 29  1  0  0  0  0
 10 30  1  0  0  0  0
 11 31  1  0  0  0  0
 11 32  1  0  0  0  0
 14 33  1  0  0  0  0
 14 34  1  0  0  0  0
 15 35  1  0  0  0  0
M  END
> <FRED Chemgauss4 score>
-9.880460

$$$$
C19323396	P28918816
  -OEChem-05182014473D

 54 56  0     1  0  0  0  0  0999 V2000
  118.7113  104.7342  104.3859 C   0  0  0  0  0  0  0  0  0  0  0  0
  119.0851  105.7988  106.5742 C   0  0  0  0  0  0  0  0  0  0  0  0
  119.8595  103.4393  106.1371 C   0  0  0  0  0  0  0  0  0  0  0  0
  120.3360  106.5657  104.6609 C   0  0  0  0  0  0  0  0  0  0  0  0
  121.1115  104.2030  104.2231 C   0  0  0  0  0  0  0  0  0  0  0  0
  121.4604  105.2719  106.3539 C   0  0  0  0  0  0  0  0  0  0  0  0
  118.7296  104.4609  105.8935 C   0  0  0  0  0  0  0  0  0  0  0  0
  120.0508  105.2695  103.8701 C   0  0  0  0  0  0  0  0  0  0  0  0
  117.3882  103.9287  106.3898 C   0  0  0  0  0  0  0  0  0  0  0  0
  118.6517  105.5075   99.6877 C   0  0  0  0  0  0  0  0  0  0  0  0
  120.0161  105.5365  102.3680 C   0  0  0  0  0  0  0  0  0  0  0  0
  119.7416  104.5218  100.0782 C   0  0  0  0  0  0  0  0  0  0  0  0
  119.7432  104.2560  101.5833 C   0  0  0  0  0  0  0  0  0  0  0  0
  125.5031  106.6976  107.8653 C   0  0  0  0  0  0  0  0  0  0  0  0
  122.8642  105.7956  106.0155 C   0  0  1  0  0  0  0  0  0  0  0  0
  124.7356  107.4209  106.7593 C   0  0  2  0  0  0  0  0  0  0  0  0
  123.2376  107.0797  106.7651 C   0  0  1  0  0  0  0  0  0  0  0  0
  120.4050  106.2930  106.1179 N   0  0  2  0  0  0  0  0  0  0  0  0
  121.1659  103.9748  105.6884 N   0  0  1  0  0  0  0  0  0  0  0  0
  117.7326  104.5453  103.6711 O   0  0  0  0  0  0  0  0  0  0  0  0
  124.9428  107.0592  109.1237 O   0  0  0  0  0  0  0  0  0  0  0  0
  123.7966  104.7707  106.3587 O   0  0  0  0  0  0  0  0  0  0  0  0
  125.2953  107.0461  105.4992 O   0  0  0  0  0  0  0  0  0  0  0  0
  122.5279  108.1583  106.1444 O   0  0  0  0  0  0  0  0  0  0  0  0
  118.3228  106.5587  106.3542 H   0  0  0  0  0  0  0  0  0  0  0  0
  119.0823  105.6919  107.6653 H   0  0  0  0  0  0  0  0  0  0  0  0
  119.9121  103.1636  107.1969 H   0  0  0  0  0  0  0  0  0  0  0  0
  119.6544  102.5019  105.6024 H   0  0  0  0  0  0  0  0  0  0  0  0
  121.2823  107.0157  104.3330 H   0  0  0  0  0  0  0  0  0  0  0  0
  119.5611  107.3196  104.4687 H   0  0  0  0  0  0  0  0  0  0  0  0
  120.8946  103.2537  103.7155 H   0  0  0  0  0  0  0  0  0  0  0  0
  122.1031  104.5146  103.8695 H   0  0  0  0  0  0  0  0  0  0  0  0
  121.5047  105.0860  107.4372 H   0  0  0  0  0  0  0  0  0  0  0  0
  117.4363  103.7458  107.4624 H   0  0  0  0  0  0  0  0  0  0  0  0
  117.1484  102.9964  105.8804 H   0  0  0  0  0  0  0  0  0  0  0  0
  116.6034  104.6566  106.1879 H   0  0  0  0  0  0  0  0  0  0  0  0
  117.6645  105.1381   99.9830 H   0  0  0  0  0  0  0  0  0  0  0  0
  118.6476  105.6583   98.6037 H   0  0  0  0  0  0  0  0  0  0  0  0
  118.8123  106.4793  100.1653 H   0  0  0  0  0  0  0  0  0  0  0  0
  119.2400  106.2790  102.1585 H   0  0  0  0  0  0  0  0  0  0  0  0
  120.9747  105.9677  102.0632 H   0  0  0  0  0  0  0  0  0  0  0  0
  120.7148  104.9208   99.7692 H   0  0  0  0  0  0  0  0  0  0  0  0
  119.5884  103.5824   99.5343 H   0  0  0  0  0  0  0  0  0  0  0  0
  118.7746  103.8380  101.8838 H   0  0  0  0  0  0  0  0  0  0  0  0
  120.5067  103.5059  101.8232 H   0  0  0  0  0  0  0  0  0  0  0  0
  125.4198  105.6120  107.7561 H   0  0  0  0  0  0  0  0  0  0  0  0
  126.5586  106.9877  107.8772 H   0  0  0  0  0  0  0  0  0  0  0  0
  122.9411  105.9378  104.9364 H   0  0  0  0  0  0  0  0  0  0  0  0
  124.8770  108.5023  106.8643 H   0  0  0  0  0  0  0  0  0  0  0  0
  122.8805  107.0295  107.8011 H   0  0  0  0  0  0  0  0  0  0  0  0
  125.4511  106.5848  109.8001 H   0  0  0  0  0  0  0  0  0  0  0  0
  123.6898  104.6101  107.3084 H   0  0  0  0  0  0  0  0  0  0  0  0
  126.2247  107.3185  105.5219 H   0  0  0  0  0  0  0  0  0  0  0  0
  122.7758  108.9578  106.6300 H   0  0  0  0  0  0  0  0  0  0  0  0
  1  7  1  0  0  0  0
  1  8  1  0  0  0  0
  1 20  2  0  0  0  0
  2  7  1  0  0  0  0
  2 18  1  0  0  0  0
  3  7  1  0  0  0  0
  3 19  1  0  0  0  0
  4  8  1  0  0  0  0
  4 18  1  0  0  0  0
  5  8  1  0  0  0  0
  5 19  1  0  0  0  0
  6 15  1  0  0  0  0
  6 18  1  0  0  0  0
  6 19  1  0  0  0  0
  7  9  1  0  0  0  0
  8 11  1  0  0  0  0
 10 12  1  0  0  0  0
 11 13  1  0  0  0  0
 12 13  1  0  0  0  0
 14 16  1  0  0  0  0
 14 21  1  0  0  0  0
 15 17  1  0  0  0  0
 15 22  1  0  0  0  0
 16 17  1  0  0  0  0
 16 23  1  0  0  0  0
 17 24  1  0  0  0  0
  2 25  1  0  0  0  0
  2 26  1  0  0  0  0
  3 27  1  0  0  0  0
  3 28  1  0  0  0  0
  4 29  1  0  0  0  0
  4 30  1  0  0  0  0
  5 31  1  0  0  0  0
  5 32  1  0  0  0  0
  6 33  1  0  0  0  0
  9 34  1  0  0  0  0
  9 35  1  0  0  0  0
  9 36  1  0  0  0  0
 10 37  1  0  0  0  0
 10 38  1  0  0  0  0
 10 39  1  0  0  0  0
 11 40  1  0  0  0  0
 11 41  1  0  0  0  0
 12 42  1  0  0  0  0
 12 43  1  0  0  0  0
 13 44  1  0  0  0  0
 13 45  1  0  0  0  0
 14 46  1  0  0  0  0
 14 47  1  0  0  0  0
 15 48  1  0  0  0  0
 16 49  1  0  0  0  0
 17 50  1  0  0  0  0
 21 51  1  0  0  0  0
 22 52  1  0  0  0  0
 23 53  1  0  0  0  0
 24 54  1  0  0  0  0
M  END
> <FRED Chemgauss4 score>
-9.880128

$$$$
C79970268	P124969563
  -OEChem-05182014473D

 43 44  0     1  0  0  0  0  0999 V2000
  124.3665  105.4506  107.0151 C   0  0  0  0  0  0  0  0  0  0  0  0
  124.1418  106.6216  106.3220 C   0  0  0  0  0  0  0  0  0  0  0  0
  122.3075  105.5539  105.7692 C   0  0  0  0  0  0  0  0  0  0  0  0
  119.9334  104.9651  102.9740 C   0  0  0  0  0  0  0  0  0  0  0  0
  118.4311  105.0173  103.2332 C   0  0  0  0  0  0  0  0  0  0  0  0
  118.6807  104.7900  105.7722 C   0  0  0  0  0  0  0  0  0  0  0  0
  120.7385  105.8803  103.8952 C   0  0  0  0  0  0  0  0  0  0  0  0
  120.1467  104.3627  105.8703 C   0  0  0  0  0  0  0  0  0  0  0  0
  117.9791  104.2889  104.5024 C   0  0  1  0  0  0  0  0  0  0  0  0
  115.9907  103.6511  105.8891 C   0  0  0  0  0  0  0  0  0  0  0  0
  115.7631  103.8850  103.4032 C   0  0  0  0  0  0  0  0  0  0  0  0
  116.1038  105.9198  104.8277 C   0  0  0  0  0  0  0  0  0  0  0  0
  125.0433  107.7903  106.2884 C   0  0  0  0  0  0  0  0  0  0  0  0
  116.4606  104.4360  104.6554 C   0  0  0  0  0  0  0  0  0  0  0  0
  122.9618  106.6825  105.6067 N   0  0  0  0  0  0  0  0  0  0  0  0
  121.0674  105.2699  105.1840 N   0  0  0  0  0  0  0  0  0  0  0  0
  125.7740  107.9018  105.0447 N   0  0  0  0  0  0  0  0  0  0  0  0
  123.0528  104.3758  106.7700 S   0  0  0  0  0  0  0  0  0  0  0  0
  125.2088  105.1823  107.6372 H   0  0  0  0  0  0  0  0  0  0  0  0
  120.2869  103.9323  103.0582 H   0  0  0  0  0  0  0  0  0  0  0  0
  120.1056  105.2776  101.9386 H   0  0  0  0  0  0  0  0  0  0  0  0
  118.1130  106.0648  103.2741 H   0  0  0  0  0  0  0  0  0  0  0  0
  117.9299  104.5762  102.3644 H   0  0  0  0  0  0  0  0  0  0  0  0
  118.1777  104.3831  106.6572 H   0  0  0  0  0  0  0  0  0  0  0  0
  118.5931  105.8784  105.8542 H   0  0  0  0  0  0  0  0  0  0  0  0
  121.6798  106.1481  103.3702 H   0  0  0  0  0  0  0  0  0  0  0  0
  120.2285  106.8556  104.0390 H   0  0  0  0  0  0  0  0  0  0  0  0
  120.4236  104.3027  106.9234 H   0  0  0  0  0  0  0  0  0  0  0  0
  120.2434  103.3626  105.4442 H   0  0  0  0  0  0  0  0  0  0  0  0
  118.1819  103.2031  104.3817 H   0  0  0  0  0  0  0  0  0  0  0  0
  114.9069  103.7374  106.0250 H   0  0  0  0  0  0  0  0  0  0  0  0
  116.4717  104.0222  106.8011 H   0  0  0  0  0  0  0  0  0  0  0  0
  116.2311  102.5861  105.7953 H   0  0  0  0  0  0  0  0  0  0  0  0
  114.6741  103.9770  103.4840 H   0  0  0  0  0  0  0  0  0  0  0  0
  116.0775  104.4272  102.5043 H   0  0  0  0  0  0  0  0  0  0  0  0
  115.9977  102.8253  103.2523 H   0  0  0  0  0  0  0  0  0  0  0  0
  115.0223  106.0563  104.9396 H   0  0  0  0  0  0  0  0  0  0  0  0
  116.4261  106.5084  103.9615 H   0  0  0  0  0  0  0  0  0  0  0  0
  116.5867  106.3422  105.7162 H   0  0  0  0  0  0  0  0  0  0  0  0
  124.4923  108.7385  106.4203 H   0  0  0  0  0  0  0  0  0  0  0  0
  125.7961  107.7609  107.0957 H   0  0  0  0  0  0  0  0  0  0  0  0
  126.6616  108.3697  105.0466 H   0  0  0  0  0  0  0  0  0  0  0  0
  125.2980  107.6971  104.1853 H   0  0  0  0  0  0  0  0  0  0  0  0
  1  2  2  0  0  0  0
  1 18  1  0  0  0  0
  2 13  1  0  0  0  0
  2 15  1  0  0  0  0
  3 15  2  0  0  0  0
  3 16  1  0  0  0  0
  3 18  1  0  0  0  0
  4  5  1  0  0  0  0
  4  7  1  0  0  0  0
  5  9  1  0  0  0  0
  6  8  1  0  0  0  0
  6  9  1  0  0  0  0
  7 16  1  0  0  0  0
  8 16  1  0  0  0  0
  9 14  1  0  0  0  0
 10 14  1  0  0  0  0
 11 14  1  0  0  0  0
 12 14  1  0  0  0  0
 13 17  1  0  0  0  0
  1 19  1  0  0  0  0
  4 20  1  0  0  0  0
  4 21  1  0  0  0  0
  5 22  1  0  0  0  0
  5 23  1  0  0  0  0
  6 24  1  0  0  0  0
  6 25  1  0  0  0  0
  7 26  1  0  0  0  0
  7 27  1  0  0  0  0
  8 28  1  0  0  0  0
  8 29  1  0  0  0  0
  9 30  1  0  0  0  0
 10 31  1  0  0  0  0
 10 32  1  0  0  0  0
 10 33  1  0  0  0  0
 11 34  1  0  0  0  0
 11 35  1  0  0  0  0
 11 36  1  0  0  0  0
 12 37  1  0  0  0  0
 12 38  1  0  0  0  0
 12 39  1  0  0  0  0
 13 40  1  0  0  0  0
 13 41  1  0  0  0  0
 17 42  1  0  0  0  0
 17 43  1  0  0  0  0
M  END
> <FRED Chemgauss4 score>
-9.867126

$$$$
C91503966	P143194116
  -OEChem-05182014473D

 53 56  0     1  0  0  0  0  0999 V2000
  126.6037  105.9773  108.2469 C   0  0  0  0  0  0  0  0  0  0  0  0
  125.4173  105.4701  108.7219 C   0  0  0  0  0  0  0  0  0  0  0  0
  125.2911  105.9363  106.5717 C   0  0  0  0  0  0  0  0  0  0  0  0
  121.9421  106.7936  106.3188 C   0  0  0  0  0  0  0  0  0  0  0  0
  121.0471  106.0348  108.5890 C   0  0  0  0  0  0  0  0  0  0  0  0
  122.1595  107.0025  108.8559 C   0  0  0  0  0  0  0  0  0  0  0  0
  120.2851  106.5782  103.1537 C   0  0  0  0  0  0  0  0  0  0  0  0
  120.7628  104.2576  104.0511 C   0  0  0  0  0  0  0  0  0  0  0  0
  118.4258  104.7460  101.5220 C   0  0  0  0  0  0  0  0  0  0  0  0
  120.1862  107.0787  104.5952 C   0  0  0  0  0  0  0  0  0  0  0  0
  120.6003  104.8092  105.4644 C   0  0  0  0  0  0  0  0  0  0  0  0
  119.9262  104.4067  101.6242 C   0  0  2  0  0  0  0  0  0  0  0  0
  118.3802  104.7356  103.0690 C   0  0  1  0  0  0  0  0  0  0  0  0
  122.2084  106.1248  107.6286 C   0  0  0  0  0  0  0  0  0  0  0  0
  119.9227  105.0781  103.0520 C   0  0  0  0  0  0  0  0  0  0  0  0
  123.1958  104.9920  107.6191 C   0  0  0  0  0  0  0  0  0  0  0  0
  115.2495  106.2549  104.2959 C   0  0  0  0  0  0  0  0  0  0  0  0
  116.1554  105.2294  103.6433 C   0  0  0  0  0  0  0  0  0  0  0  0
  126.5186  106.2658  106.9078 N   0  0  0  0  0  0  0  0  0  0  0  0
  124.5861  105.4503  107.6375 N   0  0  0  0  0  0  0  0  0  0  0  0
  120.9601  106.2300  105.4996 N   0  0  0  0  0  0  0  0  0  0  0  0
  115.3191  107.5265  103.5329 N   0  3  0  0  0  0  0  0  0  0  0  0
  120.7057  105.0520  100.6534 O   0  5  0  0  0  0  0  0  0  0  0  0
  122.5986  107.7931  106.0392 O   0  0  0  0  0  0  0  0  0  0  0  0
  117.4929  105.6915  103.6732 O   0  0  0  0  0  0  0  0  0  0  0  0
  127.5148  106.1495  108.8010 H   0  0  0  0  0  0  0  0  0  0  0  0
  125.1049  105.1346  109.7010 H   0  0  0  0  0  0  0  0  0  0  0  0
  124.8612  106.0266  105.5835 H   0  0  0  0  0  0  0  0  0  0  0  0
  120.9747  105.1626  109.2282 H   0  0  0  0  0  0  0  0  0  0  0  0
  120.0868  106.4417  108.2940 H   0  0  0  0  0  0  0  0  0  0  0  0
  121.9455  108.0587  108.7399 H   0  0  0  0  0  0  0  0  0  0  0  0
  122.8344  106.7805  109.6743 H   0  0  0  0  0  0  0  0  0  0  0  0
  119.6399  107.1886  102.5115 H   0  0  0  0  0  0  0  0  0  0  0  0
  121.3174  106.7271  102.8113 H   0  0  0  0  0  0  0  0  0  0  0  0
  121.8206  104.3012  103.7612 H   0  0  0  0  0  0  0  0  0  0  0  0
  120.4694  103.2012  104.0383 H   0  0  0  0  0  0  0  0  0  0  0  0
  118.1735  105.7198  101.0828 H   0  0  0  0  0  0  0  0  0  0  0  0
  117.8090  103.9814  101.0389 H   0  0  0  0  0  0  0  0  0  0  0  0
  120.5371  108.1148  104.6440 H   0  0  0  0  0  0  0  0  0  0  0  0
  119.1533  107.0765  104.9552 H   0  0  0  0  0  0  0  0  0  0  0  0
  119.5588  104.7304  105.7965 H   0  0  0  0  0  0  0  0  0  0  0  0
  121.2056  104.2199  106.1556 H   0  0  0  0  0  0  0  0  0  0  0  0
  120.1224  103.3278  101.6266 H   0  0  0  0  0  0  0  0  0  0  0  0
  118.1662  103.7328  103.4599 H   0  0  0  0  0  0  0  0  0  0  0  0
  123.0736  104.3589  106.7259 H   0  0  0  0  0  0  0  0  0  0  0  0
  123.0593  104.3317  108.4904 H   0  0  0  0  0  0  0  0  0  0  0  0
  115.5622  106.4906  105.3171 H   0  0  0  0  0  0  0  0  0  0  0  0
  114.2034  105.9375  104.2820 H   0  0  0  0  0  0  0  0  0  0  0  0
  116.1112  104.2875  104.1989 H   0  0  0  0  0  0  0  0  0  0  0  0
  115.8679  105.0387  102.6043 H   0  0  0  0  0  0  0  0  0  0  0  0
  116.1104  107.5192  102.8811 H   0  0  0  0  0  0  0  0  0  0  0  0
  115.4362  108.3256  104.1646 H   0  0  0  0  0  0  0  0  0  0  0  0
  114.4622  107.6746  102.9897 H   0  0  0  0  0  0  0  0  0  0  0  0
  1  2  2  0  0  0  0
  1 19  1  0  0  0  0
  2 20  1  0  0  0  0
  3 19  2  0  0  0  0
  3 20  1  0  0  0  0
  4 14  1  0  0  0  0
  4 21  1  0  0  0  0
  4 24  2  0  0  0  0
  5  6  1  0  0  0  0
  5 14  1  0  0  0  0
  6 14  1  0  0  0  0
  7 10  1  0  0  0  0
  7 15  1  0  0  0  0
  8 11  1  0  0  0  0
  8 15  1  0  0  0  0
  9 12  1  0  0  0  0
  9 13  1  0  0  0  0
 10 21  1  0  0  0  0
 11 21  1  0  0  0  0
 12 15  1  0  0  0  0
 12 23  1  0  0  0  0
 13 15  1  0  0  0  0
 13 25  1  0  0  0  0
 14 16  1  0  0  0  0
 16 20  1  0  0  0  0
 17 18  1  0  0  0  0
 17 22  1  0  0  0  0
 18 25  1  0  0  0  0
  1 26  1  0  0  0  0
  2 27  1  0  0  0  0
  3 28  1  0  0  0  0
  5 29  1  0  0  0  0
  5 30  1  0  0  0  0
  6 31  1  0  0  0  0
  6 32  1  0  0  0  0
  7 33  1  0  0  0  0
  7 34  1  0  0  0  0
  8 35  1  0  0  0  0
  8 36  1  0  0  0  0
  9 37  1  0  0  0  0
  9 38  1  0  0  0  0
 10 39  1  0  0  0  0
 10 40  1  0  0  0  0
 11 41  1  0  0  0  0
 11 42  1  0  0  0  0
 12 43  1  0  0  0  0
 13 44  1  0  0  0  0
 16 45  1  0  0  0  0
 16 46  1  0  0  0  0
 17 47  1  0  0  0  0
 17 48  1  0  0  0  0
 18 49  1  0  0  0  0
 18 50  1  0  0  0  0
 22 51  1  0  0  0  0
 22 52  1  0  0  0  0
 22 53  1  0  0  0  0
M  CHG  2  22   1  23  -1
M  END
> <FRED Chemgauss4 score>
-9.855496

$$$$
C36873883	P54807718
  -OEChem-05182014473D

 42 44  0     1  0  0  0  0  0999 V2000
  119.6442  104.7794  104.4729 C   0  0  0  0  0  0  0  0  0  0  0  0
  118.6169  104.5635  103.5548 C   0  0  0  0  0  0  0  0  0  0  0  0
  121.1066  105.4460  102.6732 C   0  0  0  0  0  0  0  0  0  0  0  0
  122.4753  104.5097  105.8109 C   0  0  0  0  0  0  0  0  0  0  0  0
  120.8857  105.2310  104.0333 C   0  0  0  0  0  0  0  0  0  0  0  0
  118.8232  104.8023  102.1913 C   0  0  0  0  0  0  0  0  0  0  0  0
  120.0885  105.2063  101.7432 C   0  0  0  0  0  0  0  0  0  0  0  0
  121.9410  105.4650  104.9787 C   0  0  0  0  0  0  0  0  0  0  0  0
  123.4441  106.4672  106.1042 C   0  0  0  0  0  0  0  0  0  0  0  0
  118.4432  105.0033   99.1061 C   0  0  0  0  0  0  0  0  0  0  0  0
  117.6317  105.5006  100.2924 C   0  0  0  0  0  0  0  0  0  0  0  0
  119.8202  104.5063   99.5181 C   0  0  0  0  0  0  0  0  0  0  0  0
  123.5290  107.5616  109.6113 C   0  0  0  0  0  0  0  0  0  0  0  0
  122.7476  108.2708  108.5160 C   0  0  0  0  0  0  0  0  0  0  0  0
  123.6551  108.6623  107.3454 C   0  0  0  0  0  0  0  0  0  0  0  0
  124.3737  107.4559  106.6814 C   0  0  2  0  0  0  0  0  0  0  0  0
  122.5486  106.6812  105.1660 N   0  0  0  0  0  0  0  0  0  0  0  0
  123.4372  105.1664  106.5254 N   0  0  0  0  0  0  0  0  0  0  0  0
  125.3141  107.9178  105.6673 N   0  0  0  0  0  0  0  0  0  0  0  0
  117.7252  104.5978  101.3942 O   0  0  0  0  0  0  0  0  0  0  0  0
  120.4406  105.4098  100.4328 O   0  0  0  0  0  0  0  0  0  0  0  0
  119.4570  104.5987  105.5288 H   0  0  0  0  0  0  0  0  0  0  0  0
  117.6460  104.2286  103.9118 H   0  0  0  0  0  0  0  0  0  0  0  0
  122.0816  105.7824  102.3243 H   0  0  0  0  0  0  0  0  0  0  0  0
  122.2713  103.4582  105.9594 H   0  0  0  0  0  0  0  0  0  0  0  0
  117.9157  104.1856   98.6019 H   0  0  0  0  0  0  0  0  0  0  0  0
  118.5365  105.8215   98.3829 H   0  0  0  0  0  0  0  0  0  0  0  0
  117.9237  106.5177  100.5884 H   0  0  0  0  0  0  0  0  0  0  0  0
  116.5757  105.5606  100.0059 H   0  0  0  0  0  0  0  0  0  0  0  0
  119.7795  103.4897   99.9325 H   0  0  0  0  0  0  0  0  0  0  0  0
  120.4609  104.4462   98.6310 H   0  0  0  0  0  0  0  0  0  0  0  0
  124.3423  108.1925  109.9840 H   0  0  0  0  0  0  0  0  0  0  0  0
  122.8790  107.3045  110.4537 H   0  0  0  0  0  0  0  0  0  0  0  0
  123.9668  106.6357  109.2256 H   0  0  0  0  0  0  0  0  0  0  0  0
  121.9445  107.6109  108.1688 H   0  0  0  0  0  0  0  0  0  0  0  0
  122.2746  109.1663  108.9357 H   0  0  0  0  0  0  0  0  0  0  0  0
  123.0498  109.1692  106.5822 H   0  0  0  0  0  0  0  0  0  0  0  0
  124.3964  109.3920  107.6963 H   0  0  0  0  0  0  0  0  0  0  0  0
  125.0233  107.0007  107.4603 H   0  0  0  0  0  0  0  0  0  0  0  0
  124.0336  104.7620  107.2352 H   0  0  0  0  0  0  0  0  0  0  0  0
  125.6397  107.2594  104.9917 H   0  0  0  0  0  0  0  0  0  0  0  0
  125.7528  108.8044  105.8004 H   0  0  0  0  0  0  0  0  0  0  0  0
  1  2  2  0  0  0  0
  1  5  1  0  0  0  0
  2  6  1  0  0  0  0
  3  5  2  0  0  0  0
  3  7  1  0  0  0  0
  4  8  2  0  0  0  0
  4 18  1  0  0  0  0
  5  8  1  0  0  0  0
  6  7  2  0  0  0  0
  6 20  1  0  0  0  0
  7 21  1  0  0  0  0
  8 17  1  0  0  0  0
  9 16  1  0  0  0  0
  9 17  2  0  0  0  0
  9 18  1  0  0  0  0
 10 11  1  0  0  0  0
 10 12  1  0  0  0  0
 11 20  1  0  0  0  0
 12 21  1  0  0  0  0
 13 14  1  0  0  0  0
 14 15  1  0  0  0  0
 15 16  1  0  0  0  0
 16 19  1  0  0  0  0
  1 22  1  0  0  0  0
  2 23  1  0  0  0  0
  3 24  1  0  0  0  0
  4 25  1  0  0  0  0
 10 26  1  0  0  0  0
 10 27  1  0  0  0  0
 11 28  1  0  0  0  0
 11 29  1  0  0  0  0
 12 30  1  0  0  0  0
 12 31  1  0  0  0  0
 13 32  1  0  0  0  0
 13 33  1  0  0  0  0
 13 34  1  0  0  0  0
 14 35  1  0  0  0  0
 14 36  1  0  0  0  0
 15 37  1  0  0  0  0
 15 38  1  0  0  0  0
 16 39  1  0  0  0  0
 18 40  1  0  0  0  0
 19 41  1  0  0  0  0
 19 42  1  0  0  0  0
M  END
> <FRED Chemgauss4 score>
-9.847187

$$$$
C36896014	P54845933
  -OEChem-05182014473D

 42 44  0     1  0  0  0  0  0999 V2000
  119.8167  104.4889  103.8550 C   0  0  0  0  0  0  0  0  0  0  0  0
  120.2366  103.4305  104.6640 C   0  0  0  0  0  0  0  0  0  0  0  0
  120.5051  105.7086  103.8479 C   0  0  0  0  0  0  0  0  0  0  0  0
  121.3565  103.5508  105.4934 C   0  0  0  0  0  0  0  0  0  0  0  0
  122.0247  107.6902  108.4026 C   0  0  0  0  0  0  0  0  0  0  0  0
  122.5852  108.3815  110.3362 C   0  0  0  0  0  0  0  0  0  0  0  0
  121.6323  105.8472  104.6752 C   0  0  0  0  0  0  0  0  0  0  0  0
  122.0264  104.7745  105.4701 C   0  0  0  0  0  0  0  0  0  0  0  0
  123.2116  108.3608  108.2234 C   0  0  0  0  0  0  0  0  0  0  0  0
  123.3598  106.5200  105.7348 C   0  0  0  0  0  0  0  0  0  0  0  0
  123.3240  103.0685  107.2600 C   0  0  0  0  0  0  0  0  0  0  0  0
  123.9171  105.2135  108.4545 C   0  0  0  0  0  0  0  0  0  0  0  0
  125.4014  104.3031  106.6832 C   0  0  0  0  0  0  0  0  0  0  0  0
  124.0543  108.6326  106.9981 C   0  0  0  0  0  0  0  0  0  0  0  0
  124.4821  107.3226  106.2628 C   0  0  2  0  0  0  0  0  0  0  0  0
  123.9186  104.4845  107.0923 C   0  0  0  0  0  0  0  0  0  0  0  0
  121.6401  107.7070  109.7200 N   0  0  0  0  0  0  0  0  0  0  0  0
  122.4724  106.9224  104.8529 N   0  0  0  0  0  0  0  0  0  0  0  0
  123.5581  108.7983  109.4707 N   0  0  0  0  0  0  0  0  0  0  0  0
  123.1336  105.2330  106.1369 N   0  0  0  0  0  0  0  0  0  0  0  0
  125.4626  107.6830  105.2079 N   0  0  0  0  0  0  0  0  0  0  0  0
  118.9433  104.3646  103.2200 H   0  0  0  0  0  0  0  0  0  0  0  0
  119.6827  102.4949  104.6495 H   0  0  0  0  0  0  0  0  0  0  0  0
  120.1709  106.5245  103.2152 H   0  0  0  0  0  0  0  0  0  0  0  0
  121.6823  102.7284  106.1204 H   0  0  0  0  0  0  0  0  0  0  0  0
  121.4255  107.1954  107.6516 H   0  0  0  0  0  0  0  0  0  0  0  0
  122.6251  108.6009  111.3936 H   0  0  0  0  0  0  0  0  0  0  0  0
  123.3135  102.5286  106.3061 H   0  0  0  0  0  0  0  0  0  0  0  0
  123.8977  102.4583  107.9657 H   0  0  0  0  0  0  0  0  0  0  0  0
  122.2930  103.1170  107.6293 H   0  0  0  0  0  0  0  0  0  0  0  0
  124.3312  106.2249  108.3845 H   0  0  0  0  0  0  0  0  0  0  0  0
  122.8992  105.3122  108.8491 H   0  0  0  0  0  0  0  0  0  0  0  0
  124.5118  104.6648  109.1941 H   0  0  0  0  0  0  0  0  0  0  0  0
  125.8932  105.2737  106.5449 H   0  0  0  0  0  0  0  0  0  0  0  0
  125.9691  103.7636  107.4501 H   0  0  0  0  0  0  0  0  0  0  0  0
  125.4954  103.7587  105.7364 H   0  0  0  0  0  0  0  0  0  0  0  0
  124.9308  109.2123  107.3201 H   0  0  0  0  0  0  0  0  0  0  0  0
  123.5061  109.2923  106.3126 H   0  0  0  0  0  0  0  0  0  0  0  0
  125.0713  106.7289  106.9946 H   0  0  0  0  0  0  0  0  0  0  0  0
  124.3829  109.3316  109.7128 H   0  0  0  0  0  0  0  0  0  0  0  0
  125.6318  107.0089  104.5088 H   0  0  0  0  0  0  0  0  0  0  0  0
  126.0281  108.4726  105.3774 H   0  0  0  0  0  0  0  0  0  0  0  0
  1  2  1  0  0  0  0
  1  3  2  0  0  0  0
  2  4  2  0  0  0  0
  3  7  1  0  0  0  0
  4  8  1  0  0  0  0
  5  9  2  0  0  0  0
  5 17  1  0  0  0  0
  6 17  2  0  0  0  0
  6 19  1  0  0  0  0
  7  8  2  0  0  0  0
  7 18  1  0  0  0  0
  8 20  1  0  0  0  0
  9 14  1  0  0  0  0
  9 19  1  0  0  0  0
 10 15  1  0  0  0  0
 10 18  2  0  0  0  0
 10 20  1  0  0  0  0
 11 16  1  0  0  0  0
 12 16  1  0  0  0  0
 13 16  1  0  0  0  0
 14 15  1  0  0  0  0
 15 21  1  0  0  0  0
 16 20  1  0  0  0  0
  1 22  1  0  0  0  0
  2 23  1  0  0  0  0
  3 24  1  0  0  0  0
  4 25  1  0  0  0  0
  5 26  1  0  0  0  0
  6 27  1  0  0  0  0
 11 28  1  0  0  0  0
 11 29  1  0  0  0  0
 11 30  1  0  0  0  0
 12 31  1  0  0  0  0
 12 32  1  0  0  0  0
 12 33  1  0  0  0  0
 13 34  1  0  0  0  0
 13 35  1  0  0  0  0
 13 36  1  0  0  0  0
 14 37  1  0  0  0  0
 14 38  1  0  0  0  0
 15 39  1  0  0  0  0
 19 40  1  0  0  0  0
 21 41  1  0  0  0  0
 21 42  1  0  0  0  0
M  END
> <FRED Chemgauss4 score>
-9.843901

$$$$
C67783339	P104079223
  -OEChem-05182014473D

 43 44  0     1  0  0  0  0  0999 V2000
  120.2581  105.1507  102.8034 C   0  0  0  0  0  0  0  0  0  0  0  0
  118.9665  104.8730  102.3559 C   0  0  0  0  0  0  0  0  0  0  0  0
  119.3460  106.3023  104.7214 C   0  0  0  0  0  0  0  0  0  0  0  0
  120.4478  105.8653  103.9862 C   0  0  0  0  0  0  0  0  0  0  0  0
  118.0544  106.0247  104.2739 C   0  0  0  0  0  0  0  0  0  0  0  0
  117.8646  105.3101  103.0911 C   0  0  0  0  0  0  0  0  0  0  0  0
  123.5856  106.9366  105.7293 C   0  0  0  0  0  0  0  0  0  0  0  0
  122.1147  106.8395  105.5842 C   0  0  0  0  0  0  0  0  0  0  0  0
  120.6514  106.2828  109.5127 C   0  0  0  0  0  0  0  0  0  0  0  0
  125.9943  105.8406  108.1179 C   0  0  0  0  0  0  0  0  0  0  0  0
  125.3096  104.6397  108.7733 C   0  0  0  0  0  0  0  0  0  0  0  0
  125.6477  105.9343  106.6353 C   0  0  0  0  0  0  0  0  0  0  0  0
  123.5069  104.7518  107.0054 C   0  0  0  0  0  0  0  0  0  0  0  0
  123.7948  104.6068  108.5072 C   0  0  2  0  0  0  0  0  0  0  0  0
  119.2768  105.7066  109.5955 C   0  0  0  0  0  0  0  0  0  0  0  0
  123.0547  105.6758  109.3165 C   0  0  0  0  0  0  0  0  0  0  0  0
  124.2003  105.9138  106.4369 N   0  0  0  0  0  0  0  0  0  0  0  0
  121.7592  106.1477  104.4404 N   0  0  0  0  0  0  0  0  0  0  0  0
  121.6733  105.3412  109.4090 N   0  0  0  0  0  0  0  0  0  0  0  0
  124.1036  107.9175  105.2119 O   0  0  0  0  0  0  0  0  0  0  0  0
  121.3962  107.3462  106.4348 O   0  0  0  0  0  0  0  0  0  0  0  0
  120.7993  107.4990  109.5378 O   0  0  0  0  0  0  0  0  0  0  0  0
  117.0057  106.4511  104.9920 F   0  0  0  0  0  0  0  0  0  0  0  0
  116.2733  104.9641  102.5329 Cl  0  0  0  0  0  0  0  0  0  0  0  0
  121.1094  104.8047  102.2224 H   0  0  0  0  0  0  0  0  0  0  0  0
  118.8348  104.3149  101.4323 H   0  0  0  0  0  0  0  0  0  0  0  0
  119.4819  106.8600  105.6446 H   0  0  0  0  0  0  0  0  0  0  0  0
  125.6972  106.7624  108.6294 H   0  0  0  0  0  0  0  0  0  0  0  0
  127.0806  105.7404  108.2327 H   0  0  0  0  0  0  0  0  0  0  0  0
  125.7752  103.7103  108.4051 H   0  0  0  0  0  0  0  0  0  0  0  0
  125.4977  104.6656  109.8608 H   0  0  0  0  0  0  0  0  0  0  0  0
  126.0207  106.8775  106.2157 H   0  0  0  0  0  0  0  0  0  0  0  0
  126.1427  105.1224  106.0942 H   0  0  0  0  0  0  0  0  0  0  0  0
  123.8032  103.8392  106.4746 H   0  0  0  0  0  0  0  0  0  0  0  0
  122.4338  104.8979  106.8245 H   0  0  0  0  0  0  0  0  0  0  0  0
  123.4185  103.6179  108.8304 H   0  0  0  0  0  0  0  0  0  0  0  0
  118.9639  105.5131  110.6341 H   0  0  0  0  0  0  0  0  0  0  0  0
  118.5117  106.3832  109.1822 H   0  0  0  0  0  0  0  0  0  0  0  0
  119.1339  104.7506  109.0669 H   0  0  0  0  0  0  0  0  0  0  0  0
  123.1598  106.6281  108.8132 H   0  0  0  0  0  0  0  0  0  0  0  0
  123.4791  105.7221  110.3106 H   0  0  0  0  0  0  0  0  0  0  0  0
  122.5057  105.7937  103.8455 H   0  0  0  0  0  0  0  0  0  0  0  0
  121.4156  104.3487  109.3987 H   0  0  0  0  0  0  0  0  0  0  0  0
  1  2  2  0  0  0  0
  1  4  1  0  0  0  0
  2  6  1  0  0  0  0
  3  4  2  0  0  0  0
  3  5  1  0  0  0  0
  4 18  1  0  0  0  0
  5  6  2  0  0  0  0
  5 23  1  0  0  0  0
  6 24  1  0  0  0  0
  7  8  1  0  0  0  0
  7 17  1  0  0  0  0
  7 20  2  0  0  0  0
  8 18  1  0  0  0  0
  8 21  2  0  0  0  0
  9 15  1  0  0  0  0
  9 19  1  0  0  0  0
  9 22  2  0  0  0  0
 10 11  1  0  0  0  0
 10 12  1  0  0  0  0
 11 14  1  0  0  0  0
 12 17  1  0  0  0  0
 13 14  1  0  0  0  0
 13 17  1  0  0  0  0
 14 16  1  0  0  0  0
 16 19  1  0  0  0  0
  1 25  1  0  0  0  0
  2 26  1  0  0  0  0
  3 27  1  0  0  0  0
 10 28  1  0  0  0  0
 10 29  1  0  0  0  0
 11 30  1  0  0  0  0
 11 31  1  0  0  0  0
 12 32  1  0  0  0  0
 12 33  1  0  0  0  0
 13 34  1  0  0  0  0
 13 35  1  0  0  0  0
 14 36  1  0  0  0  0
 15 37  1  0  0  0  0
 15 38  1  0  0  0  0
 15 39  1  0  0  0  0
 16 40  1  0  0  0  0
 16 41  1  0  0  0  0
 18 42  1  0  0  0  0
 19 43  1  0  0  0  0
M  END
> <FRED Chemgauss4 score>
-9.837221

$$$$
C87969103	P137597619
  -OEChem-05182014473D

 41 42  0     1  0  0  0  0  0999 V2000
  121.7903  105.3189  105.4587 C   0  0  0  0  0  0  0  0  0  0  0  0
  123.3200  106.6708  105.7932 C   0  0  0  0  0  0  0  0  0  0  0  0
  118.6445  104.3141  106.1081 C   0  0  0  0  0  0  0  0  0  0  0  0
  119.9900  103.6079  106.2922 C   0  0  0  0  0  0  0  0  0  0  0  0
  118.1165  104.1899  104.6838 C   0  0  0  0  0  0  0  0  0  0  0  0
  120.4601  103.8689  103.8266 C   0  0  0  0  0  0  0  0  0  0  0  0
  121.0587  103.9949  105.2467 C   0  0  1  0  0  0  0  0  0  0  0  0
  119.1535  104.6577  103.6580 C   0  0  1  0  0  0  0  0  0  0  0  0
  119.5911  104.9740  101.2196 C   0  0  0  0  0  0  0  0  0  0  0  0
  118.6098  104.4992  102.2384 C   0  0  0  0  0  0  0  0  0  0  0  0
  125.6618  106.6454  106.8208 C   0  0  0  0  0  0  0  0  0  0  0  0
  125.2108  106.2518  108.2236 C   0  0  0  0  0  0  0  0  0  0  0  0
  124.5629  107.4162  106.0343 C   0  0  1  0  0  0  0  0  0  0  0  0
  123.1374  105.3807  105.6669 N   0  0  0  0  0  0  0  0  0  0  0  0
  121.1492  106.4914  105.4510 N   0  0  0  0  0  0  0  0  0  0  0  0
  125.1756  107.8916  104.7931 N   0  0  0  0  0  0  0  0  0  0  0  0
  122.1841  107.4076  105.6775 O   0  0  0  0  0  0  0  0  0  0  0  0
  124.8693  107.4311  108.9409 O   0  0  0  0  0  0  0  0  0  0  0  0
  117.9150  103.9010  106.8185 H   0  0  0  0  0  0  0  0  0  0  0  0
  118.7565  105.3763  106.3660 H   0  0  0  0  0  0  0  0  0  0  0  0
  120.3721  103.8221  107.3112 H   0  0  0  0  0  0  0  0  0  0  0  0
  119.8281  102.5119  106.2726 H   0  0  0  0  0  0  0  0  0  0  0  0
  117.8237  103.1589  104.4873 H   0  0  0  0  0  0  0  0  0  0  0  0
  117.2212  104.8065  104.5864 H   0  0  0  0  0  0  0  0  0  0  0  0
  121.1902  104.2414  103.0962 H   0  0  0  0  0  0  0  0  0  0  0  0
  120.2969  102.8125  103.5825 H   0  0  0  0  0  0  0  0  0  0  0  0
  121.8752  103.2015  105.3092 H   0  0  0  0  0  0  0  0  0  0  0  0
  119.3551  105.7048  103.8172 H   0  0  0  0  0  0  0  0  0  0  0  0
  119.8212  106.0308  101.3988 H   0  0  0  0  0  0  0  0  0  0  0  0
  119.1813  104.8826  100.2081 H   0  0  0  0  0  0  0  0  0  0  0  0
  120.5261  104.4073  101.2823 H   0  0  0  0  0  0  0  0  0  0  0  0
  118.3767  103.4467  102.0647 H   0  0  0  0  0  0  0  0  0  0  0  0
  117.6815  105.0672  102.1501 H   0  0  0  0  0  0  0  0  0  0  0  0
  125.9627  105.7351  106.2837 H   0  0  0  0  0  0  0  0  0  0  0  0
  126.5792  107.2450  106.8876 H   0  0  0  0  0  0  0  0  0  0  0  0
  124.3298  105.6039  108.1935 H   0  0  0  0  0  0  0  0  0  0  0  0
  126.0142  105.7390  108.7618 H   0  0  0  0  0  0  0  0  0  0  0  0
  124.3740  108.3541  106.6032 H   0  0  0  0  0  0  0  0  0  0  0  0
  126.1536  108.0769  104.7976 H   0  0  0  0  0  0  0  0  0  0  0  0
  124.5720  108.2027  104.0651 H   0  0  0  0  0  0  0  0  0  0  0  0
  124.5876  107.1484  109.8257 H   0  0  0  0  0  0  0  0  0  0  0  0
  1  7  1  0  0  0  0
  1 14  1  0  0  0  0
  1 15  2  0  0  0  0
  2 13  1  0  0  0  0
  2 14  2  0  0  0  0
  2 17  1  0  0  0  0
  3  4  1  0  0  0  0
  3  5  1  0  0  0  0
  4  7  1  0  0  0  0
  5  8  1  0  0  0  0
  6  7  1  0  0  0  0
  6  8  1  0  0  0  0
  8 10  1  0  0  0  0
  9 10  1  0  0  0  0
 11 12  1  0  0  0  0
 11 13  1  0  0  0  0
 12 18  1  0  0  0  0
 13 16  1  0  0  0  0
 15 17  1  0  0  0  0
  3 19  1  0  0  0  0
  3 20  1  0  0  0  0
  4 21  1  0  0  0  0
  4 22  1  0  0  0  0
  5 23  1  0  0  0  0
  5 24  1  0  0  0  0
  6 25  1  0  0  0  0
  6 26  1  0  0  0  0
  7 27  1  0  0  0  0
  8 28  1  0  0  0  0
  9 29  1  0  0  0  0
  9 30  1  0  0  0  0
  9 31  1  0  0  0  0
 10 32  1  0  0  0  0
 10 33  1  0  0  0  0
 11 34  1  0  0  0  0
 11 35  1  0  0  0  0
 12 36  1  0  0  0  0
 12 37  1  0  0  0  0
 13 38  1  0  0  0  0
 16 39  1  0  0  0  0
 16 40  1  0  0  0  0
 18 41  1  0  0  0  0
M  END
> <FRED Chemgauss4 score>
-9.810115

$$$$
C87427525	P136769772
  -OEChem-05182014473D

 37 38  0     0  0  0  0  0  0999 V2000
  122.9046  104.9543  107.1629 C   0  0  0  0  0  0  0  0  0  0  0  0
  122.7101  106.9092  108.5692 C   0  0  0  0  0  0  0  0  0  0  0  0
  124.2908  104.9827  107.3151 C   0  0  0  0  0  0  0  0  0  0  0  0
  124.0963  106.9375  108.7215 C   0  0  0  0  0  0  0  0  0  0  0  0
  121.1698  104.8525  102.9444 C   0  0  0  0  0  0  0  0  0  0  0  0
  122.1142  105.9176  107.7899 C   0  0  0  0  0  0  0  0  0  0  0  0
  124.8866  105.9743  108.0945 C   0  0  0  0  0  0  0  0  0  0  0  0
  120.2835  105.3490  103.8771 C   0  0  0  0  0  0  0  0  0  0  0  0
  118.8385  104.7150  102.3539 C   0  0  0  0  0  0  0  0  0  0  0  0
  120.6920  105.9341  105.1640 C   0  0  0  0  0  0  0  0  0  0  0  0
  117.9006  104.6361  106.4044 C   0  0  0  0  0  0  0  0  0  0  0  0
  117.5562  104.4632  101.6611 C   0  0  0  0  0  0  0  0  0  0  0  0
  120.6320  105.8883  107.6274 C   0  0  0  0  0  0  0  0  0  0  0  0
  119.3409  104.1783  106.3995 C   0  0  0  0  0  0  0  0  0  0  0  0
  118.9462  105.2713  103.5401 N   0  0  0  0  0  0  0  0  0  0  0  0
  126.2880  106.0022  108.2502 N   0  0  0  0  0  0  0  0  0  0  0  0
  117.0728  103.7536  107.0645 N   0  0  0  0  0  0  0  0  0  0  0  0
  120.2311  105.3447  106.3546 N   0  0  0  0  0  0  0  0  0  0  0  0
  121.4370  106.9117  105.1055 O   0  0  0  0  0  0  0  0  0  0  0  0
  117.5166  105.6957  105.9168 O   0  0  0  0  0  0  0  0  0  0  0  0
  120.3048  104.2602  101.5871 S   0  0  0  0  0  0  0  0  0  0  0  0
  122.4488  104.1789  106.5531 H   0  0  0  0  0  0  0  0  0  0  0  0
  122.1025  107.6647  109.0601 H   0  0  0  0  0  0  0  0  0  0  0  0
  124.8974  104.2282  106.8210 H   0  0  0  0  0  0  0  0  0  0  0  0
  124.5500  107.7152  109.3305 H   0  0  0  0  0  0  0  0  0  0  0  0
  122.2489  104.8075  102.9890 H   0  0  0  0  0  0  0  0  0  0  0  0
  117.2701  105.3237  101.0363 H   0  0  0  0  0  0  0  0  0  0  0  0
  117.6087  103.5755  101.0097 H   0  0  0  0  0  0  0  0  0  0  0  0
  116.7353  104.2743  102.3722 H   0  0  0  0  0  0  0  0  0  0  0  0
  120.1596  105.2784  108.4102 H   0  0  0  0  0  0  0  0  0  0  0  0
  120.1981  106.8947  107.7048 H   0  0  0  0  0  0  0  0  0  0  0  0
  119.5506  103.5583  105.5237 H   0  0  0  0  0  0  0  0  0  0  0  0
  119.5489  103.6156  107.3136 H   0  0  0  0  0  0  0  0  0  0  0  0
  126.8396  105.2783  107.8357 H   0  0  0  0  0  0  0  0  0  0  0  0
  126.6986  106.6896  108.8493 H   0  0  0  0  0  0  0  0  0  0  0  0
  117.4418  102.9062  107.4829 H   0  0  0  0  0  0  0  0  0  0  0  0
  116.0747  103.9119  107.1599 H   0  0  0  0  0  0  0  0  0  0  0  0
  1  3  2  0  0  0  0
  1  6  1  0  0  0  0
  2  4  1  0  0  0  0
  2  6  2  0  0  0  0
  3  7  1  0  0  0  0
  4  7  2  0  0  0  0
  5  8  2  0  0  0  0
  5 21  1  0  0  0  0
  6 13  1  0  0  0  0
  7 16  1  0  0  0  0
  8 10  1  0  0  0  0
  8 15  1  0  0  0  0
  9 12  1  0  0  0  0
  9 15  2  0  0  0  0
  9 21  1  0  0  0  0
 10 18  1  0  0  0  0
 10 19  2  0  0  0  0
 11 14  1  0  0  0  0
 11 17  1  0  0  0  0
 11 20  2  0  0  0  0
 13 18  1  0  0  0  0
 14 18  1  0  0  0  0
  1 22  1  0  0  0  0
  2 23  1  0  0  0  0
  3 24  1  0  0  0  0
  4 25  1  0  0  0  0
  5 26  1  0  0  0  0
 12 27  1  0  0  0  0
 12 28  1  0  0  0  0
 12 29  1  0  0  0  0
 13 30  1  0  0  0  0
 13 31  1  0  0  0  0
 14 32  1  0  0  0  0
 14 33  1  0  0  0  0
 16 34  1  0  0  0  0
 16 35  1  0  0  0  0
 17 36  1  0  0  0  0
 17 37  1  0  0  0  0
M  END
> <FRED Chemgauss4 score>
-9.741675

$$$$
C72012622	P111774762
  -OEChem-05182014473D

 39 40  0     1  0  0  0  0  0999 V2000
  117.6877  104.0686  102.2476 C   0  0  0  0  0  0  0  0  0  0  0  0
  118.6797  104.4739  101.4459 C   0  0  0  0  0  0  0  0  0  0  0  0
  118.6500  105.1924  104.1392 C   0  0  0  0  0  0  0  0  0  0  0  0
  117.6625  104.4346  103.6429 C   0  0  0  0  0  0  0  0  0  0  0  0
  119.7855  105.3186  101.9870 C   0  0  0  0  0  0  0  0  0  0  0  0
  126.1134  106.9821  107.2207 C   0  0  0  0  0  0  0  0  0  0  0  0
  122.7251  106.4807  105.4410 C   0  0  0  0  0  0  0  0  0  0  0  0
  124.6473  104.2169  107.4302 C   0  0  0  0  0  0  0  0  0  0  0  0
  125.1840  105.0928  108.5639 C   0  0  0  0  0  0  0  0  0  0  0  0
  123.2445  104.6470  107.0165 C   0  0  0  0  0  0  0  0  0  0  0  0
  123.6768  106.9668  107.7515 C   0  0  0  0  0  0  0  0  0  0  0  0
  125.0791  106.5861  108.2371 C   0  0  2  0  0  0  0  0  0  0  0  0
  121.6605  105.6162  104.8139 C   0  0  0  0  0  0  0  0  0  0  0  0
  120.7398  106.4573  103.9511 C   0  0  0  0  0  0  0  0  0  0  0  0
  119.7067  105.6429  103.3535 N   0  0  0  0  0  0  0  0  0  0  0  0
  123.2138  106.0712  106.6816 N   0  0  0  0  0  0  0  0  0  0  0  0
  126.1192  108.3258  106.9298 N   0  0  0  0  0  0  0  0  0  0  0  0
  120.6838  105.6764  101.2268 O   0  0  0  0  0  0  0  0  0  0  0  0
  126.8841  106.1658  106.7215 O   0  0  0  0  0  0  0  0  0  0  0  0
  123.1082  107.4908  104.8452 O   0  0  0  0  0  0  0  0  0  0  0  0
  116.2451  103.8287  104.6906 Br  0  0  0  0  0  0  0  0  0  0  0  0
  116.8881  103.4560  101.8439 H   0  0  0  0  0  0  0  0  0  0  0  0
  118.7083  104.2058  100.3963 H   0  0  0  0  0  0  0  0  0  0  0  0
  118.6779  105.4950  105.1810 H   0  0  0  0  0  0  0  0  0  0  0  0
  125.3203  104.2835  106.5667 H   0  0  0  0  0  0  0  0  0  0  0  0
  124.6358  103.1684  107.7474 H   0  0  0  0  0  0  0  0  0  0  0  0
  124.6082  104.8860  109.4750 H   0  0  0  0  0  0  0  0  0  0  0  0
  126.2242  104.8164  108.7734 H   0  0  0  0  0  0  0  0  0  0  0  0
  122.9068  104.0393  106.1715 H   0  0  0  0  0  0  0  0  0  0  0  0
  122.5355  104.4880  107.8377 H   0  0  0  0  0  0  0  0  0  0  0  0
  122.9581  106.8712  108.5744 H   0  0  0  0  0  0  0  0  0  0  0  0
  123.6646  108.0119  107.4350 H   0  0  0  0  0  0  0  0  0  0  0  0
  125.3088  107.1629  109.1399 H   0  0  0  0  0  0  0  0  0  0  0  0
  121.1017  105.1637  105.6339 H   0  0  0  0  0  0  0  0  0  0  0  0
  122.1593  104.8347  104.2400 H   0  0  0  0  0  0  0  0  0  0  0  0
  120.2652  107.2198  104.5773 H   0  0  0  0  0  0  0  0  0  0  0  0
  121.2937  106.9719  103.1589 H   0  0  0  0  0  0  0  0  0  0  0  0
  125.4535  108.9290  107.4016 H   0  0  0  0  0  0  0  0  0  0  0  0
  126.7625  108.7386  106.2623 H   0  0  0  0  0  0  0  0  0  0  0  0
  1  2  2  0  0  0  0
  1  4  1  0  0  0  0
  2  5  1  0  0  0  0
  3  4  2  0  0  0  0
  3 15  1  0  0  0  0
  4 21  1  0  0  0  0
  5 15  1  0  0  0  0
  5 18  2  0  0  0  0
  6 12  1  0  0  0  0
  6 17  1  0  0  0  0
  6 19  2  0  0  0  0
  7 13  1  0  0  0  0
  7 16  1  0  0  0  0
  7 20  2  0  0  0  0
  8  9  1  0  0  0  0
  8 10  1  0  0  0  0
  9 12  1  0  0  0  0
 10 16  1  0  0  0  0
 11 12  1  0  0  0  0
 11 16  1  0  0  0  0
 13 14  1  0  0  0  0
 14 15  1  0  0  0  0
  1 22  1  0  0  0  0
  2 23  1  0  0  0  0
  3 24  1  0  0  0  0
  8 25  1  0  0  0  0
  8 26  1  0  0  0  0
  9 27  1  0  0  0  0
  9 28  1  0  0  0  0
 10 29  1  0  0  0  0
 10 30  1  0  0  0  0
 11 31  1  0  0  0  0
 11 32  1  0  0  0  0
 12 33  1  0  0  0  0
 13 34  1  0  0  0  0
 13 35  1  0  0  0  0
 14 36  1  0  0  0  0
 14 37  1  0  0  0  0
 17 38  1  0  0  0  0
 17 39  1  0  0  0  0
M  END
> <FRED Chemgauss4 score>
-9.729631

$$$$
Y-2-triFBP	P10000004
  -OEChem-05182014473D

 33 34  0     1  0  0  0  0  0999 V2000
  118.6169  103.9380  104.0936 C   0  0  0  0  0  0  0  0  0  0  0  0
  119.5380  103.8229  105.1348 C   0  0  0  0  0  0  0  0  0  0  0  0
  117.5846  104.8725  104.1758 C   0  0  0  0  0  0  0  0  0  0  0  0
  118.3944  105.5768  106.3403 C   0  0  0  0  0  0  0  0  0  0  0  0
  119.4268  104.6423  106.2581 C   0  0  0  0  0  0  0  0  0  0  0  0
  117.4733  105.6919  105.2991 C   0  0  0  0  0  0  0  0  0  0  0  0
  124.0394  106.7930  105.5350 C   0  0  0  0  0  0  0  0  0  0  0  0
  122.6733  104.8524  106.2454 C   0  0  0  0  0  0  0  0  0  0  0  0
  122.4074  105.6652  108.4587 C   0  0  0  0  0  0  0  0  0  0  0  0
  123.9252  105.6689  106.5423 C   0  0  2  0  0  0  0  0  0  0  0  0
  121.6190  105.4334  107.1827 C   0  0  2  0  0  0  0  0  0  0  0  0
  120.4232  104.5185  107.3819 C   0  0  0  0  0  0  0  0  0  0  0  0
  116.3690  106.6907  105.3871 C   0  0  0  0  0  0  0  0  0  0  0  0
  123.7403  106.1402  107.9620 N   0  3  0  0  0  0  0  0  0  0  0  0
  123.0481  107.5725  105.4825 O   0  5  0  0  0  0  0  0  0  0  0  0
  125.1161  106.8053  104.8749 O   0  0  0  0  0  0  0  0  0  0  0  0
  115.5442  106.6920  104.2983 F   0  0  0  0  0  0  0  0  0  0  0  0
  115.5439  106.5001  106.4587 F   0  0  0  0  0  0  0  0  0  0  0  0
  116.8273  107.9712  105.5008 F   0  0  0  0  0  0  0  0  0  0  0  0
  118.7037  103.2999  103.2189 H   0  0  0  0  0  0  0  0  0  0  0  0
  120.3394  103.0923  105.0617 H   0  0  0  0  0  0  0  0  0  0  0  0
  116.8710  104.9547  103.3602 H   0  0  0  0  0  0  0  0  0  0  0  0
  118.3077  106.2166  107.2153 H   0  0  0  0  0  0  0  0  0  0  0  0
  122.3559  104.9057  105.1983 H   0  0  0  0  0  0  0  0  0  0  0  0
  122.8587  103.7966  106.4812 H   0  0  0  0  0  0  0  0  0  0  0  0
  121.9855  106.4371  109.1076 H   0  0  0  0  0  0  0  0  0  0  0  0
  122.5887  104.7446  109.0230 H   0  0  0  0  0  0  0  0  0  0  0  0
  124.8297  105.0536  106.5100 H   0  0  0  0  0  0  0  0  0  0  0  0
  121.2697  106.3965  106.7877 H   0  0  0  0  0  0  0  0  0  0  0  0
  119.9322  104.7494  108.3358 H   0  0  0  0  0  0  0  0  0  0  0  0
  120.7601  103.4769  107.4613 H   0  0  0  0  0  0  0  0  0  0  0  0
  123.7851  107.1677  108.0043 H   0  0  0  0  0  0  0  0  0  0  0  0
  124.4967  105.7933  108.5677 H   0  0  0  0  0  0  0  0  0  0  0  0
  1  2  1  0  0  0  0
  1  3  2  0  0  0  0
  2  5  2  0  0  0  0
  3  6  1  0  0  0  0
  4  5  1  0  0  0  0
  4  6  2  0  0  0  0
  5 12  1  0  0  0  0
  6 13  1  0  0  0  0
  7 10  1  0  0  0  0
  7 15  1  0  0  0  0
  7 16  2  0  0  0  0
  8 10  1  0  0  0  0
  8 11  1  0  0  0  0
  9 11  1  0  0  0  0
  9 14  1  0  0  0  0
 10 14  1  0  0  0  0
 11 12  1  0  0  0  0
 13 17  1  0  0  0  0
 13 18  1  0  0  0  0
 13 19  1  0  0  0  0
  1 20  1  0  0  0  0
  2 21  1  0  0  0  0
  3 22  1  0  0  0  0
  4 23  1  0  0  0  0
  8 24  1  0  0  0  0
  8 25  1  0  0  0  0
  9 26  1  0  0  0  0
  9 27  1  0  0  0  0
 10 28  1  0  0  0  0
 11 29  1  0  0  0  0
 12 30  1  0  0  0  0
 12 31  1  0  0  0  0
 14 32  1  0  0  0  0
 14 33  1  0  0  0  0
M  CHG  2  14   1  15  -1
M  END
> <FRED Chemgauss4 score>
-9.666962

$$$$
C83778409	P131081128
  -OEChem-05182014473D

 38 39  0     1  0  0  0  0  0999 V2000
  122.9374  106.4445  105.8157 C   0  0  0  0  0  0  0  0  0  0  0  0
  124.8406  106.6556  106.6465 C   0  0  0  0  0  0  0  0  0  0  0  0
  121.3105  104.6640  106.4283 C   0  0  0  0  0  0  0  0  0  0  0  0
  121.4277  105.5422  104.0548 C   0  0  0  0  0  0  0  0  0  0  0  0
  119.9369  104.0616  106.1343 C   0  0  0  0  0  0  0  0  0  0  0  0
  120.0538  104.9378  103.7665 C   0  0  0  0  0  0  0  0  0  0  0  0
  121.5874  105.8913  105.5440 C   0  0  0  0  0  0  0  0  0  0  0  0
  119.7762  103.7136  104.6487 C   0  0  0  0  0  0  0  0  0  0  0  0
  117.3166  104.1577  104.6917 C   0  0  0  0  0  0  0  0  0  0  0  0
  125.9551  105.9054  108.7924 C   0  0  0  0  0  0  0  0  0  0  0  0
  118.3797  103.1581  104.3742 C   0  0  0  0  0  0  0  0  0  0  0  0
  126.1030  106.5445  107.3949 C   0  0  1  0  0  0  0  0  0  0  0  0
  123.7905  105.8707  106.7143 N   0  0  0  0  0  0  0  0  0  0  0  0
  123.3936  107.5351  105.1961 N   0  0  0  0  0  0  0  0  0  0  0  0
  124.6125  107.6484  105.7453 N   0  0  0  0  0  0  0  0  0  0  0  0
  127.1345  105.8015  106.6756 N   0  0  0  0  0  0  0  0  0  0  0  0
  121.3648  104.9430  107.4880 H   0  0  0  0  0  0  0  0  0  0  0  0
  122.0837  103.9010  106.2671 H   0  0  0  0  0  0  0  0  0  0  0  0
  122.2079  104.8327  103.7482 H   0  0  0  0  0  0  0  0  0  0  0  0
  121.5650  106.4404  103.4398 H   0  0  0  0  0  0  0  0  0  0  0  0
  119.7997  103.1616  106.7455 H   0  0  0  0  0  0  0  0  0  0  0  0
  119.1583  104.7731  106.4382 H   0  0  0  0  0  0  0  0  0  0  0  0
  119.2826  105.7010  103.9319 H   0  0  0  0  0  0  0  0  0  0  0  0
  119.9994  104.6557  102.7082 H   0  0  0  0  0  0  0  0  0  0  0  0
  120.8582  106.6722  105.7970 H   0  0  0  0  0  0  0  0  0  0  0  0
  120.5056  102.9326  104.3956 H   0  0  0  0  0  0  0  0  0  0  0  0
  117.3866  104.4458  105.7472 H   0  0  0  0  0  0  0  0  0  0  0  0
  116.3203  103.7366  104.5201 H   0  0  0  0  0  0  0  0  0  0  0  0
  117.4357  105.0611  104.0843 H   0  0  0  0  0  0  0  0  0  0  0  0
  125.5071  104.9091  108.7091 H   0  0  0  0  0  0  0  0  0  0  0  0
  126.9210  105.8018  109.2995 H   0  0  0  0  0  0  0  0  0  0  0  0
  125.3137  106.5110  109.4425 H   0  0  0  0  0  0  0  0  0  0  0  0
  118.3107  102.8703  103.3221 H   0  0  0  0  0  0  0  0  0  0  0  0
  118.2291  102.2583  104.9760 H   0  0  0  0  0  0  0  0  0  0  0  0
  126.5602  107.5438  107.5610 H   0  0  0  0  0  0  0  0  0  0  0  0
  125.2150  108.4115  105.4601 H   0  0  0  0  0  0  0  0  0  0  0  0
  127.8572  105.3680  107.2080 H   0  0  0  0  0  0  0  0  0  0  0  0
  127.1968  105.9228  105.6881 H   0  0  0  0  0  0  0  0  0  0  0  0
  1  7  1  0  0  0  0
  1 13  1  0  0  0  0
  1 14  2  0  0  0  0
  2 12  1  0  0  0  0
  2 13  2  0  0  0  0
  2 15  1  0  0  0  0
  3  5  1  0  0  0  0
  3  7  1  0  0  0  0
  4  6  1  0  0  0  0
  4  7  1  0  0  0  0
  5  8  1  0  0  0  0
  6  8  1  0  0  0  0
  8 11  1  0  0  0  0
  9 11  1  0  0  0  0
 10 12  1  0  0  0  0
 12 16  1  0  0  0  0
 14 15  1  0  0  0  0
  3 17  1  0  0  0  0
  3 18  1  0  0  0  0
  4 19  1  0  0  0  0
  4 20  1  0  0  0  0
  5 21  1  0  0  0  0
  5 22  1  0  0  0  0
  6 23  1  0  0  0  0
  6 24  1  0  0  0  0
  7 25  1  0  0  0  0
  8 26  1  0  0  0  0
  9 27  1  0  0  0  0
  9 28  1  0  0  0  0
  9 29  1  0  0  0  0
 10 30  1  0  0  0  0
 10 31  1  0  0  0  0
 10 32  1  0  0  0  0
 11 33  1  0  0  0  0
 11 34  1  0  0  0  0
 12 35  1  0  0  0  0
 15 36  1  0  0  0  0
 16 37  1  0  0  0  0
 16 38  1  0  0  0  0
M  END
> <FRED Chemgauss4 score>
-9.633152

$$$$
C91131479	P142561522
  -OEChem-05182014473D

 44 45  0     1  0  0  0  0  0999 V2000
  121.0345  105.0134  105.8620 C   0  0  0  0  0  0  0  0  0  0  0  0
  124.1967  107.1723  105.3126 C   0  0  0  0  0  0  0  0  0  0  0  0
  117.2371  104.9191  105.7375 C   0  0  0  0  0  0  0  0  0  0  0  0
  117.0870  103.8588  104.6523 C   0  0  0  0  0  0  0  0  0  0  0  0
  118.6595  104.9528  106.2879 C   0  0  0  0  0  0  0  0  0  0  0  0
  118.1062  104.0556  103.5335 C   0  0  0  0  0  0  0  0  0  0  0  0
  120.9284  107.4920  106.3887 C   0  0  0  0  0  0  0  0  0  0  0  0
  120.3463  107.8424  107.7532 C   0  0  0  0  0  0  0  0  0  0  0  0
  123.0324  107.2471  108.1800 C   0  0  0  0  0  0  0  0  0  0  0  0
  119.6867  105.1470  105.1727 C   0  0  2  0  0  0  0  0  0  0  0  0
  119.5472  104.0915  104.0679 C   0  0  2  0  0  0  0  0  0  0  0  0
  122.8255  106.0806  107.1997 C   0  0  2  0  0  0  0  0  0  0  0  0
  124.0303  105.9876  106.2575 C   0  0  0  0  0  0  0  0  0  0  0  0
  120.5200  104.3525  102.9140 C   0  0  0  0  0  0  0  0  0  0  0  0
  121.5729  106.1756  106.4235 N   0  0  0  0  0  0  0  0  0  0  0  0
  120.7757  103.0764  102.2192 N   0  3  0  0  0  0  0  0  0  0  0  0
  123.2610  107.3937  104.4961 O   0  5  0  0  0  0  0  0  0  0  0  0
  121.5875  103.9108  105.8981 O   0  0  0  0  0  0  0  0  0  0  0  0
  125.2836  107.7991  105.4755 O   0  0  0  0  0  0  0  0  0  0  0  0
  121.5280  107.6297  109.1291 S   0  0  0  0  0  0  0  0  0  0  0  0
  116.9793  105.9037  105.3284 H   0  0  0  0  0  0  0  0  0  0  0  0
  116.5313  104.7166  106.5512 H   0  0  0  0  0  0  0  0  0  0  0  0
  117.2152  102.8624  105.0927 H   0  0  0  0  0  0  0  0  0  0  0  0
  116.0731  103.8966  104.2382 H   0  0  0  0  0  0  0  0  0  0  0  0
  118.7469  105.7601  107.0269 H   0  0  0  0  0  0  0  0  0  0  0  0
  118.8608  104.0191  106.8318 H   0  0  0  0  0  0  0  0  0  0  0  0
  117.9992  103.2442  102.8035 H   0  0  0  0  0  0  0  0  0  0  0  0
  117.8818  104.9907  103.0040 H   0  0  0  0  0  0  0  0  0  0  0  0
  120.1220  107.4992  105.6618 H   0  0  0  0  0  0  0  0  0  0  0  0
  121.6607  108.2276  106.0684 H   0  0  0  0  0  0  0  0  0  0  0  0
  120.0065  108.8938  107.7549 H   0  0  0  0  0  0  0  0  0  0  0  0
  119.4511  107.2279  107.9638 H   0  0  0  0  0  0  0  0  0  0  0  0
  123.8152  106.9969  108.8952 H   0  0  0  0  0  0  0  0  0  0  0  0
  123.3377  108.1449  107.6460 H   0  0  0  0  0  0  0  0  0  0  0  0
  119.6240  106.1461  104.7802 H   0  0  0  0  0  0  0  0  0  0  0  0
  119.7862  103.1014  104.4832 H   0  0  0  0  0  0  0  0  0  0  0  0
  122.8451  105.1869  107.7913 H   0  0  0  0  0  0  0  0  0  0  0  0
  123.9290  105.0782  105.6626 H   0  0  0  0  0  0  0  0  0  0  0  0
  124.9325  105.8957  106.8647 H   0  0  0  0  0  0  0  0  0  0  0  0
  121.4694  104.7256  103.2877 H   0  0  0  0  0  0  0  0  0  0  0  0
  120.0882  105.0435  102.1954 H   0  0  0  0  0  0  0  0  0  0  0  0
  121.3241  103.2199  101.3609 H   0  0  0  0  0  0  0  0  0  0  0  0
  119.8972  102.6133  101.9509 H   0  0  0  0  0  0  0  0  0  0  0  0
  121.3003  102.4230  102.8158 H   0  0  0  0  0  0  0  0  0  0  0  0
  1 10  1  0  0  0  0
  1 15  1  0  0  0  0
  1 18  2  0  0  0  0
  2 13  1  0  0  0  0
  2 17  1  0  0  0  0
  2 19  2  0  0  0  0
  3  4  1  0  0  0  0
  3  5  1  0  0  0  0
  4  6  1  0  0  0  0
  5 10  1  0  0  0  0
  6 11  1  0  0  0  0
  7  8  1  0  0  0  0
  7 15  1  0  0  0  0
  8 20  1  0  0  0  0
  9 12  1  0  0  0  0
  9 20  1  0  0  0  0
 10 11  1  0  0  0  0
 11 14  1  0  0  0  0
 12 13  1  0  0  0  0
 12 15  1  0  0  0  0
 14 16  1  0  0  0  0
  3 21  1  0  0  0  0
  3 22  1  0  0  0  0
  4 23  1  0  0  0  0
  4 24  1  0  0  0  0
  5 25  1  0  0  0  0
  5 26  1  0  0  0  0
  6 27  1  0  0  0  0
  6 28  1  0  0  0  0
  7 29  1  0  0  0  0
  7 30  1  0  0  0  0
  8 31  1  0  0  0  0
  8 32  1  0  0  0  0
  9 33  1  0  0  0  0
  9 34  1  0  0  0  0
 10 35  1  0  0  0  0
 11 36  1  0  0  0  0
 12 37  1  0  0  0  0
 13 38  1  0  0  0  0
 13 39  1  0  0  0  0
 14 40  1  0  0  0  0
 14 41  1  0  0  0  0
 16 42  1  0  0  0  0
 16 43  1  0  0  0  0
 16 44  1  0  0  0  0
M  CHG  2  16   1  17  -1
M  END
> <FRED Chemgauss4 score>
-9.623798

$$$$
C91504798	P143198797
  -OEChem-05182014473D

 31 32  0     1  0  0  0  0  0999 V2000
  120.5591  106.1536  105.6629 C   0  0  0  0  0  0  0  0  0  0  0  0
  120.4274  104.9679  106.3445 C   0  0  0  0  0  0  0  0  0  0  0  0
  122.4912  105.7215  106.4008 C   0  0  0  0  0  0  0  0  0  0  0  0
  119.4057  106.7310  105.0302 C   0  0  0  0  0  0  0  0  0  0  0  0
  118.2514  104.7152  105.9589 C   0  0  0  0  0  0  0  0  0  0  0  0
  123.6826  107.1608  108.8121 C   0  0  0  0  0  0  0  0  0  0  0  0
  123.9618  105.7440  106.7521 C   0  0  0  0  0  0  0  0  0  0  0  0
  124.3591  108.3092  106.6520 C   0  0  0  0  0  0  0  0  0  0  0  0
  124.4518  107.0163  107.4889 C   0  0  1  0  0  0  0  0  0  0  0  0
  121.8384  106.6243  105.6953 N   0  0  0  0  0  0  0  0  0  0  0  0
  119.3240  104.2097  106.5284 N   0  0  0  0  0  0  0  0  0  0  0  0
  121.6774  104.6964  106.8174 N   0  0  0  0  0  0  0  0  0  0  0  0
  118.2734  105.9297  105.2330 N   0  0  0  0  0  0  0  0  0  0  0  0
  117.0303  104.0963  106.0289 N   0  0  0  0  0  0  0  0  0  0  0  0
  125.0105  108.2212  105.3509 N   0  0  0  0  0  0  0  0  0  0  0  0
  119.4273  107.7821  104.4025 O   0  0  0  0  0  0  0  0  0  0  0  0
  125.8344  106.8543  107.8356 O   0  0  0  0  0  0  0  0  0  0  0  0
  124.0091  108.0544  109.3561 H   0  0  0  0  0  0  0  0  0  0  0  0
  122.6010  107.2223  108.6576 H   0  0  0  0  0  0  0  0  0  0  0  0
  123.8824  106.3094  109.4734 H   0  0  0  0  0  0  0  0  0  0  0  0
  124.1996  104.8526  107.3477 H   0  0  0  0  0  0  0  0  0  0  0  0
  124.5212  105.6261  105.8133 H   0  0  0  0  0  0  0  0  0  0  0  0
  124.7866  109.1498  107.2114 H   0  0  0  0  0  0  0  0  0  0  0  0
  123.3041  108.5743  106.5056 H   0  0  0  0  0  0  0  0  0  0  0  0
  121.9527  103.8944  107.3692 H   0  0  0  0  0  0  0  0  0  0  0  0
  117.3980  106.2466  104.8260 H   0  0  0  0  0  0  0  0  0  0  0  0
  116.9648  103.2396  106.5280 H   0  0  0  0  0  0  0  0  0  0  0  0
  116.2572  104.5278  105.5779 H   0  0  0  0  0  0  0  0  0  0  0  0
  125.8838  107.7414  105.2920 H   0  0  0  0  0  0  0  0  0  0  0  0
  124.6752  108.8066  104.6151 H   0  0  0  0  0  0  0  0  0  0  0  0
  126.0828  107.6523  108.3222 H   0  0  0  0  0  0  0  0  0  0  0  0
  1  2  2  0  0  0  0
  1  4  1  0  0  0  0
  1 10  1  0  0  0  0
  2 11  1  0  0  0  0
  2 12  1  0  0  0  0
  3  7  1  0  0  0  0
  3 10  2  0  0  0  0
  3 12  1  0  0  0  0
  4 13  1  0  0  0  0
  4 16  2  0  0  0  0
  5 11  2  0  0  0  0
  5 13  1  0  0  0  0
  5 14  1  0  0  0  0
  6  9  1  0  0  0  0
  7  9  1  0  0  0  0
  8  9  1  0  0  0  0
  8 15  1  0  0  0  0
  9 17  1  0  0  0  0
  6 18  1  0  0  0  0
  6 19  1  0  0  0  0
  6 20  1  0  0  0  0
  7 21  1  0  0  0  0
  7 22  1  0  0  0  0
  8 23  1  0  0  0  0
  8 24  1  0  0  0  0
 12 25  1  0  0  0  0
 13 26  1  0  0  0  0
 14 27  1  0  0  0  0
 14 28  1  0  0  0  0
 15 29  1  0  0  0  0
 15 30  1  0  0  0  0
 17 31  1  0  0  0  0
M  END
> <FRED Chemgauss4 score>
-9.608339

$$$$
C69369003	P106728978
  -OEChem-05182014473D

 43 44  0     1  0  0  0  0  0999 V2000
  118.4736  104.4251  101.6963 C   0  0  0  0  0  0  0  0  0  0  0  0
  117.3466  104.8798  102.4069 C   0  0  0  0  0  0  0  0  0  0  0  0
  119.5126  104.5458  102.5866 C   0  0  0  0  0  0  0  0  0  0  0  0
  125.5211  106.6898  107.1728 C   0  0  0  0  0  0  0  0  0  0  0  0
  124.5791  106.0001  106.2109 C   0  0  0  0  0  0  0  0  0  0  0  0
  123.8364  106.9878  105.3090 C   0  0  0  0  0  0  0  0  0  0  0  0
  123.5256  107.7839  108.2494 C   0  0  0  0  0  0  0  0  0  0  0  0
  122.9026  108.4716  107.0352 C   0  0  0  0  0  0  0  0  0  0  0  0
  115.9534  104.9701  101.9342 C   0  0  0  0  0  0  0  0  0  0  0  0
  120.9500  104.2374  102.4572 C   0  0  0  0  0  0  0  0  0  0  0  0
  119.6662  105.3530  104.9799 C   0  0  0  0  0  0  0  0  0  0  0  0
  121.5397  106.6867  106.0807 C   0  0  0  0  0  0  0  0  0  0  0  0
  120.8018  106.3637  104.7768 C   0  0  2  0  0  0  0  0  0  0  0  0
  117.6417  105.2607  103.6527 N   0  0  0  0  0  0  0  0  0  0  0  0
  118.9660  105.0455  103.7318 N   0  0  0  0  0  0  0  0  0  0  0  0
  124.9470  107.5401  108.0881 N   0  0  0  0  0  0  0  0  0  0  0  0
  122.6412  107.6206  105.8719 N   0  0  2  0  0  0  0  0  0  0  0  0
  118.5295  103.9721  100.4281 N   0  0  0  0  0  0  0  0  0  0  0  0
  126.7348  106.4824  107.1326 O   0  0  0  0  0  0  0  0  0  0  0  0
  120.2353  107.5779  104.2785 O   0  0  0  0  0  0  0  0  0  0  0  0
  125.1213  105.2427  105.6343 H   0  0  0  0  0  0  0  0  0  0  0  0
  123.8421  105.4584  106.8170 H   0  0  0  0  0  0  0  0  0  0  0  0
  124.5699  107.7879  105.0660 H   0  0  0  0  0  0  0  0  0  0  0  0
  123.6025  106.5114  104.3282 H   0  0  0  0  0  0  0  0  0  0  0  0
  123.3634  108.3576  109.1679 H   0  0  0  0  0  0  0  0  0  0  0  0
  123.0599  106.8023  108.3879 H   0  0  0  0  0  0  0  0  0  0  0  0
  121.9818  109.0175  107.3401 H   0  0  0  0  0  0  0  0  0  0  0  0
  123.6197  109.2621  106.7285 H   0  0  0  0  0  0  0  0  0  0  0  0
  115.4006  104.0381  102.1401 H   0  0  0  0  0  0  0  0  0  0  0  0
  115.4035  105.7973  102.4164 H   0  0  0  0  0  0  0  0  0  0  0  0
  115.8944  105.1598  100.8480 H   0  0  0  0  0  0  0  0  0  0  0  0
  121.5123  105.1108  102.0883 H   0  0  0  0  0  0  0  0  0  0  0  0
  121.3965  103.9335  103.4194 H   0  0  0  0  0  0  0  0  0  0  0  0
  121.1330  103.4021  101.7595 H   0  0  0  0  0  0  0  0  0  0  0  0
  118.9195  105.7362  105.6862 H   0  0  0  0  0  0  0  0  0  0  0  0
  120.0341  104.3979  105.3720 H   0  0  0  0  0  0  0  0  0  0  0  0
  120.8365  107.1126  106.8063 H   0  0  0  0  0  0  0  0  0  0  0  0
  121.9209  105.7637  106.5332 H   0  0  0  0  0  0  0  0  0  0  0  0
  121.5109  106.0002  104.0229 H   0  0  0  0  0  0  0  0  0  0  0  0
  125.5763  108.0451  108.7096 H   0  0  0  0  0  0  0  0  0  0  0  0
  117.6862  103.8708   99.8421 H   0  0  0  0  0  0  0  0  0  0  0  0
  119.4024  103.6147  100.0095 H   0  0  0  0  0  0  0  0  0  0  0  0
  120.9733  108.1940  104.1607 H   0  0  0  0  0  0  0  0  0  0  0  0
  1  2  1  0  0  0  0
  1  3  2  0  0  0  0
  1 18  1  0  0  0  0
  2  9  1  0  0  0  0
  2 14  2  0  0  0  0
  3 10  1  0  0  0  0
  3 15  1  0  0  0  0
  4  5  1  0  0  0  0
  4 16  1  0  0  0  0
  4 19  2  0  0  0  0
  5  6  1  0  0  0  0
  6 17  1  0  0  0  0
  7  8  1  0  0  0  0
  7 16  1  0  0  0  0
  8 17  1  0  0  0  0
 11 13  1  0  0  0  0
 11 15  1  0  0  0  0
 12 13  1  0  0  0  0
 12 17  1  0  0  0  0
 13 20  1  0  0  0  0
 14 15  1  0  0  0  0
  5 21  1  0  0  0  0
  5 22  1  0  0  0  0
  6 23  1  0  0  0  0
  6 24  1  0  0  0  0
  7 25  1  0  0  0  0
  7 26  1  0  0  0  0
  8 27  1  0  0  0  0
  8 28  1  0  0  0  0
  9 29  1  0  0  0  0
  9 30  1  0  0  0  0
  9 31  1  0  0  0  0
 10 32  1  0  0  0  0
 10 33  1  0  0  0  0
 10 34  1  0  0  0  0
 11 35  1  0  0  0  0
 11 36  1  0  0  0  0
 12 37  1  0  0  0  0
 12 38  1  0  0  0  0
 13 39  1  0  0  0  0
 16 40  1  0  0  0  0
 18 41  1  0  0  0  0
 18 42  1  0  0  0  0
 20 43  1  0  0  0  0
M  END
> <FRED Chemgauss4 score>
-9.578645

$$$$
Y-4-FBP	P10000005
  -OEChem-05182014473D

 40 42  0     1  0  0  0  0  0999 V2000
  115.0738  105.3951  103.1082 C   0  0  0  0  0  0  0  0  0  0  0  0
  115.7551  104.2067  103.3714 C   0  0  0  0  0  0  0  0  0  0  0  0
  115.5223  106.5937  103.6630 C   0  0  0  0  0  0  0  0  0  0  0  0
  116.8848  104.2169  104.1895 C   0  0  0  0  0  0  0  0  0  0  0  0
  116.6520  106.6039  104.4812 C   0  0  0  0  0  0  0  0  0  0  0  0
  118.6201  106.3712  106.6120 C   0  0  0  0  0  0  0  0  0  0  0  0
  119.5200  104.4902  105.3917 C   0  0  0  0  0  0  0  0  0  0  0  0
  119.7498  106.3810  107.4300 C   0  0  0  0  0  0  0  0  0  0  0  0
  120.6497  104.5000  106.2097 C   0  0  0  0  0  0  0  0  0  0  0  0
  117.3333  105.4156  104.7445 C   0  0  0  0  0  0  0  0  0  0  0  0
  118.5051  105.4258  105.5928 C   0  0  0  0  0  0  0  0  0  0  0  0
  120.7647  105.4454  107.2289 C   0  0  0  0  0  0  0  0  0  0  0  0
  125.0473  107.5068  105.2707 C   0  0  0  0  0  0  0  0  0  0  0  0
  123.9233  105.6596  106.4794 C   0  0  0  0  0  0  0  0  0  0  0  0
  124.1237  106.7248  108.5902 C   0  0  0  0  0  0  0  0  0  0  0  0
  125.1867  106.5079  106.3994 C   0  0  2  0  0  0  0  0  0  0  0  0
  123.0829  106.3438  107.5533 C   0  0  2  0  0  0  0  0  0  0  0  0
  121.9852  105.4558  108.1129 C   0  0  0  0  0  0  0  0  0  0  0  0
  125.3027  107.1414  107.7621 N   0  3  0  0  0  0  0  0  0  0  0  0
  124.0471  108.2728  105.3492 O   0  5  0  0  0  0  0  0  0  0  0  0
  125.9534  107.4442  104.3931 O   0  0  0  0  0  0  0  0  0  0  0  0
  114.1953  105.3871  102.4698 H   0  0  0  0  0  0  0  0  0  0  0  0
  115.4070  103.2736  102.9381 H   0  0  0  0  0  0  0  0  0  0  0  0
  114.9932  107.5196  103.4574 H   0  0  0  0  0  0  0  0  0  0  0  0
  117.4051  103.2822  104.3851 H   0  0  0  0  0  0  0  0  0  0  0  0
  116.9902  107.5460  104.9062 H   0  0  0  0  0  0  0  0  0  0  0  0
  117.8373  107.1067  106.7817 H   0  0  0  0  0  0  0  0  0  0  0  0
  119.4453  103.7473  104.6011 H   0  0  0  0  0  0  0  0  0  0  0  0
  119.8305  107.1205  108.2223 H   0  0  0  0  0  0  0  0  0  0  0  0
  121.4359  103.7677  106.0456 H   0  0  0  0  0  0  0  0  0  0  0  0
  123.3839  105.5895  105.5285 H   0  0  0  0  0  0  0  0  0  0  0  0
  124.1849  104.6390  106.7870 H   0  0  0  0  0  0  0  0  0  0  0  0
  123.8321  107.5663  109.2240 H   0  0  0  0  0  0  0  0  0  0  0  0
  124.4491  105.8768  109.2016 H   0  0  0  0  0  0  0  0  0  0  0  0
  126.0790  105.8950  106.2392 H   0  0  0  0  0  0  0  0  0  0  0  0
  122.6293  107.2534  107.1381 H   0  0  0  0  0  0  0  0  0  0  0  0
  121.7077  105.7956  109.1189 H   0  0  0  0  0  0  0  0  0  0  0  0
  122.3601  104.4314  108.2341 H   0  0  0  0  0  0  0  0  0  0  0  0
  125.3270  108.1669  107.6766 H   0  0  0  0  0  0  0  0  0  0  0  0
  126.1822  106.8693  108.2222 H   0  0  0  0  0  0  0  0  0  0  0  0
  1  2  1  0  0  0  0
  1  3  2  0  0  0  0
  2  4  2  0  0  0  0
  3  5  1  0  0  0  0
  4 10  1  0  0  0  0
  5 10  2  0  0  0  0
  6  8  2  0  0  0  0
  6 11  1  0  0  0  0
  7  9  1  0  0  0  0
  7 11  2  0  0  0  0
  8 12  1  0  0  0  0
  9 12  2  0  0  0  0
 10 11  1  0  0  0  0
 12 18  1  0  0  0  0
 13 16  1  0  0  0  0
 13 20  1  0  0  0  0
 13 21  2  0  0  0  0
 14 16  1  0  0  0  0
 14 17  1  0  0  0  0
 15 17  1  0  0  0  0
 15 19  1  0  0  0  0
 16 19  1  0  0  0  0
 17 18  1  0  0  0  0
  1 22  1  0  0  0  0
  2 23  1  0  0  0  0
  3 24  1  0  0  0  0
  4 25  1  0  0  0  0
  5 26  1  0  0  0  0
  6 27  1  0  0  0  0
  7 28  1  0  0  0  0
  8 29  1  0  0  0  0
  9 30  1  0  0  0  0
 14 31  1  0  0  0  0
 14 32  1  0  0  0  0
 15 33  1  0  0  0  0
 15 34  1  0  0  0  0
 16 35  1  0  0  0  0
 17 36  1  0  0  0  0
 18 37  1  0  0  0  0
 18 38  1  0  0  0  0
 19 39  1  0  0  0  0
 19 40  1  0  0  0  0
M  CHG  2  19   1  20  -1
M  END
> <FRED Chemgauss4 score>
-9.564398

$$$$
C54791059	P82480672
  -OEChem-05182014473D

 28 29  0     0  0  0  0  0  0999 V2000
  117.1367  103.9092  105.0425 C   0  0  0  0  0  0  0  0  0  0  0  0
  117.0574  105.0511  105.8396 C   0  0  0  0  0  0  0  0  0  0  0  0
  118.2355  103.7183  104.2048 C   0  0  0  0  0  0  0  0  0  0  0  0
  123.7621  105.6484  106.9256 C   0  0  0  0  0  0  0  0  0  0  0  0
  122.5735  104.9580  107.0483 C   0  0  0  0  0  0  0  0  0  0  0  0
  119.1757  105.8114  104.9611 C   0  0  0  0  0  0  0  0  0  0  0  0
  118.0769  106.0023  105.7988 C   0  0  0  0  0  0  0  0  0  0  0  0
  119.2550  104.6694  104.1641 C   0  0  0  0  0  0  0  0  0  0  0  0
  123.7281  106.7536  106.1000 C   0  0  0  0  0  0  0  0  0  0  0  0
  121.5288  106.4064  105.6419 C   0  0  0  0  0  0  0  0  0  0  0  0
  120.2711  106.8329  104.9179 C   0  0  0  0  0  0  0  0  0  0  0  0
  124.9657  107.5633  105.9045 C   0  0  0  0  0  0  0  0  0  0  0  0
  121.4336  105.3104  106.4185 N   0  0  0  0  0  0  0  0  0  0  0  0
  122.6247  107.1627  105.4401 N   0  0  0  0  0  0  0  0  0  0  0  0
  125.5788  107.3252  104.6227 N   0  0  0  0  0  0  0  0  0  0  0  0
  117.9382  107.4007  106.8025 Cl  0  0  0  0  0  0  0  0  0  0  0  0
  120.5990  104.3909  103.1161 Cl  0  0  0  0  0  0  0  0  0  0  0  0
  116.3421  103.1694  105.0737 H   0  0  0  0  0  0  0  0  0  0  0  0
  116.1929  105.1851  106.4851 H   0  0  0  0  0  0  0  0  0  0  0  0
  118.2815  102.8226  103.5907 H   0  0  0  0  0  0  0  0  0  0  0  0
  124.6571  105.3348  107.4472 H   0  0  0  0  0  0  0  0  0  0  0  0
  122.5026  104.0753  107.6754 H   0  0  0  0  0  0  0  0  0  0  0  0
  120.5203  107.0785  103.8730 H   0  0  0  0  0  0  0  0  0  0  0  0
  119.9172  107.7877  105.3389 H   0  0  0  0  0  0  0  0  0  0  0  0
  124.7498  108.6386  105.9727 H   0  0  0  0  0  0  0  0  0  0  0  0
  125.7178  107.3412  106.6739 H   0  0  0  0  0  0  0  0  0  0  0  0
  126.5675  107.4804  104.5175 H   0  0  0  0  0  0  0  0  0  0  0  0
  124.9911  107.2086  103.8141 H   0  0  0  0  0  0  0  0  0  0  0  0
  1  2  1  0  0  0  0
  1  3  2  0  0  0  0
  2  7  2  0  0  0  0
  3  8  1  0  0  0  0
  4  5  1  0  0  0  0
  4  9  2  0  0  0  0
  5 13  2  0  0  0  0
  6  7  1  0  0  0  0
  6  8  2  0  0  0  0
  6 11  1  0  0  0  0
  7 16  1  0  0  0  0
  8 17  1  0  0  0  0
  9 12  1  0  0  0  0
  9 14  1  0  0  0  0
 10 11  1  0  0  0  0
 10 13  1  0  0  0  0
 10 14  2  0  0  0  0
 12 15  1  0  0  0  0
  1 18  1  0  0  0  0
  2 19  1  0  0  0  0
  3 20  1  0  0  0  0
  4 21  1  0  0  0  0
  5 22  1  0  0  0  0
 11 23  1  0  0  0  0
 11 24  1  0  0  0  0
 12 25  1  0  0  0  0
 12 26  1  0  0  0  0
 15 27  1  0  0  0  0
 15 28  1  0  0  0  0
M  END
> <FRED Chemgauss4 score>
-9.563318

$$$$
C48877286	P73025058
  -OEChem-05182014473D

 37 38  0     1  0  0  0  0  0999 V2000
  117.5654  104.6113  100.9346 C   0  0  0  0  0  0  0  0  0  0  0  0
  118.8844  104.7579  101.3638 C   0  0  0  0  0  0  0  0  0  0  0  0
  116.5135  104.8483  101.8195 C   0  0  0  0  0  0  0  0  0  0  0  0
  118.0997  105.3784  103.5630 C   0  0  0  0  0  0  0  0  0  0  0  0
  121.7739  104.1692  106.4761 C   0  0  0  0  0  0  0  0  0  0  0  0
  123.6181  105.5476  107.2079 C   0  0  0  0  0  0  0  0  0  0  0  0
  122.7291  105.8047  104.9762 C   0  0  0  0  0  0  0  0  0  0  0  0
  119.1516  105.1415  102.6780 C   0  0  0  0  0  0  0  0  0  0  0  0
  122.6850  104.5429  107.4639 C   0  0  0  0  0  0  0  0  0  0  0  0
  121.7959  104.8000  105.2322 C   0  0  0  0  0  0  0  0  0  0  0  0
  123.6402  106.1785  105.9640 C   0  0  0  0  0  0  0  0  0  0  0  0
  116.7807  105.2318  103.1337 C   0  0  0  0  0  0  0  0  0  0  0  0
  120.2121  103.1219  104.3180 C   0  0  0  0  0  0  0  0  0  0  0  0
  120.5622  105.2969  103.1367 C   0  0  0  0  0  0  0  0  0  0  0  0
  122.6627  103.9051  108.7217 N   0  0  0  0  0  0  0  0  0  0  0  0
  123.9428  108.8203  106.1478 N   0  0  0  0  0  0  0  0  0  0  0  0
  120.8793  104.4239  104.2383 N   0  0  3  0  0  0  0  0  0  0  0  0
  125.9458  107.2437  106.5321 O   0  0  0  0  0  0  0  0  0  0  0  0
  125.0195  107.5154  104.2049 O   0  0  0  0  0  0  0  0  0  0  0  0
  124.8083  107.4361  105.6436 S   0  0  0  0  0  0  0  0  0  0  0  0
  115.4825  105.5229  104.2254 Cl  0  0  0  0  0  0  0  0  0  0  0  0
  117.3577  104.3125   99.9111 H   0  0  0  0  0  0  0  0  0  0  0  0
  119.6977  104.5711  100.6675 H   0  0  0  0  0  0  0  0  0  0  0  0
  115.4904  104.7299  101.4712 H   0  0  0  0  0  0  0  0  0  0  0  0
  118.3132  105.6777  104.5865 H   0  0  0  0  0  0  0  0  0  0  0  0
  121.0460  103.3856  106.6758 H   0  0  0  0  0  0  0  0  0  0  0  0
  124.3285  105.8391  107.9782 H   0  0  0  0  0  0  0  0  0  0  0  0
  122.7463  106.2966  104.0063 H   0  0  0  0  0  0  0  0  0  0  0  0
  119.5362  102.9936  103.4686 H   0  0  0  0  0  0  0  0  0  0  0  0
  119.6330  103.0500  105.2426 H   0  0  0  0  0  0  0  0  0  0  0  0
  120.9517  102.3168  104.3041 H   0  0  0  0  0  0  0  0  0  0  0  0
  121.2692  105.0743  102.3252 H   0  0  0  0  0  0  0  0  0  0  0  0
  120.7685  106.3252  103.4639 H   0  0  0  0  0  0  0  0  0  0  0  0
  121.9588  103.2199  108.9088 H   0  0  0  0  0  0  0  0  0  0  0  0
  123.2897  104.2146  109.4365 H   0  0  0  0  0  0  0  0  0  0  0  0
  124.2389  109.2844  107.0152 H   0  0  0  0  0  0  0  0  0  0  0  0
  123.6055  109.4677  105.4250 H   0  0  0  0  0  0  0  0  0  0  0  0
  1  2  2  0  0  0  0
  1  3  1  0  0  0  0
  2  8  1  0  0  0  0
  3 12  2  0  0  0  0
  4  8  2  0  0  0  0
  4 12  1  0  0  0  0
  5  9  2  0  0  0  0
  5 10  1  0  0  0  0
  6  9  1  0  0  0  0
  6 11  2  0  0  0  0
  7 10  2  0  0  0  0
  7 11  1  0  0  0  0
  8 14  1  0  0  0  0
  9 15  1  0  0  0  0
 10 17  1  0  0  0  0
 11 20  1  0  0  0  0
 12 21  1  0  0  0  0
 13 17  1  0  0  0  0
 14 17  1  0  0  0  0
 16 20  1  0  0  0  0
 18 20  2  0  0  0  0
 19 20  2  0  0  0  0
  1 22  1  0  0  0  0
  2 23  1  0  0  0  0
  3 24  1  0  0  0  0
  4 25  1  0  0  0  0
  5 26  1  0  0  0  0
  6 27  1  0  0  0  0
  7 28  1  0  0  0  0
 13 29  1  0  0  0  0
 13 30  1  0  0  0  0
 13 31  1  0  0  0  0
 14 32  1  0  0  0  0
 14 33  1  0  0  0  0
 15 34  1  0  0  0  0
 15 35  1  0  0  0  0
 16 36  1  0  0  0  0
 16 37  1  0  0  0  0
M  END
> <FRED Chemgauss4 score>
-9.555665

$$$$
C77426586	P120815757
  -OEChem-05182014473D

 41 42  0     1  0  0  0  0  0999 V2000
  117.8843  104.4726  101.4870 C   0  0  0  0  0  0  0  0  0  0  0  0
  119.2005  104.6038  101.1117 C   0  0  0  0  0  0  0  0  0  0  0  0
  118.9684  104.7406  103.2990 C   0  0  0  0  0  0  0  0  0  0  0  0
  126.0969  105.8988  108.6616 C   0  0  0  0  0  0  0  0  0  0  0  0
  124.9893  107.7151  107.5203 C   0  0  0  0  0  0  0  0  0  0  0  0
  125.7081  104.7368  107.7550 C   0  0  0  0  0  0  0  0  0  0  0  0
  124.0963  105.6338  106.2613 C   0  0  0  0  0  0  0  0  0  0  0  0
  123.9912  107.1501  106.4963 C   0  0  1  0  0  0  0  0  0  0  0  0
  121.3139  104.9544  102.3838 C   0  0  0  0  0  0  0  0  0  0  0  0
  122.5476  107.5136  106.8654 C   0  0  0  0  0  0  0  0  0  0  0  0
  120.2546  107.2874  106.1935 C   0  0  0  0  0  0  0  0  0  0  0  0
  119.2872  106.7286  105.1589 C   0  0  0  0  0  0  0  0  0  0  0  0
  117.7464  104.5590  102.8497 N   0  0  0  0  0  0  0  0  0  0  0  0
  119.8829  104.7753  102.2832 N   0  0  0  0  0  0  0  0  0  0  0  0
  125.0745  106.9451  108.7624 N   0  0  0  0  0  0  0  0  0  0  0  0
  121.6595  106.9814  105.8909 N   0  0  0  0  0  0  0  0  0  0  0  0
  125.4303  105.1490  106.4177 O   0  0  0  0  0  0  0  0  0  0  0  0
  124.2966  107.8086  105.2567 O   0  0  0  0  0  0  0  0  0  0  0  0
  119.4230  104.9224  104.9956 S   0  0  0  0  0  0  0  0  0  0  0  0
  117.0288  104.3208  100.8451 H   0  0  0  0  0  0  0  0  0  0  0  0
  119.6910  104.5904  100.1484 H   0  0  0  0  0  0  0  0  0  0  0  0
  126.2809  105.5075  109.6686 H   0  0  0  0  0  0  0  0  0  0  0  0
  127.0452  106.3375  108.3272 H   0  0  0  0  0  0  0  0  0  0  0  0
  125.9807  107.8482  107.0654 H   0  0  0  0  0  0  0  0  0  0  0  0
  124.6825  108.7359  107.7836 H   0  0  0  0  0  0  0  0  0  0  0  0
  126.5584  104.0479  107.6991 H   0  0  0  0  0  0  0  0  0  0  0  0
  124.8721  104.1616  108.1720 H   0  0  0  0  0  0  0  0  0  0  0  0
  123.4147  105.0772  106.9165 H   0  0  0  0  0  0  0  0  0  0  0  0
  123.8011  105.3941  105.2331 H   0  0  0  0  0  0  0  0  0  0  0  0
  121.5244  106.0257  102.3285 H   0  0  0  0  0  0  0  0  0  0  0  0
  121.6662  104.5442  103.3343 H   0  0  0  0  0  0  0  0  0  0  0  0
  121.8031  104.4246  101.5618 H   0  0  0  0  0  0  0  0  0  0  0  0
  122.4622  108.5898  106.8857 H   0  0  0  0  0  0  0  0  0  0  0  0
  122.3217  107.0899  107.8322 H   0  0  0  0  0  0  0  0  0  0  0  0
  120.0412  106.8393  107.1696 H   0  0  0  0  0  0  0  0  0  0  0  0
  120.1603  108.3735  106.2973 H   0  0  0  0  0  0  0  0  0  0  0  0
  118.2528  106.9764  105.4180 H   0  0  0  0  0  0  0  0  0  0  0  0
  119.5056  107.1668  104.1801 H   0  0  0  0  0  0  0  0  0  0  0  0
  124.1714  106.5349  108.9941 H   0  0  0  0  0  0  0  0  0  0  0  0
  121.8664  107.3616  104.9545 H   0  0  0  0  0  0  0  0  0  0  0  0
  124.1732  108.7527  105.4220 H   0  0  0  0  0  0  0  0  0  0  0  0
  1  2  2  0  0  0  0
  1 13  1  0  0  0  0
  2 14  1  0  0  0  0
  3 13  2  0  0  0  0
  3 14  1  0  0  0  0
  3 19  1  0  0  0  0
  4  6  1  0  0  0  0
  4 15  1  0  0  0  0
  5  8  1  0  0  0  0
  5 15  1  0  0  0  0
  6 17  1  0  0  0  0
  7  8  1  0  0  0  0
  7 17  1  0  0  0  0
  8 10  1  0  0  0  0
  8 18  1  0  0  0  0
  9 14  1  0  0  0  0
 10 16  1  0  0  0  0
 11 12  1  0  0  0  0
 11 16  1  0  0  0  0
 12 19  1  0  0  0  0
  1 20  1  0  0  0  0
  2 21  1  0  0  0  0
  4 22  1  0  0  0  0
  4 23  1  0  0  0  0
  5 24  1  0  0  0  0
  5 25  1  0  0  0  0
  6 26  1  0  0  0  0
  6 27  1  0  0  0  0
  7 28  1  0  0  0  0
  7 29  1  0  0  0  0
  9 30  1  0  0  0  0
  9 31  1  0  0  0  0
  9 32  1  0  0  0  0
 10 33  1  0  0  0  0
 10 34  1  0  0  0  0
 11 35  1  0  0  0  0
 11 36  1  0  0  0  0
 12 37  1  0  0  0  0
 12 38  1  0  0  0  0
 15 39  1  0  0  0  0
 16 40  1  0  0  0  0
 18 41  1  0  0  0  0
M  END
> <FRED Chemgauss4 score>
-9.475117

$$$$
C71178555	P109891495
  -OEChem-05182014473D

 26 27  0     0  0  0  0  0  0999 V2000
  117.1856  105.1943  103.4170 C   0  0  0  0  0  0  0  0  0  0  0  0
  117.1721  105.2372  104.8111 C   0  0  0  0  0  0  0  0  0  0  0  0
  119.3501  104.1223  103.4709 C   0  0  0  0  0  0  0  0  0  0  0  0
  123.3316  106.1371  107.0836 C   0  0  0  0  0  0  0  0  0  0  0  0
  121.7516  105.9178  104.9429 C   0  0  0  0  0  0  0  0  0  0  0  0
  118.2746  104.6367  102.7469 C   0  0  0  0  0  0  0  0  0  0  0  0
  118.2476  104.7228  105.5351 C   0  0  0  0  0  0  0  0  0  0  0  0
  119.3366  104.1653  104.8651 C   0  0  0  0  0  0  0  0  0  0  0  0
  123.3199  107.1078  106.1064 C   0  0  0  0  0  0  0  0  0  0  0  0
  121.7637  104.9466  105.9197 C   0  0  0  0  0  0  0  0  0  0  0  0
  124.1932  108.3080  106.2244 C   0  0  0  0  0  0  0  0  0  0  0  0
  122.5295  107.0158  105.0186 N   0  0  0  0  0  0  0  0  0  0  0  0
  122.5540  105.0389  107.0077 N   0  0  0  0  0  0  0  0  0  0  0  0
  125.3364  108.2449  105.3480 N   0  0  0  0  0  0  0  0  0  0  0  0
  118.2874  104.5957  101.4081 F   0  0  0  0  0  0  0  0  0  0  0  0
  118.2155  104.7741  106.8746 F   0  0  0  0  0  0  0  0  0  0  0  0
  120.7165  103.5056  105.7816 S   0  0  0  0  0  0  0  0  0  0  0  0
  116.3483  105.5944  102.8529 H   0  0  0  0  0  0  0  0  0  0  0  0
  116.3242  105.6711  105.3328 H   0  0  0  0  0  0  0  0  0  0  0  0
  120.1892  103.6923  102.9296 H   0  0  0  0  0  0  0  0  0  0  0  0
  123.9637  106.2045  107.9615 H   0  0  0  0  0  0  0  0  0  0  0  0
  121.1220  105.8580  104.0624 H   0  0  0  0  0  0  0  0  0  0  0  0
  123.6420  109.2276  105.9790 H   0  0  0  0  0  0  0  0  0  0  0  0
  124.5743  108.4330  107.2482 H   0  0  0  0  0  0  0  0  0  0  0  0
  126.1686  108.7529  105.5949 H   0  0  0  0  0  0  0  0  0  0  0  0
  125.2202  107.8714  104.4214 H   0  0  0  0  0  0  0  0  0  0  0  0
  1  2  1  0  0  0  0
  1  6  2  0  0  0  0
  2  7  2  0  0  0  0
  3  6  1  0  0  0  0
  3  8  2  0  0  0  0
  4  9  2  0  0  0  0
  4 13  1  0  0  0  0
  5 10  1  0  0  0  0
  5 12  2  0  0  0  0
  6 15  1  0  0  0  0
  7  8  1  0  0  0  0
  7 16  1  0  0  0  0
  8 17  1  0  0  0  0
  9 11  1  0  0  0  0
  9 12  1  0  0  0  0
 10 13  2  0  0  0  0
 10 17  1  0  0  0  0
 11 14  1  0  0  0  0
  1 18  1  0  0  0  0
  2 19  1  0  0  0  0
  3 20  1  0  0  0  0
  4 21  1  0  0  0  0
  5 22  1  0  0  0  0
 11 23  1  0  0  0  0
 11 24  1  0  0  0  0
 14 25  1  0  0  0  0
 14 26  1  0  0  0  0
M  END
> <FRED Chemgauss4 score>
-9.469704

$$$$
C48977008	P73168995
  -OEChem-05182014473D

 35 37  0     1  0  0  0  0  0999 V2000
  119.7568  104.7303  102.8546 C   0  0  0  0  0  0  0  0  0  0  0  0
  118.5426  104.5251  102.1378 C   0  0  0  0  0  0  0  0  0  0  0  0
  121.7459  106.1657  107.0591 C   0  0  0  0  0  0  0  0  0  0  0  0
  119.5410  105.3240  104.0788 C   0  0  0  0  0  0  0  0  0  0  0  0
  122.4496  106.2881  105.8793 C   0  0  0  0  0  0  0  0  0  0  0  0
  117.4449  104.9696  102.8417 C   0  0  0  0  0  0  0  0  0  0  0  0
  120.5160  105.6720  105.0476 C   0  0  0  0  0  0  0  0  0  0  0  0
  123.8596  106.6914  105.8064 C   0  0  0  0  0  0  0  0  0  0  0  0
  124.6566  104.0665  108.0875 C   0  0  0  0  0  0  0  0  0  0  0  0
  125.9822  104.5173  108.7033 C   0  0  0  0  0  0  0  0  0  0  0  0
  124.5634  104.4646  106.6171 C   0  0  0  0  0  0  0  0  0  0  0  0
  126.0951  106.3634  106.9892 C   0  0  0  0  0  0  0  0  0  0  0  0
  126.2155  106.0206  108.4799 C   0  0  2  0  0  0  0  0  0  0  0  0
  127.5758  106.4454  109.0262 C   0  0  0  0  0  0  0  0  0  0  0  0
  121.7460  106.0051  104.7248 N   0  0  0  0  0  0  0  0  0  0  0  0
  124.8065  105.8979  106.4577 N   0  0  0  0  0  0  0  0  0  0  0  0
  124.1008  107.7079  105.1569 O   0  0  0  0  0  0  0  0  0  0  0  0
  120.1366  105.6787  106.7212 S   0  0  0  0  0  0  0  0  0  0  0  0
  117.8800  105.6313  104.3599 S   0  0  0  0  0  0  0  0  0  0  0  0
  115.8000  104.9211  102.3632 Cl  0  0  0  0  0  0  0  0  0  0  0  0
  120.7354  104.4528  102.4822 H   0  0  0  0  0  0  0  0  0  0  0  0
  118.4841  104.0734  101.1555 H   0  0  0  0  0  0  0  0  0  0  0  0
  122.0844  106.3318  108.0722 H   0  0  0  0  0  0  0  0  0  0  0  0
  124.5506  102.9808  108.1883 H   0  0  0  0  0  0  0  0  0  0  0  0
  123.8292  104.5267  108.6420 H   0  0  0  0  0  0  0  0  0  0  0  0
  125.9808  104.2912  109.7760 H   0  0  0  0  0  0  0  0  0  0  0  0
  126.8019  103.9408  108.2557 H   0  0  0  0  0  0  0  0  0  0  0  0
  125.3189  103.9343  106.0256 H   0  0  0  0  0  0  0  0  0  0  0  0
  123.5815  104.1884  106.2200 H   0  0  0  0  0  0  0  0  0  0  0  0
  126.2228  107.4396  106.8450 H   0  0  0  0  0  0  0  0  0  0  0  0
  126.8824  105.8651  106.4098 H   0  0  0  0  0  0  0  0  0  0  0  0
  125.4379  106.5719  109.0263 H   0  0  0  0  0  0  0  0  0  0  0  0
  128.3678  105.9132  108.5014 H   0  0  0  0  0  0  0  0  0  0  0  0
  127.6359  106.2153  110.0889 H   0  0  0  0  0  0  0  0  0  0  0  0
  127.7127  107.5167  108.8855 H   0  0  0  0  0  0  0  0  0  0  0  0
  1  2  1  0  0  0  0
  1  4  2  0  0  0  0
  2  6  2  0  0  0  0
  3  5  2  0  0  0  0
  3 18  1  0  0  0  0
  4  7  1  0  0  0  0
  4 19  1  0  0  0  0
  5  8  1  0  0  0  0
  5 15  1  0  0  0  0
  6 19  1  0  0  0  0
  6 20  1  0  0  0  0
  7 15  2  0  0  0  0
  7 18  1  0  0  0  0
  8 16  1  0  0  0  0
  8 17  2  0  0  0  0
  9 10  1  0  0  0  0
  9 11  1  0  0  0  0
 10 13  1  0  0  0  0
 11 16  1  0  0  0  0
 12 13  1  0  0  0  0
 12 16  1  0  0  0  0
 13 14  1  0  0  0  0
  1 21  1  0  0  0  0
  2 22  1  0  0  0  0
  3 23  1  0  0  0  0
  9 24  1  0  0  0  0
  9 25  1  0  0  0  0
 10 26  1  0  0  0  0
 10 27  1  0  0  0  0
 11 28  1  0  0  0  0
 11 29  1  0  0  0  0
 12 30  1  0  0  0  0
 12 31  1  0  0  0  0
 13 32  1  0  0  0  0
 14 33  1  0  0  0  0
 14 34  1  0  0  0  0
 14 35  1  0  0  0  0
M  END
> <FRED Chemgauss4 score>
-9.436104

$$$$
C06184893	P09576532
  -OEChem-05182014473D

 35 35  0     1  0  0  0  0  0999 V2000
  124.9275  106.6646  105.7560 C   0  0  1  0  0  0  0  0  0  0  0  0
  125.4426  106.9945  107.1607 C   0  0  2  0  0  0  0  0  0  0  0  0
  123.4123  106.4615  105.7420 C   0  0  1  0  0  0  0  0  0  0  0  0
  124.9170  105.9931  108.2006 C   0  0  2  0  0  0  0  0  0  0  0  0
  123.0249  105.4275  106.7997 C   0  0  1  0  0  0  0  0  0  0  0  0
  125.6384  104.6478  108.1547 C   0  0  0  0  0  0  0  0  0  0  0  0
  118.9394  105.6542  105.7002 C   0  0  0  0  0  0  0  0  0  0  0  0
  121.1568  104.4616  105.7490 C   0  0  0  0  0  0  0  0  0  0  0  0
  119.6417  104.3078  105.8180 C   0  0  2  0  0  0  0  0  0  0  0  0
  123.4955  105.8213  108.0903 O   0  0  0  0  0  0  0  0  0  0  0  0
  125.2848  107.6865  104.8325 O   0  0  0  0  0  0  0  0  0  0  0  0
  124.9973  108.3038  107.5269 O   0  0  0  0  0  0  0  0  0  0  0  0
  122.7422  107.6888  106.0378 O   0  0  0  0  0  0  0  0  0  0  0  0
  125.0889  103.8080  109.1533 O   0  0  0  0  0  0  0  0  0  0  0  0
  119.3049  106.2595  104.4645 O   0  0  0  0  0  0  0  0  0  0  0  0
  119.2132  103.4898  104.7268 O   0  0  0  0  0  0  0  0  0  0  0  0
  121.6049  105.2966  106.8063 O   0  0  0  0  0  0  0  0  0  0  0  0
  125.4364  105.7419  105.3699 H   0  0  0  0  0  0  0  0  0  0  0  0
  126.5267  106.9930  107.1547 H   0  0  0  0  0  0  0  0  0  0  0  0
  123.1074  106.1179  104.7745 H   0  0  0  0  0  0  0  0  0  0  0  0
  125.1263  106.4167  109.2337 H   0  0  0  0  0  0  0  0  0  0  0  0
  123.4385  104.4675  106.5477 H   0  0  0  0  0  0  0  0  0  0  0  0
  126.7016  104.7896  108.3477 H   0  0  0  0  0  0  0  0  0  0  0  0
  125.4999  104.1849  107.1778 H   0  0  0  0  0  0  0  0  0  0  0  0
  119.2395  106.3303  106.5076 H   0  0  0  0  0  0  0  0  0  0  0  0
  117.8516  105.5334  105.7096 H   0  0  0  0  0  0  0  0  0  0  0  0
  121.4732  104.9130  104.8036 H   0  0  0  0  0  0  0  0  0  0  0  0
  121.6570  103.4948  105.8638 H   0  0  0  0  0  0  0  0  0  0  0  0
  119.3372  103.7933  106.7364 H   0  0  0  0  0  0  0  0  0  0  0  0
  126.2527  107.7306  104.8351 H   0  0  0  0  0  0  0  0  0  0  0  0
  125.3412  108.4769  108.4179 H   0  0  0  0  0  0  0  0  0  0  0  0
  123.0043  108.3239  105.3516 H   0  0  0  0  0  0  0  0  0  0  0  0
  125.5622  102.9598  109.1054 H   0  0  0  0  0  0  0  0  0  0  0  0
  118.8411  107.1107  104.4244 H   0  0  0  0  0  0  0  0  0  0  0  0
  119.4698  103.9582  103.9188 H   0  0  0  0  0  0  0  0  0  0  0  0
  1  2  1  0  0  0  0
  1  3  1  0  0  0  0
  1 11  1  0  0  0  0
  2  4  1  0  0  0  0
  2 12  1  0  0  0  0
  3  5  1  0  0  0  0
  3 13  1  0  0  0  0
  4  6  1  0  0  0  0
  4 10  1  0  0  0  0
  5 10  1  0  0  0  0
  5 17  1  0  0  0  0
  6 14  1  0  0  0  0
  7  9  1  0  0  0  0
  7 15  1  0  0  0  0
  8  9  1  0  0  0  0
  8 17  1  0  0  0  0
  9 16  1  0  0  0  0
  1 18  1  0  0  0  0
  2 19  1  0  0  0  0
  3 20  1  0  0  0  0
  4 21  1  0  0  0  0
  5 22  1  0  0  0  0
  6 23  1  0  0  0  0
  6 24  1  0  0  0  0
  7 25  1  0  0  0  0
  7 26  1  0  0  0  0
  8 27  1  0  0  0  0
  8 28  1  0  0  0  0
  9 29  1  0  0  0  0
 11 30  1  0  0  0  0
 12 31  1  0  0  0  0
 13 32  1  0  0  0  0
 14 33  1  0  0  0  0
 15 34  1  0  0  0  0
 16 35  1  0  0  0  0
M  END
> <FRED Chemgauss4 score>
-9.400630

$$$$
C35415528	P52545805
  -OEChem-05182014473D

 27 27  0     0  0  0  0  0  0999 V2000
  117.9592  105.0796  103.7931 C   0  0  0  0  0  0  0  0  0  0  0  0
  119.3461  104.4136  105.2244 C   0  0  0  0  0  0  0  0  0  0  0  0
  124.3049  106.7053  105.4894 C   0  0  0  0  0  0  0  0  0  0  0  0
  116.7458  105.0213  102.9685 C   0  0  0  0  0  0  0  0  0  0  0  0
  119.9219  103.4837  106.2514 C   0  0  0  0  0  0  0  0  0  0  0  0
  124.4476  105.6367  106.5782 C   0  0  0  0  0  0  0  0  0  0  0  0
  123.1646  105.2062  107.2828 C   0  0  0  0  0  0  0  0  0  0  0  0
  122.1776  104.5540  106.3234 C   0  0  0  0  0  0  0  0  0  0  0  0
  118.8908  106.0026  103.8477 N   0  0  0  0  0  0  0  0  0  0  0  0
  119.8033  105.5643  104.7892 N   0  0  0  0  0  0  0  0  0  0  0  0
  120.9809  104.1174  107.0835 N   0  3  0  0  0  0  0  0  0  0  0  0
  125.4027  107.0921  104.9944 O   0  5  0  0  0  0  0  0  0  0  0  0
  123.1306  107.0829  105.2244 O   0  0  0  0  0  0  0  0  0  0  0  0
  118.1768  104.0358  104.6391 O   0  0  0  0  0  0  0  0  0  0  0  0
  116.9361  104.5189  102.0027 H   0  0  0  0  0  0  0  0  0  0  0  0
  115.9232  104.4744  103.4668 H   0  0  0  0  0  0  0  0  0  0  0  0
  116.3413  106.0260  102.7421 H   0  0  0  0  0  0  0  0  0  0  0  0
  119.1493  103.1292  106.9421 H   0  0  0  0  0  0  0  0  0  0  0  0
  120.3760  102.6056  105.7796 H   0  0  0  0  0  0  0  0  0  0  0  0
  124.9417  104.7558  106.1495 H   0  0  0  0  0  0  0  0  0  0  0  0
  125.1337  106.0509  107.3279 H   0  0  0  0  0  0  0  0  0  0  0  0
  122.6964  106.0654  107.7786 H   0  0  0  0  0  0  0  0  0  0  0  0
  123.4255  104.4923  108.0743 H   0  0  0  0  0  0  0  0  0  0  0  0
  122.5959  103.6598  105.8521 H   0  0  0  0  0  0  0  0  0  0  0  0
  121.8247  105.2441  105.5524 H   0  0  0  0  0  0  0  0  0  0  0  0
  120.5780  104.9264  107.5784 H   0  0  0  0  0  0  0  0  0  0  0  0
  121.2676  103.4565  107.8203 H   0  0  0  0  0  0  0  0  0  0  0  0
  1  4  1  0  0  0  0
  1  9  2  0  0  0  0
  1 14  1  0  0  0  0
  2  5  1  0  0  0  0
  2 10  2  0  0  0  0
  2 14  1  0  0  0  0
  3  6  1  0  0  0  0
  3 12  1  0  0  0  0
  3 13  2  0  0  0  0
  5 11  1  0  0  0  0
  6  7  1  0  0  0  0
  7  8  1  0  0  0  0
  8 11  1  0  0  0  0
  9 10  1  0  0  0  0
  4 15  1  0  0  0  0
  4 16  1  0  0  0  0
  4 17  1  0  0  0  0
  5 18  1  0  0  0  0
  5 19  1  0  0  0  0
  6 20  1  0  0  0  0
  6 21  1  0  0  0  0
  7 22  1  0  0  0  0
  7 23  1  0  0  0  0
  8 24  1  0  0  0  0
  8 25  1  0  0  0  0
 11 26  1  0  0  0  0
 11 27  1  0  0  0  0
M  CHG  2  11   1  12  -1
M  END
> <FRED Chemgauss4 score>
-9.396282

$$$$
C45084447	P128457551
  -OEChem-05182014473D

 27 27  0     0  0  0  0  0  0999 V2000
  118.2274  103.6011  105.1710 C   0  0  0  0  0  0  0  0  0  0  0  0
  119.1467  103.4630  106.2049 C   0  0  0  0  0  0  0  0  0  0  0  0
  119.4219  105.5214  104.4349 C   0  0  0  0  0  0  0  0  0  0  0  0
  118.3605  104.6472  104.2648 C   0  0  0  0  0  0  0  0  0  0  0  0
  120.1731  104.3902  106.2880 C   0  0  0  0  0  0  0  0  0  0  0  0
  123.4379  104.6952  106.7620 C   0  0  0  0  0  0  0  0  0  0  0  0
  122.2011  105.1143  107.5484 C   0  0  0  0  0  0  0  0  0  0  0  0
  124.6134  105.6381  106.9806 C   0  0  0  0  0  0  0  0  0  0  0  0
  120.3349  105.4195  105.4267 N   0  0  0  0  0  0  0  0  0  0  0  0
  123.3087  106.9712  105.0907 N   0  0  0  0  0  0  0  0  0  0  0  0
  121.0838  104.2381  107.3263 N   0  0  0  0  0  0  0  0  0  0  0  0
  123.3197  107.8457  107.5098 O   0  0  0  0  0  0  0  0  0  0  0  0
  125.4367  107.9696  106.1356 O   0  0  0  0  0  0  0  0  0  0  0  0
  124.2077  107.2888  106.5041 S   0  0  0  0  0  0  0  0  0  0  0  0
  117.1377  104.8672  102.8496 Br  0  0  0  0  0  0  0  0  0  0  0  0
  117.4130  102.8864  105.0846 H   0  0  0  0  0  0  0  0  0  0  0  0
  119.0497  102.6501  106.9173 H   0  0  0  0  0  0  0  0  0  0  0  0
  119.5820  106.3584  103.7620 H   0  0  0  0  0  0  0  0  0  0  0  0
  123.1863  104.6728  105.6946 H   0  0  0  0  0  0  0  0  0  0  0  0
  123.7285  103.6736  107.0369 H   0  0  0  0  0  0  0  0  0  0  0  0
  122.4051  105.1300  108.6238 H   0  0  0  0  0  0  0  0  0  0  0  0
  121.8850  106.1173  107.2454 H   0  0  0  0  0  0  0  0  0  0  0  0
  124.9030  105.6747  108.0350 H   0  0  0  0  0  0  0  0  0  0  0  0
  125.4831  105.3448  106.3854 H   0  0  0  0  0  0  0  0  0  0  0  0
  122.2939  107.1284  105.1238 H   0  0  0  0  0  0  0  0  0  0  0  0
  123.7358  107.2126  104.1880 H   0  0  0  0  0  0  0  0  0  0  0  0
  120.9469  103.4572  107.9634 H   0  0  0  0  0  0  0  0  0  0  0  0
  1  2  1  0  0  0  0
  1  4  2  0  0  0  0
  2  5  2  0  0  0  0
  3  4  1  0  0  0  0
  3  9  2  0  0  0  0
  4 15  1  0  0  0  0
  5  9  1  0  0  0  0
  5 11  1  0  0  0  0
  6  7  1  0  0  0  0
  6  8  1  0  0  0  0
  7 11  1  0  0  0  0
  8 14  1  0  0  0  0
 10 14  1  0  0  0  0
 12 14  2  0  0  0  0
 13 14  2  0  0  0  0
  1 16  1  0  0  0  0
  2 17  1  0  0  0  0
  3 18  1  0  0  0  0
  6 19  1  0  0  0  0
  6 20  1  0  0  0  0
  7 21  1  0  0  0  0
  7 22  1  0  0  0  0
  8 23  1  0  0  0  0
  8 24  1  0  0  0  0
 10 25  1  0  0  0  0
 10 26  1  0  0  0  0
 11 27  1  0  0  0  0
M  END
> <FRED Chemgauss4 score>
-9.349321

$$$$
C94719907	P148464092
  -OEChem-05182014473D

 39 40  0     1  0  0  0  0  0999 V2000
  118.2464  103.9868  103.8130 C   0  0  0  0  0  0  0  0  0  0  0  0
  120.6425  104.2703  103.9367 C   0  0  0  0  0  0  0  0  0  0  0  0
  119.3275  104.2068  105.9624 C   0  0  0  0  0  0  0  0  0  0  0  0
  119.4834  104.1025  103.1790 C   0  0  0  0  0  0  0  0  0  0  0  0
  118.1684  104.0390  105.2047 C   0  0  0  0  0  0  0  0  0  0  0  0
  120.5645  104.3224  105.3284 C   0  0  0  0  0  0  0  0  0  0  0  0
  123.3050  107.9121  108.6987 C   0  0  0  0  0  0  0  0  0  0  0  0
  123.9355  108.6138  107.4936 C   0  0  0  0  0  0  0  0  0  0  0  0
  123.4322  106.4068  108.4447 C   0  0  0  0  0  0  0  0  0  0  0  0
  124.6593  107.5067  106.7283 C   0  0  1  0  0  0  0  0  0  0  0  0
  123.7901  106.2699  106.9668 C   0  0  2  0  0  0  0  0  0  0  0  0
  119.5663  104.0463  101.6909 C   0  0  0  0  0  0  0  0  0  0  0  0
  116.8460  103.9149  105.8832 C   0  0  0  0  0  0  0  0  0  0  0  0
  121.8092  104.5026  106.1416 C   0  0  0  0  0  0  0  0  0  0  0  0
  124.9211  107.8528  105.3414 N   0  0  0  0  0  0  0  0  0  0  0  0
  122.7181  106.3967  104.5862 O   0  0  0  0  0  0  0  0  0  0  0  0
  121.3181  107.0307  106.5887 O   0  0  0  0  0  0  0  0  0  0  0  0
  122.3281  106.1932  105.9690 S   0  0  0  0  0  0  0  0  0  0  0  0
  117.3424  103.8564  103.2228 H   0  0  0  0  0  0  0  0  0  0  0  0
  121.6070  104.3605  103.4422 H   0  0  0  0  0  0  0  0  0  0  0  0
  119.2670  104.2475  107.0474 H   0  0  0  0  0  0  0  0  0  0  0  0
  123.8120  108.1885  109.6295 H   0  0  0  0  0  0  0  0  0  0  0  0
  122.2542  108.2055  108.7994 H   0  0  0  0  0  0  0  0  0  0  0  0
  123.1478  109.0759  106.8859 H   0  0  0  0  0  0  0  0  0  0  0  0
  124.6185  109.4133  107.7999 H   0  0  0  0  0  0  0  0  0  0  0  0
  124.2517  106.0111  109.0575 H   0  0  0  0  0  0  0  0  0  0  0  0
  122.5212  105.8699  108.7274 H   0  0  0  0  0  0  0  0  0  0  0  0
  125.6304  107.3403  107.2137 H   0  0  0  0  0  0  0  0  0  0  0  0
  124.3366  105.3424  106.7674 H   0  0  0  0  0  0  0  0  0  0  0  0
  119.4689  105.0523  101.2647 H   0  0  0  0  0  0  0  0  0  0  0  0
  120.5223  103.6196  101.3609 H   0  0  0  0  0  0  0  0  0  0  0  0
  118.7740  103.4124  101.2715 H   0  0  0  0  0  0  0  0  0  0  0  0
  116.6262  102.8628  106.1019 H   0  0  0  0  0  0  0  0  0  0  0  0
  116.8275  104.4775  106.8257 H   0  0  0  0  0  0  0  0  0  0  0  0
  116.0382  104.3166  105.2577 H   0  0  0  0  0  0  0  0  0  0  0  0
  122.6224  103.8593  105.7941 H   0  0  0  0  0  0  0  0  0  0  0  0
  121.6370  104.3058  107.2035 H   0  0  0  0  0  0  0  0  0  0  0  0
  125.0719  107.1123  104.6860 H   0  0  0  0  0  0  0  0  0  0  0  0
  125.1438  108.8031  105.1217 H   0  0  0  0  0  0  0  0  0  0  0  0
  1  4  2  0  0  0  0
  1  5  1  0  0  0  0
  2  4  1  0  0  0  0
  2  6  2  0  0  0  0
  3  5  2  0  0  0  0
  3  6  1  0  0  0  0
  4 12  1  0  0  0  0
  5 13  1  0  0  0  0
  6 14  1  0  0  0  0
  7  8  1  0  0  0  0
  7  9  1  0  0  0  0
  8 10  1  0  0  0  0
  9 11  1  0  0  0  0
 10 11  1  0  0  0  0
 10 15  1  0  0  0  0
 11 18  1  0  0  0  0
 14 18  1  0  0  0  0
 16 18  2  0  0  0  0
 17 18  2  0  0  0  0
  1 19  1  0  0  0  0
  2 20  1  0  0  0  0
  3 21  1  0  0  0  0
  7 22  1  0  0  0  0
  7 23  1  0  0  0  0
  8 24  1  0  0  0  0
  8 25  1  0  0  0  0
  9 26  1  0  0  0  0
  9 27  1  0  0  0  0
 10 28  1  0  0  0  0
 11 29  1  0  0  0  0
 12 30  1  0  0  0  0
 12 31  1  0  0  0  0
 12 32  1  0  0  0  0
 13 33  1  0  0  0  0
 13 34  1  0  0  0  0
 13 35  1  0  0  0  0
 14 36  1  0  0  0  0
 14 37  1  0  0  0  0
 15 38  1  0  0  0  0
 15 39  1  0  0  0  0
M  END
> <FRED Chemgauss4 score>
-9.334085

$$$$
C89483857	P139880504
  -OEChem-05182014473D

 41 43  0     1  0  0  0  0  0999 V2000
  116.3364  104.1595  104.5091 C   0  0  0  0  0  0  0  0  0  0  0  0
  117.3050  104.9743  103.9199 C   0  0  0  0  0  0  0  0  0  0  0  0
  117.7393  103.8464  106.4508 C   0  0  0  0  0  0  0  0  0  0  0  0
  120.0259  105.0613  106.3858 C   0  0  0  0  0  0  0  0  0  0  0  0
  118.7412  104.6683  105.8804 C   0  0  0  0  0  0  0  0  0  0  0  0
  116.5490  103.6005  105.7612 C   0  0  0  0  0  0  0  0  0  0  0  0
  118.5038  105.2203  104.6178 C   0  0  0  0  0  0  0  0  0  0  0  0
  120.7140  105.8785  105.5208 C   0  0  0  0  0  0  0  0  0  0  0  0
  122.0604  106.4843  105.6864 C   0  0  0  0  0  0  0  0  0  0  0  0
  126.2197  103.7769  108.0901 C   0  0  0  0  0  0  0  0  0  0  0  0
  124.9838  104.3767  107.4178 C   0  0  0  0  0  0  0  0  0  0  0  0
  126.7807  104.8621  109.0074 C   0  0  0  0  0  0  0  0  0  0  0  0
  124.7794  105.7446  108.0743 C   0  0  1  0  0  0  0  0  0  0  0  0
  126.1954  106.1772  108.4864 C   0  0  2  0  0  0  0  0  0  0  0  0
  124.0197  106.7208  107.1902 C   0  0  0  0  0  0  0  0  0  0  0  0
  127.0458  106.7585  107.3565 C   0  0  0  0  0  0  0  0  0  0  0  0
  115.5603  102.7785  106.3429 N   0  0  0  0  0  0  0  0  0  0  0  0
  122.7316  106.1947  106.8758 N   0  0  0  0  0  0  0  0  0  0  0  0
  122.5042  107.2114  104.8017 O   0  0  0  0  0  0  0  0  0  0  0  0
  127.0945  105.8156  106.3028 O   0  0  0  0  0  0  0  0  0  0  0  0
  119.8330  106.1860  104.0944 S   0  0  0  0  0  0  0  0  0  0  0  0
  115.4108  103.9689  103.9705 H   0  0  0  0  0  0  0  0  0  0  0  0
  117.1302  105.4075  102.9392 H   0  0  0  0  0  0  0  0  0  0  0  0
  117.9024  103.4061  107.4322 H   0  0  0  0  0  0  0  0  0  0  0  0
  120.4182  104.7507  107.3469 H   0  0  0  0  0  0  0  0  0  0  0  0
  125.9723  102.8742  108.6584 H   0  0  0  0  0  0  0  0  0  0  0  0
  126.9576  103.4931  107.3313 H   0  0  0  0  0  0  0  0  0  0  0  0
  125.1602  104.4723  106.3398 H   0  0  0  0  0  0  0  0  0  0  0  0
  124.1051  103.7360  107.5476 H   0  0  0  0  0  0  0  0  0  0  0  0
  126.4274  104.6849  110.0311 H   0  0  0  0  0  0  0  0  0  0  0  0
  127.8748  104.8542  109.0333 H   0  0  0  0  0  0  0  0  0  0  0  0
  124.1923  105.5961  108.9919 H   0  0  0  0  0  0  0  0  0  0  0  0
  126.1495  106.9168  109.2945 H   0  0  0  0  0  0  0  0  0  0  0  0
  124.5748  106.8717  106.2713 H   0  0  0  0  0  0  0  0  0  0  0  0
  123.8993  107.6611  107.7155 H   0  0  0  0  0  0  0  0  0  0  0  0
  128.0550  106.9521  107.7167 H   0  0  0  0  0  0  0  0  0  0  0  0
  126.5975  107.6828  106.9955 H   0  0  0  0  0  0  0  0  0  0  0  0
  114.6934  102.6458  105.8635 H   0  0  0  0  0  0  0  0  0  0  0  0
  115.7056  102.4204  107.2648 H   0  0  0  0  0  0  0  0  0  0  0  0
  122.2576  105.6289  107.5847 H   0  0  0  0  0  0  0  0  0  0  0  0
  127.6386  106.2036  105.5959 H   0  0  0  0  0  0  0  0  0  0  0  0
  1  2  1  0  0  0  0
  1  6  2  0  0  0  0
  2  7  2  0  0  0  0
  3  5  2  0  0  0  0
  3  6  1  0  0  0  0
  4  5  1  0  0  0  0
  4  8  2  0  0  0  0
  5  7  1  0  0  0  0
  6 17  1  0  0  0  0
  7 21  1  0  0  0  0
  8  9  1  0  0  0  0
  8 21  1  0  0  0  0
  9 18  1  0  0  0  0
  9 19  2  0  0  0  0
 10 11  1  0  0  0  0
 10 12  1  0  0  0  0
 11 13  1  0  0  0  0
 12 14  1  0  0  0  0
 13 14  1  0  0  0  0
 13 15  1  0  0  0  0
 14 16  1  0  0  0  0
 15 18  1  0  0  0  0
 16 20  1  0  0  0  0
  1 22  1  0  0  0  0
  2 23  1  0  0  0  0
  3 24  1  0  0  0  0
  4 25  1  0  0  0  0
 10 26  1  0  0  0  0
 10 27  1  0  0  0  0
 11 28  1  0  0  0  0
 11 29  1  0  0  0  0
 12 30  1  0  0  0  0
 12 31  1  0  0  0  0
 13 32  1  0  0  0  0
 14 33  1  0  0  0  0
 15 34  1  0  0  0  0
 15 35  1  0  0  0  0
 16 36  1  0  0  0  0
 16 37  1  0  0  0  0
 17 38  1  0  0  0  0
 17 39  1  0  0  0  0
 18 40  1  0  0  0  0
 20 41  1  0  0  0  0
M  END
> <FRED Chemgauss4 score>
-9.307034

$$$$
C06184878	P09576514
  -OEChem-05182014473D

 35 35  0     1  0  0  0  0  0999 V2000
  124.9676  106.7861  105.6779 C   0  0  1  0  0  0  0  0  0  0  0  0
  125.7470  106.8616  106.9959 C   0  0  2  0  0  0  0  0  0  0  0  0
  123.4960  106.4380  105.9096 C   0  0  1  0  0  0  0  0  0  0  0  0
  125.5083  105.5837  107.8146 C   0  0  1  0  0  0  0  0  0  0  0  0
  123.3989  105.1776  106.7722 C   0  0  1  0  0  0  0  0  0  0  0  0
  126.1496  105.6317  109.1962 C   0  0  0  0  0  0  0  0  0  0  0  0
  119.1700  105.1824  106.5341 C   0  0  0  0  0  0  0  0  0  0  0  0
  121.4223  104.2472  105.9061 C   0  0  0  0  0  0  0  0  0  0  0  0
  119.9671  103.9222  106.2234 C   0  0  2  0  0  0  0  0  0  0  0  0
  124.1028  105.3614  108.0036 O   0  0  0  0  0  0  0  0  0  0  0  0
  125.0954  108.0102  104.9653 O   0  0  0  0  0  0  0  0  0  0  0  0
  125.3217  108.0095  107.7304 O   0  0  0  0  0  0  0  0  0  0  0  0
  122.8454  107.5215  106.5763 O   0  0  0  0  0  0  0  0  0  0  0  0
  125.6075  106.7294  109.9086 O   0  0  0  0  0  0  0  0  0  0  0  0
  119.2334  106.0574  105.4128 O   0  0  0  0  0  0  0  0  0  0  0  0
  119.3769  103.2974  105.0812 O   0  0  0  0  0  0  0  0  0  0  0  0
  122.0238  104.8976  107.0160 O   0  0  0  0  0  0  0  0  0  0  0  0
  125.4196  106.0022  105.0568 H   0  0  0  0  0  0  0  0  0  0  0  0
  126.8137  106.9984  106.7835 H   0  0  0  0  0  0  0  0  0  0  0  0
  122.9741  106.3055  104.9554 H   0  0  0  0  0  0  0  0  0  0  0  0
  125.9227  104.7217  107.2757 H   0  0  0  0  0  0  0  0  0  0  0  0
  123.8246  104.3192  106.2375 H   0  0  0  0  0  0  0  0  0  0  0  0
  127.2284  105.7615  109.1031 H   0  0  0  0  0  0  0  0  0  0  0  0
  125.9367  104.7104  109.7395 H   0  0  0  0  0  0  0  0  0  0  0  0
  119.5857  105.7120  107.3978 H   0  0  0  0  0  0  0  0  0  0  0  0
  118.1176  104.9470  106.7211 H   0  0  0  0  0  0  0  0  0  0  0  0
  121.5074  104.9092  105.0387 H   0  0  0  0  0  0  0  0  0  0  0  0
  121.9969  103.3358  105.7127 H   0  0  0  0  0  0  0  0  0  0  0  0
  119.8922  103.2054  107.0489 H   0  0  0  0  0  0  0  0  0  0  0  0
  126.0425  108.1364  104.7946 H   0  0  0  0  0  0  0  0  0  0  0  0
  125.8378  108.0164  108.5506 H   0  0  0  0  0  0  0  0  0  0  0  0
  122.9316  108.2909  105.9941 H   0  0  0  0  0  0  0  0  0  0  0  0
  126.0311  106.7385  110.7837 H   0  0  0  0  0  0  0  0  0  0  0  0
  118.7172  106.8452  105.6458 H   0  0  0  0  0  0  0  0  0  0  0  0
  119.4307  103.9421  104.3604 H   0  0  0  0  0  0  0  0  0  0  0  0
  1  2  1  0  0  0  0
  1  3  1  0  0  0  0
  1 11  1  0  0  0  0
  2  4  1  0  0  0  0
  2 12  1  0  0  0  0
  3  5  1  0  0  0  0
  3 13  1  0  0  0  0
  4  6  1  0  0  0  0
  4 10  1  0  0  0  0
  5 10  1  0  0  0  0
  5 17  1  0  0  0  0
  6 14  1  0  0  0  0
  7  9  1  0  0  0  0
  7 15  1  0  0  0  0
  8  9  1  0  0  0  0
  8 17  1  0  0  0  0
  9 16  1  0  0  0  0
  1 18  1  0  0  0  0
  2 19  1  0  0  0  0
  3 20  1  0  0  0  0
  4 21  1  0  0  0  0
  5 22  1  0  0  0  0
  6 23  1  0  0  0  0
  6 24  1  0  0  0  0
  7 25  1  0  0  0  0
  7 26  1  0  0  0  0
  8 27  1  0  0  0  0
  8 28  1  0  0  0  0
  9 29  1  0  0  0  0
 11 30  1  0  0  0  0
 12 31  1  0  0  0  0
 13 32  1  0  0  0  0
 14 33  1  0  0  0  0
 15 34  1  0  0  0  0
 16 35  1  0  0  0  0
M  END
> <FRED Chemgauss4 score>
-9.298438

$$$$
C80443901	P125616329
  -OEChem-05182014473D

 35 36  0     1  0  0  0  0  0999 V2000
  116.8337  103.0685  105.2985 C   0  0  0  0  0  0  0  0  0  0  0  0
  116.5227  103.5112  103.9469 C   0  0  0  0  0  0  0  0  0  0  0  0
  117.8925  103.5448  105.9749 C   0  0  0  0  0  0  0  0  0  0  0  0
  117.2580  104.4166  103.2785 C   0  0  0  0  0  0  0  0  0  0  0  0
  118.7307  104.5135  105.3386 C   0  0  0  0  0  0  0  0  0  0  0  0
  119.8346  105.1929  105.6818 C   0  0  0  0  0  0  0  0  0  0  0  0
  118.4300  104.9726  103.9692 C   0  0  0  0  0  0  0  0  0  0  0  0
  122.0063  104.6550  106.6782 C   0  0  0  0  0  0  0  0  0  0  0  0
  124.7625  107.5327  105.5415 C   0  0  0  0  0  0  0  0  0  0  0  0
  124.8576  104.5913  108.1177 C   0  0  0  0  0  0  0  0  0  0  0  0
  120.2848  106.1031  104.5672 C   0  0  0  0  0  0  0  0  0  0  0  0
  120.5957  105.1370  106.9578 C   0  0  0  0  0  0  0  0  0  0  0  0
  125.1645  106.6411  106.7231 C   0  0  0  0  0  0  0  0  0  0  0  0
  124.3898  105.3389  106.8842 C   0  0  2  0  0  0  0  0  0  0  0  0
  119.2654  105.8357  103.5373 N   0  3  0  0  0  0  0  0  0  0  0  0
  122.9734  105.5747  107.0499 N   0  0  0  0  0  0  0  0  0  0  0  0
  123.5709  107.9545  105.5953 O   0  5  0  0  0  0  0  0  0  0  0  0
  122.2307  103.5553  106.1754 O   0  0  0  0  0  0  0  0  0  0  0  0
  125.6429  107.7363  104.6616 O   0  0  0  0  0  0  0  0  0  0  0  0
  124.1453  103.9061  108.8401 O   0  0  0  0  0  0  0  0  0  0  0  0
  126.1956  104.7248  108.3146 O   0  0  0  0  0  0  0  0  0  0  0  0
  116.1756  102.3329  105.7486 H   0  0  0  0  0  0  0  0  0  0  0  0
  115.6475  103.0722  103.4782 H   0  0  0  0  0  0  0  0  0  0  0  0
  118.1141  103.2082  106.9803 H   0  0  0  0  0  0  0  0  0  0  0  0
  117.0137  104.7359  102.2734 H   0  0  0  0  0  0  0  0  0  0  0  0
  120.2349  107.1612  104.8360 H   0  0  0  0  0  0  0  0  0  0  0  0
  121.2633  105.8305  104.1641 H   0  0  0  0  0  0  0  0  0  0  0  0
  120.1295  104.4278  107.6496 H   0  0  0  0  0  0  0  0  0  0  0  0
  120.5897  106.1232  107.4314 H   0  0  0  0  0  0  0  0  0  0  0  0
  125.0458  107.2514  107.6280 H   0  0  0  0  0  0  0  0  0  0  0  0
  126.2376  106.4248  106.6317 H   0  0  0  0  0  0  0  0  0  0  0  0
  124.4870  104.6864  106.0100 H   0  0  0  0  0  0  0  0  0  0  0  0
  119.1943  106.2502  102.6073 H   0  0  0  0  0  0  0  0  0  0  0  0
  122.6734  106.4549  107.4575 H   0  0  0  0  0  0  0  0  0  0  0  0
  126.5567  104.2309  109.0816 H   0  0  0  0  0  0  0  0  0  0  0  0
  1  2  1  0  0  0  0
  1  3  2  0  0  0  0
  2  4  2  0  0  0  0
  3  5  1  0  0  0  0
  4  7  1  0  0  0  0
  5  6  2  0  0  0  0
  5  7  1  0  0  0  0
  6 11  1  0  0  0  0
  6 12  1  0  0  0  0
  7 15  2  0  0  0  0
  8 12  1  0  0  0  0
  8 16  1  0  0  0  0
  8 18  2  0  0  0  0
  9 13  1  0  0  0  0
  9 17  1  0  0  0  0
  9 19  2  0  0  0  0
 10 14  1  0  0  0  0
 10 20  2  0  0  0  0
 10 21  1  0  0  0  0
 11 15  1  0  0  0  0
 13 14  1  0  0  0  0
 14 16  1  0  0  0  0
  1 22  1  0  0  0  0
  2 23  1  0  0  0  0
  3 24  1  0  0  0  0
  4 25  1  0  0  0  0
 11 26  1  0  0  0  0
 11 27  1  0  0  0  0
 12 28  1  0  0  0  0
 12 29  1  0  0  0  0
 13 30  1  0  0  0  0
 13 31  1  0  0  0  0
 14 32  1  0  0  0  0
 15 33  1  0  0  0  0
 16 34  1  0  0  0  0
 21 35  1  0  0  0  0
M  CHG  2  15   1  17  -1
M  END
> <FRED Chemgauss4 score>
-9.253944

$$$$
C35423264	P52560422
  -OEChem-05182014473D

 39 39  0     1  0  0  0  0  0999 V2000
  119.3620  104.5071  105.1795 C   0  0  0  0  0  0  0  0  0  0  0  0
  124.1212  107.0832  105.6432 C   0  0  0  0  0  0  0  0  0  0  0  0
  116.9139  105.5055  103.7082 C   0  0  0  0  0  0  0  0  0  0  0  0
  115.8294  104.4860  104.0482 C   0  0  0  0  0  0  0  0  0  0  0  0
  116.1852  106.4225  105.8556 C   0  0  0  0  0  0  0  0  0  0  0  0
  117.4427  106.0680  105.0433 C   0  0  2  0  0  0  0  0  0  0  0  0
  118.3145  107.3019  104.8142 C   0  0  0  0  0  0  0  0  0  0  0  0
  119.9880  103.4937  106.1043 C   0  0  0  0  0  0  0  0  0  0  0  0
  124.3492  105.9291  106.6249 C   0  0  0  0  0  0  0  0  0  0  0  0
  123.1061  105.3414  107.2862 C   0  0  0  0  0  0  0  0  0  0  0  0
  122.1615  104.7133  106.2697 C   0  0  0  0  0  0  0  0  0  0  0  0
  118.2266  105.0623  105.7389 N   0  0  0  0  0  0  0  0  0  0  0  0
  121.0012  104.1184  106.9882 N   0  3  0  0  0  0  0  0  0  0  0  0
  125.1843  107.5941  105.1865 O   0  5  0  0  0  0  0  0  0  0  0  0
  119.8218  104.7869  104.0756 O   0  0  0  0  0  0  0  0  0  0  0  0
  122.9207  107.3979  105.4163 O   0  0  0  0  0  0  0  0  0  0  0  0
  114.9713  104.1713  106.5173 O   0  0  0  0  0  0  0  0  0  0  0  0
  113.7631  105.8117  105.0066 O   0  0  0  0  0  0  0  0  0  0  0  0
  114.9751  105.1627  105.4616 S   0  0  0  0  0  0  0  0  0  0  0  0
  117.7043  105.0442  103.1060 H   0  0  0  0  0  0  0  0  0  0  0  0
  116.4713  106.3133  103.1111 H   0  0  0  0  0  0  0  0  0  0  0  0
  115.1249  104.3393  103.2268 H   0  0  0  0  0  0  0  0  0  0  0  0
  116.2632  103.5259  104.3417 H   0  0  0  0  0  0  0  0  0  0  0  0
  116.3539  106.4316  106.9358 H   0  0  0  0  0  0  0  0  0  0  0  0
  115.7579  107.3802  105.5399 H   0  0  0  0  0  0  0  0  0  0  0  0
  118.6750  107.6796  105.7690 H   0  0  0  0  0  0  0  0  0  0  0  0
  117.7319  108.0767  104.3198 H   0  0  0  0  0  0  0  0  0  0  0  0
  119.1655  107.0396  104.1886 H   0  0  0  0  0  0  0  0  0  0  0  0
  120.5007  102.7169  105.5301 H   0  0  0  0  0  0  0  0  0  0  0  0
  119.2277  103.0491  106.7524 H   0  0  0  0  0  0  0  0  0  0  0  0
  124.9023  105.1313  106.1137 H   0  0  0  0  0  0  0  0  0  0  0  0
  125.0092  106.3189  107.4102 H   0  0  0  0  0  0  0  0  0  0  0  0
  122.5808  106.1131  107.8620 H   0  0  0  0  0  0  0  0  0  0  0  0
  123.4240  104.5763  108.0058 H   0  0  0  0  0  0  0  0  0  0  0  0
  122.6397  103.9008  105.7148 H   0  0  0  0  0  0  0  0  0  0  0  0
  121.7537  105.4462  105.5683 H   0  0  0  0  0  0  0  0  0  0  0  0
  117.9024  104.7566  106.6475 H   0  0  0  0  0  0  0  0  0  0  0  0
  120.5519  104.8494  107.5593 H   0  0  0  0  0  0  0  0  0  0  0  0
  121.3479  103.4171  107.6592 H   0  0  0  0  0  0  0  0  0  0  0  0
  1  8  1  0  0  0  0
  1 12  1  0  0  0  0
  1 15  2  0  0  0  0
  2  9  1  0  0  0  0
  2 14  1  0  0  0  0
  2 16  2  0  0  0  0
  3  4  1  0  0  0  0
  3  6  1  0  0  0  0
  4 19  1  0  0  0  0
  5  6  1  0  0  0  0
  5 19  1  0  0  0  0
  6  7  1  0  0  0  0
  6 12  1  0  0  0  0
  8 13  1  0  0  0  0
  9 10  1  0  0  0  0
 10 11  1  0  0  0  0
 11 13  1  0  0  0  0
 17 19  2  0  0  0  0
 18 19  2  0  0  0  0
  3 20  1  0  0  0  0
  3 21  1  0  0  0  0
  4 22  1  0  0  0  0
  4 23  1  0  0  0  0
  5 24  1  0  0  0  0
  5 25  1  0  0  0  0
  7 26  1  0  0  0  0
  7 27  1  0  0  0  0
  7 28  1  0  0  0  0
  8 29  1  0  0  0  0
  8 30  1  0  0  0  0
  9 31  1  0  0  0  0
  9 32  1  0  0  0  0
 10 33  1  0  0  0  0
 10 34  1  0  0  0  0
 11 35  1  0  0  0  0
 11 36  1  0  0  0  0
 12 37  1  0  0  0  0
 13 38  1  0  0  0  0
 13 39  1  0  0  0  0
M  CHG  2  13   1  14  -1
M  END
> <FRED Chemgauss4 score>
-9.253397

$$$$
C87395422	P136731529
  -OEChem-05182014473D

 25 26  0     1  0  0  0  0  0999 V2000
  120.5869  105.5885  106.3999 C   0  0  0  0  0  0  0  0  0  0  0  0
  125.7027  104.0069  108.6108 C   0  0  0  0  0  0  0  0  0  0  0  0
  120.6986  106.3525  105.2571 C   0  0  0  0  0  0  0  0  0  0  0  0
  125.4090  105.6274  107.3283 C   0  0  0  0  0  0  0  0  0  0  0  0
  122.6047  106.8889  106.1999 C   0  0  0  0  0  0  0  0  0  0  0  0
  119.7000  106.4327  104.1727 C   0  0  0  0  0  0  0  0  0  0  0  0
  123.9524  107.5323  106.4351 C   0  0  0  0  0  0  0  0  0  0  0  0
  125.1373  106.5759  106.1731 C   0  0  1  0  0  0  0  0  0  0  0  0
  125.3884  104.3148  107.3181 N   0  0  0  0  0  0  0  0  0  0  0  0
  125.9165  105.0465  109.4202 N   0  0  0  0  0  0  0  0  0  0  0  0
  121.8548  107.0991  105.1409 N   0  0  0  0  0  0  0  0  0  0  0  0
  125.7225  106.0706  108.5754 N   0  0  0  0  0  0  0  0  0  0  0  0
  126.3361  107.3591  105.8444 N   0  0  0  0  0  0  0  0  0  0  0  0
  121.9813  105.8046  107.3749 S   0  0  0  0  0  0  0  0  0  0  0  0
  119.7816  104.9338  106.7017 H   0  0  0  0  0  0  0  0  0  0  0  0
  125.7784  102.9931  108.9745 H   0  0  0  0  0  0  0  0  0  0  0  0
  118.9732  107.2395  104.3612 H   0  0  0  0  0  0  0  0  0  0  0  0
  120.1685  106.6256  103.1926 H   0  0  0  0  0  0  0  0  0  0  0  0
  119.1350  105.4916  104.0605 H   0  0  0  0  0  0  0  0  0  0  0  0
  123.9771  107.8790  107.4777 H   0  0  0  0  0  0  0  0  0  0  0  0
  124.0384  108.4411  105.8250 H   0  0  0  0  0  0  0  0  0  0  0  0
  124.9093  105.9773  105.2819 H   0  0  0  0  0  0  0  0  0  0  0  0
  125.8198  107.0195  108.9172 H   0  0  0  0  0  0  0  0  0  0  0  0
  126.2090  108.2069  105.3438 H   0  0  0  0  0  0  0  0  0  0  0  0
  127.2185  106.9167  105.9521 H   0  0  0  0  0  0  0  0  0  0  0  0
  1  3  2  0  0  0  0
  1 14  1  0  0  0  0
  2  9  1  0  0  0  0
  2 10  2  0  0  0  0
  3  6  1  0  0  0  0
  3 11  1  0  0  0  0
  4  8  1  0  0  0  0
  4  9  2  0  0  0  0
  4 12  1  0  0  0  0
  5  7  1  0  0  0  0
  5 11  2  0  0  0  0
  5 14  1  0  0  0  0
  7  8  1  0  0  0  0
  8 13  1  0  0  0  0
 10 12  1  0  0  0  0
  1 15  1  0  0  0  0
  2 16  1  0  0  0  0
  6 17  1  0  0  0  0
  6 18  1  0  0  0  0
  6 19  1  0  0  0  0
  7 20  1  0  0  0  0
  7 21  1  0  0  0  0
  8 22  1  0  0  0  0
 12 23  1  0  0  0  0
 13 24  1  0  0  0  0
 13 25  1  0  0  0  0
M  END
> <FRED Chemgauss4 score>
-9.243820

$$$$
L-Glutamine	P10000020
  -OEChem-05182014473D

 20 19  0     1  0  0  0  0  0999 V2000
  125.0487  104.2393  109.0411 C   0  0  0  0  0  0  0  0  0  0  0  0
  125.0123  107.4819  105.8693 C   0  0  0  0  0  0  0  0  0  0  0  0
  125.1318  103.9607  107.5527 C   0  0  0  0  0  0  0  0  0  0  0  0
  124.5321  105.0922  106.7150 C   0  0  0  0  0  0  0  0  0  0  0  0
  125.2267  106.4332  106.9718 C   0  0  2  0  0  0  0  0  0  0  0  0
  126.2912  104.2726  109.6374 N   0  0  0  0  0  0  0  0  0  0  0  0
  124.7339  106.9292  108.2966 N   0  3  0  0  0  0  0  0  0  0  0  0
  123.8119  107.7602  105.5945 O   0  5  0  0  0  0  0  0  0  0  0  0
  123.9965  104.4175  109.6476 O   0  0  0  0  0  0  0  0  0  0  0  0
  126.0782  107.9299  105.3575 O   0  0  0  0  0  0  0  0  0  0  0  0
  126.1866  103.8094  107.2969 H   0  0  0  0  0  0  0  0  0  0  0  0
  124.5984  103.0241  107.3504 H   0  0  0  0  0  0  0  0  0  0  0  0
  124.6236  104.8294  105.6525 H   0  0  0  0  0  0  0  0  0  0  0  0
  123.4559  105.1686  106.9180 H   0  0  0  0  0  0  0  0  0  0  0  0
  126.3019  106.2671  107.1097 H   0  0  0  0  0  0  0  0  0  0  0  0
  127.1135  104.1167  109.0640 H   0  0  0  0  0  0  0  0  0  0  0  0
  126.4124  104.4475  110.6299 H   0  0  0  0  0  0  0  0  0  0  0  0
  124.8782  107.9366  108.3717 H   0  0  0  0  0  0  0  0  0  0  0  0
  125.2386  106.4684  109.0548 H   0  0  0  0  0  0  0  0  0  0  0  0
  123.7377  106.7320  108.3984 H   0  0  0  0  0  0  0  0  0  0  0  0
  1  3  1  0  0  0  0
  1  6  1  0  0  0  0
  1  9  2  0  0  0  0
  2  5  1  0  0  0  0
  2  8  1  0  0  0  0
  2 10  2  0  0  0  0
  3  4  1  0  0  0  0
  4  5  1  0  0  0  0
  5  7  1  0  0  0  0
  3 11  1  0  0  0  0
  3 12  1  0  0  0  0
  4 13  1  0  0  0  0
  4 14  1  0  0  0  0
  5 15  1  0  0  0  0
  6 16  1  0  0  0  0
  6 17  1  0  0  0  0
  7 18  1  0  0  0  0
  7 19  1  0  0  0  0
  7 20  1  0  0  0  0
M  CHG  2   7   1   8  -1
M  END
> <FRED Chemgauss4 score>
-9.217514

$$$$
C37438702	P55668415
  -OEChem-05182014473D

 37 39  0     1  0  0  0  0  0999 V2000
  119.8063  103.9091  105.3808 C   0  0  0  0  0  0  0  0  0  0  0  0
  120.9618  104.0314  106.1596 C   0  0  0  0  0  0  0  0  0  0  0  0
  120.2404  106.0330  104.2723 C   0  0  0  0  0  0  0  0  0  0  0  0
  119.4501  104.8909  104.4534 C   0  0  0  0  0  0  0  0  0  0  0  0
  121.4047  106.1723  105.0464 C   0  0  0  0  0  0  0  0  0  0  0  0
  121.7335  105.1769  105.9624 C   0  0  0  0  0  0  0  0  0  0  0  0
  123.2212  106.8145  105.9671 C   0  0  0  0  0  0  0  0  0  0  0  0
  125.1475  104.5784  107.3943 C   0  0  0  0  0  0  0  0  0  0  0  0
  124.1410  103.4709  107.3901 C   0  0  0  0  0  0  0  0  0  0  0  0
  123.6857  104.8949  107.6074 C   0  0  0  0  0  0  0  0  0  0  0  0
  118.2084  104.7223  103.6416 C   0  0  0  0  0  0  0  0  0  0  0  0
  123.3066  108.9569  108.2689 C   0  0  0  0  0  0  0  0  0  0  0  0
  124.4284  107.5727  106.3557 C   0  0  2  0  0  0  0  0  0  0  0  0
  124.0974  108.9770  106.9624 C   0  0  2  0  0  0  0  0  0  0  0  0
  122.3403  107.1811  105.0633 N   0  0  0  0  0  0  0  0  0  0  0  0
  122.8996  105.6140  106.5367 N   0  0  0  0  0  0  0  0  0  0  0  0
  125.3780  107.7175  105.2254 N   0  0  0  0  0  0  0  0  0  0  0  0
  125.3329  109.6510  107.2260 O   0  0  0  0  0  0  0  0  0  0  0  0
  119.1799  103.0287  105.5076 H   0  0  0  0  0  0  0  0  0  0  0  0
  121.2372  103.2686  106.8790 H   0  0  0  0  0  0  0  0  0  0  0  0
  119.9631  106.7959  103.5512 H   0  0  0  0  0  0  0  0  0  0  0  0
  125.8096  104.6563  108.2481 H   0  0  0  0  0  0  0  0  0  0  0  0
  125.6016  104.8491  106.4487 H   0  0  0  0  0  0  0  0  0  0  0  0
  123.9186  102.9963  106.4422 H   0  0  0  0  0  0  0  0  0  0  0  0
  124.1225  102.8019  108.2418 H   0  0  0  0  0  0  0  0  0  0  0  0
  123.3650  105.1830  108.5852 H   0  0  0  0  0  0  0  0  0  0  0  0
  117.3516  105.1683  104.1601 H   0  0  0  0  0  0  0  0  0  0  0  0
  118.3090  105.1994  102.6588 H   0  0  0  0  0  0  0  0  0  0  0  0
  117.9938  103.6615  103.4606 H   0  0  0  0  0  0  0  0  0  0  0  0
  123.8042  108.3602  109.0385 H   0  0  0  0  0  0  0  0  0  0  0  0
  122.2985  108.5583  108.1106 H   0  0  0  0  0  0  0  0  0  0  0  0
  123.1839  109.9752  108.6547 H   0  0  0  0  0  0  0  0  0  0  0  0
  124.9894  107.0232  107.1443 H   0  0  0  0  0  0  0  0  0  0  0  0
  123.5509  109.5875  106.2345 H   0  0  0  0  0  0  0  0  0  0  0  0
  125.4572  106.9520  104.6085 H   0  0  0  0  0  0  0  0  0  0  0  0
  126.0135  108.4705  105.2706 H   0  0  0  0  0  0  0  0  0  0  0  0
  125.0963  110.5415  107.5225 H   0  0  0  0  0  0  0  0  0  0  0  0
  1  2  2  0  0  0  0
  1  4  1  0  0  0  0
  2  6  1  0  0  0  0
  3  4  2  0  0  0  0
  3  5  1  0  0  0  0
  4 11  1  0  0  0  0
  5  6  2  0  0  0  0
  5 15  1  0  0  0  0
  6 16  1  0  0  0  0
  7 13  1  0  0  0  0
  7 15  2  0  0  0  0
  7 16  1  0  0  0  0
  8  9  1  0  0  0  0
  8 10  1  0  0  0  0
  9 10  1  0  0  0  0
 10 16  1  0  0  0  0
 12 14  1  0  0  0  0
 13 14  1  0  0  0  0
 13 17  1  0  0  0  0
 14 18  1  0  0  0  0
  1 19  1  0  0  0  0
  2 20  1  0  0  0  0
  3 21  1  0  0  0  0
  8 22  1  0  0  0  0
  8 23  1  0  0  0  0
  9 24  1  0  0  0  0
  9 25  1  0  0  0  0
 10 26  1  0  0  0  0
 11 27  1  0  0  0  0
 11 28  1  0  0  0  0
 11 29  1  0  0  0  0
 12 30  1  0  0  0  0
 12 31  1  0  0  0  0
 12 32  1  0  0  0  0
 13 33  1  0  0  0  0
 14 34  1  0  0  0  0
 17 35  1  0  0  0  0
 17 36  1  0  0  0  0
 18 37  1  0  0  0  0
M  END
> <FRED Chemgauss4 score>
-9.210574

$$$$
C82870303	P129537025
  -OEChem-05182014473D

 23 24  0     1  0  0  0  0  0999 V2000
  120.9974  104.0554  106.2765 C   0  0  0  0  0  0  0  0  0  0  0  0
  119.8533  104.0039  105.4883 C   0  0  0  0  0  0  0  0  0  0  0  0
  120.4678  105.7930  104.1157 C   0  0  0  0  0  0  0  0  0  0  0  0
  121.6526  105.9298  104.8469 C   0  0  0  0  0  0  0  0  0  0  0  0
  121.9167  105.0539  105.9338 C   0  0  0  0  0  0  0  0  0  0  0  0
  123.5754  106.4533  105.7265 C   0  0  0  0  0  0  0  0  0  0  0  0
  124.9227  107.8246  107.3459 C   0  0  0  0  0  0  0  0  0  0  0  0
  124.8445  107.1349  105.9653 C   0  0  2  0  0  0  0  0  0  0  0  0
  122.7052  106.7811  104.7525 N   0  5  0  0  0  0  0  0  0  0  0  0
  119.5726  104.8269  104.4428 N   0  0  0  0  0  0  0  0  0  0  0  0
  123.1198  105.4137  106.4509 N   0  0  0  0  0  0  0  0  0  0  0  0
  124.2466  109.1478  107.3163 N   0  3  0  0  0  0  0  0  0  0  0  0
  125.0466  108.1545  104.9624 O   0  0  0  0  0  0  0  0  0  0  0  0
  121.1736  103.3746  107.0994 H   0  0  0  0  0  0  0  0  0  0  0  0
  119.0898  103.2574  105.6886 H   0  0  0  0  0  0  0  0  0  0  0  0
  120.2219  106.4357  103.2799 H   0  0  0  0  0  0  0  0  0  0  0  0
  125.9602  108.0120  107.6390 H   0  0  0  0  0  0  0  0  0  0  0  0
  124.4153  107.2448  108.1233 H   0  0  0  0  0  0  0  0  0  0  0  0
  125.7290  106.4593  105.8763 H   0  0  0  0  0  0  0  0  0  0  0  0
  124.7149  109.7816  106.6614 H   0  0  0  0  0  0  0  0  0  0  0  0
  124.2585  109.5831  108.2440 H   0  0  0  0  0  0  0  0  0  0  0  0
  123.2697  109.0512  107.0224 H   0  0  0  0  0  0  0  0  0  0  0  0
  124.3008  108.7588  105.0563 H   0  0  0  0  0  0  0  0  0  0  0  0
  1  2  1  0  0  0  0
  1  5  2  0  0  0  0
  2 10  2  0  0  0  0
  3  4  2  0  0  0  0
  3 10  1  0  0  0  0
  4  5  1  0  0  0  0
  4  9  1  0  0  0  0
  5 11  1  0  0  0  0
  6  8  1  0  0  0  0
  6  9  1  0  0  0  0
  6 11  2  0  0  0  0
  7  8  1  0  0  0  0
  7 12  1  0  0  0  0
  8 13  1  0  0  0  0
  1 14  1  0  0  0  0
  2 15  1  0  0  0  0
  3 16  1  0  0  0  0
  7 17  1  0  0  0  0
  7 18  1  0  0  0  0
  8 19  1  0  0  0  0
 12 20  1  0  0  0  0
 12 21  1  0  0  0  0
 12 22  1  0  0  0  0
 13 23  1  0  0  0  0
M  CHG  2   9  -1  12   1
M  END
> <FRED Chemgauss4 score>
-9.187734

$$$$
C93778801	P146919869
  -OEChem-05182014473D

 40 42  0     1  0  0  0  0  0999 V2000
  120.6403  109.8139  109.3542 C   0  0  0  0  0  0  0  0  0  0  0  0
  122.3120  108.6720  109.8626 C   0  0  0  0  0  0  0  0  0  0  0  0
  123.2504  106.4139  105.6728 C   0  0  0  0  0  0  0  0  0  0  0  0
  125.7495  105.6373  107.3390 C   0  0  0  0  0  0  0  0  0  0  0  0
  120.1223  104.8958  107.5364 C   0  0  0  0  0  0  0  0  0  0  0  0
  119.8183  103.7448  106.6200 C   0  0  0  0  0  0  0  0  0  0  0  0
  125.3410  106.1791  108.7078 C   0  0  0  0  0  0  0  0  0  0  0  0
  124.6925  104.6918  106.7651 C   0  0  0  0  0  0  0  0  0  0  0  0
  122.8975  105.9128  108.0938 C   0  0  0  0  0  0  0  0  0  0  0  0
  120.9180  104.7084  106.2765 C   0  0  0  0  0  0  0  0  0  0  0  0
  123.9718  106.8607  108.6469 C   0  0  1  0  0  0  0  0  0  0  0  0
  123.2960  105.3193  106.7362 C   0  0  1  0  0  0  0  0  0  0  0  0
  119.2462  110.1621  109.0559 C   0  0  0  0  0  0  0  0  0  0  0  0
  121.0182  108.5430  109.6808 N   0  0  0  0  0  0  0  0  0  0  0  0
  121.6188  110.7210  109.3223 N   0  0  0  0  0  0  0  0  0  0  0  0
  122.6772  109.9649  109.6511 N   0  0  0  0  0  0  0  0  0  0  0  0
  122.3162  104.2341  106.4082 N   0  3  0  0  0  0  0  0  0  0  0  0
  122.1420  107.0065  105.5563 O   0  5  0  0  0  0  0  0  0  0  0  0
  124.3319  106.5866  105.0438 O   0  0  0  0  0  0  0  0  0  0  0  0
  123.4895  107.4366  110.3112 S   0  0  0  0  0  0  0  0  0  0  0  0
  125.9163  106.4733  106.6491 H   0  0  0  0  0  0  0  0  0  0  0  0
  126.7046  105.1064  107.4260 H   0  0  0  0  0  0  0  0  0  0  0  0
  119.4037  105.7048  107.5844 H   0  0  0  0  0  0  0  0  0  0  0  0
  120.6098  104.6746  108.4781 H   0  0  0  0  0  0  0  0  0  0  0  0
  120.1020  102.7520  106.9474 H   0  0  0  0  0  0  0  0  0  0  0  0
  118.8958  103.7821  106.0536 H   0  0  0  0  0  0  0  0  0  0  0  0
  125.3251  105.3478  109.4251 H   0  0  0  0  0  0  0  0  0  0  0  0
  126.1060  106.8863  109.0512 H   0  0  0  0  0  0  0  0  0  0  0  0
  125.0015  104.3822  105.7585 H   0  0  0  0  0  0  0  0  0  0  0  0
  124.6784  103.7811  107.3793 H   0  0  0  0  0  0  0  0  0  0  0  0
  122.7334  105.0938  108.8090 H   0  0  0  0  0  0  0  0  0  0  0  0
  121.9419  106.4476  108.0052 H   0  0  0  0  0  0  0  0  0  0  0  0
  120.7388  105.4026  105.4641 H   0  0  0  0  0  0  0  0  0  0  0  0
  124.0385  107.7506  108.0105 H   0  0  0  0  0  0  0  0  0  0  0  0
  118.6998  110.4660  109.9675 H   0  0  0  0  0  0  0  0  0  0  0  0
  119.1646  110.9949  108.3317 H   0  0  0  0  0  0  0  0  0  0  0  0
  118.6879  109.3198  108.6044 H   0  0  0  0  0  0  0  0  0  0  0  0
  123.5938  110.3918  109.7099 H   0  0  0  0  0  0  0  0  0  0  0  0
  122.3698  103.5156  107.1381 H   0  0  0  0  0  0  0  0  0  0  0  0
  122.6110  103.7816  105.5363 H   0  0  0  0  0  0  0  0  0  0  0  0
  1 13  1  0  0  0  0
  1 14  1  0  0  0  0
  1 15  2  0  0  0  0
  2 14  2  0  0  0  0
  2 16  1  0  0  0  0
  2 20  1  0  0  0  0
  3 12  1  0  0  0  0
  3 18  1  0  0  0  0
  3 19  2  0  0  0  0
  4  7  1  0  0  0  0
  4  8  1  0  0  0  0
  5  6  1  0  0  0  0
  5 10  1  0  0  0  0
  6 10  1  0  0  0  0
  7 11  1  0  0  0  0
  8 12  1  0  0  0  0
  9 11  1  0  0  0  0
  9 12  1  0  0  0  0
 10 17  1  0  0  0  0
 11 20  1  0  0  0  0
 12 17  1  0  0  0  0
 15 16  1  0  0  0  0
  4 21  1  0  0  0  0
  4 22  1  0  0  0  0
  5 23  1  0  0  0  0
  5 24  1  0  0  0  0
  6 25  1  0  0  0  0
  6 26  1  0  0  0  0
  7 27  1  0  0  0  0
  7 28  1  0  0  0  0
  8 29  1  0  0  0  0
  8 30  1  0  0  0  0
  9 31  1  0  0  0  0
  9 32  1  0  0  0  0
 10 33  1  0  0  0  0
 11 34  1  0  0  0  0
 13 35  1  0  0  0  0
 13 36  1  0  0  0  0
 13 37  1  0  0  0  0
 16 38  1  0  0  0  0
 17 39  1  0  0  0  0
 17 40  1  0  0  0  0
M  CHG  2  17   1  18  -1
M  END
> <FRED Chemgauss4 score>
-9.180866

$$$$
C97910502	P155409201
  -OEChem-05182014473D

 42 43  0     1  0  0  0  0  0999 V2000
  122.1697  106.0833  105.3652 C   0  0  0  0  0  0  0  0  0  0  0  0
  116.4799  103.8786  103.6067 C   0  0  0  0  0  0  0  0  0  0  0  0
  116.0107  103.8906  105.0572 C   0  0  0  0  0  0  0  0  0  0  0  0
  117.6961  104.7827  103.4295 C   0  0  0  0  0  0  0  0  0  0  0  0
  125.6245  104.5865  107.3935 C   0  0  0  0  0  0  0  0  0  0  0  0
  125.7773  104.0700  108.8120 C   0  0  0  0  0  0  0  0  0  0  0  0
  124.4874  106.0304  108.9690 C   0  0  0  0  0  0  0  0  0  0  0  0
  117.1717  103.6091  106.0014 C   0  0  0  0  0  0  0  0  0  0  0  0
  118.7747  104.4447  104.4614 C   0  0  1  0  0  0  0  0  0  0  0  0
  125.1958  106.0359  107.6093 C   0  0  2  0  0  0  0  0  0  0  0  0
  121.0055  105.1105  105.4207 C   0  0  0  0  0  0  0  0  0  0  0  0
  119.9451  105.4138  104.3676 C   0  0  0  0  0  0  0  0  0  0  0  0
  124.3299  106.5742  106.4789 C   0  0  0  0  0  0  0  0  0  0  0  0
  124.6322  104.6665  109.4921 N   0  0  0  0  0  0  0  0  0  0  0  0
  123.1247  105.7937  106.3289 N   0  0  0  0  0  0  0  0  0  0  0  0
  122.2401  107.0060  104.5578 O   0  0  0  0  0  0  0  0  0  0  0  0
  118.2369  104.5344  105.7852 O   0  0  0  0  0  0  0  0  0  0  0  0
  126.3630  106.8533  107.7194 O   0  0  0  0  0  0  0  0  0  0  0  0
  116.7421  102.8538  103.3164 H   0  0  0  0  0  0  0  0  0  0  0  0
  115.6691  104.2036  102.9456 H   0  0  0  0  0  0  0  0  0  0  0  0
  115.5974  104.8814  105.2827 H   0  0  0  0  0  0  0  0  0  0  0  0
  115.2118  103.1566  105.2053 H   0  0  0  0  0  0  0  0  0  0  0  0
  118.0908  104.6853  102.4121 H   0  0  0  0  0  0  0  0  0  0  0  0
  117.3739  105.8237  103.5601 H   0  0  0  0  0  0  0  0  0  0  0  0
  126.5619  104.4949  106.8356 H   0  0  0  0  0  0  0  0  0  0  0  0
  124.8459  104.0139  106.8737 H   0  0  0  0  0  0  0  0  0  0  0  0
  125.7552  102.9773  108.8598 H   0  0  0  0  0  0  0  0  0  0  0  0
  126.7119  104.4170  109.2674 H   0  0  0  0  0  0  0  0  0  0  0  0
  124.9407  106.7393  109.6705 H   0  0  0  0  0  0  0  0  0  0  0  0
  123.4221  106.2718  108.8869 H   0  0  0  0  0  0  0  0  0  0  0  0
  116.8417  103.7173  107.0395 H   0  0  0  0  0  0  0  0  0  0  0  0
  117.5468  102.5862  105.8787 H   0  0  0  0  0  0  0  0  0  0  0  0
  119.1488  103.4256  104.3011 H   0  0  0  0  0  0  0  0  0  0  0  0
  121.3988  104.0972  105.2761 H   0  0  0  0  0  0  0  0  0  0  0  0
  120.5643  105.1613  106.4233 H   0  0  0  0  0  0  0  0  0  0  0  0
  120.3831  105.3522  103.3650 H   0  0  0  0  0  0  0  0  0  0  0  0
  119.5745  106.4375  104.4911 H   0  0  0  0  0  0  0  0  0  0  0  0
  124.8722  106.5368  105.5293 H   0  0  0  0  0  0  0  0  0  0  0  0
  124.0345  107.6091  106.6754 H   0  0  0  0  0  0  0  0  0  0  0  0
  123.7966  104.1370  109.2392 H   0  0  0  0  0  0  0  0  0  0  0  0
  122.9706  105.0053  106.9506 H   0  0  0  0  0  0  0  0  0  0  0  0
  126.0491  107.7598  107.8547 H   0  0  0  0  0  0  0  0  0  0  0  0
  1 11  1  0  0  0  0
  1 15  1  0  0  0  0
  1 16  2  0  0  0  0
  2  3  1  0  0  0  0
  2  4  1  0  0  0  0
  3  8  1  0  0  0  0
  4  9  1  0  0  0  0
  5  6  1  0  0  0  0
  5 10  1  0  0  0  0
  6 14  1  0  0  0  0
  7 10  1  0  0  0  0
  7 14  1  0  0  0  0
  8 17  1  0  0  0  0
  9 12  1  0  0  0  0
  9 17  1  0  0  0  0
 10 13  1  0  0  0  0
 10 18  1  0  0  0  0
 11 12  1  0  0  0  0
 13 15  1  0  0  0  0
  2 19  1  0  0  0  0
  2 20  1  0  0  0  0
  3 21  1  0  0  0  0
  3 22  1  0  0  0  0
  4 23  1  0  0  0  0
  4 24  1  0  0  0  0
  5 25  1  0  0  0  0
  5 26  1  0  0  0  0
  6 27  1  0  0  0  0
  6 28  1  0  0  0  0
  7 29  1  0  0  0  0
  7 30  1  0  0  0  0
  8 31  1  0  0  0  0
  8 32  1  0  0  0  0
  9 33  1  0  0  0  0
 11 34  1  0  0  0  0
 11 35  1  0  0  0  0
 12 36  1  0  0  0  0
 12 37  1  0  0  0  0
 13 38  1  0  0  0  0
 13 39  1  0  0  0  0
 14 40  1  0  0  0  0
 15 41  1  0  0  0  0
 18 42  1  0  0  0  0
M  END
> <FRED Chemgauss4 score>
-9.175015

$$$$
C71148292	P109848264
  -OEChem-05182014473D

 48 49  0     1  0  0  0  0  0999 V2000
  124.7920  106.8940  106.0693 C   0  0  0  0  0  0  0  0  0  0  0  0
  118.0900  104.7844  101.8161 C   0  0  0  0  0  0  0  0  0  0  0  0
  116.7881  104.4817  102.5537 C   0  0  0  0  0  0  0  0  0  0  0  0
  119.2550  104.9689  102.7839 C   0  0  0  0  0  0  0  0  0  0  0  0
  117.6434  105.7349  104.5753 C   0  0  0  0  0  0  0  0  0  0  0  0
  120.0029  107.4582  105.4745 C   0  0  0  0  0  0  0  0  0  0  0  0
  121.3458  106.0028  104.0980 C   0  0  0  0  0  0  0  0  0  0  0  0
  121.1652  107.5942  106.4641 C   0  0  0  0  0  0  0  0  0  0  0  0
  122.5082  106.1402  105.0872 C   0  0  0  0  0  0  0  0  0  0  0  0
  116.4692  105.5547  103.6033 C   0  0  2  0  0  0  0  0  0  0  0  0
  118.9489  106.0383  103.8347 C   0  0  1  0  0  0  0  0  0  0  0  0
  115.1903  105.2038  104.3613 C   0  0  0  0  0  0  0  0  0  0  0  0
  123.1928  106.8281  108.0243 C   0  0  0  0  0  0  0  0  0  0  0  0
  123.7094  109.0601  107.0352 C   0  0  0  0  0  0  0  0  0  0  0  0
  123.5623  107.5620  106.7251 C   0  0  0  0  0  0  0  0  0  0  0  0
  120.0562  106.1657  104.7802 N   0  0  0  0  0  0  0  0  0  0  0  0
  122.4544  107.4331  105.7807 N   0  0  0  0  0  0  0  0  0  0  0  0
  124.9287  105.5447  106.2968 N   0  0  0  0  0  0  0  0  0  0  0  0
  125.9433  107.6909  105.1450 S   0  0  0  0  0  0  0  0  0  0  0  0
  118.3159  103.9694  101.1190 H   0  0  0  0  0  0  0  0  0  0  0  0
  117.9664  105.6933  101.2147 H   0  0  0  0  0  0  0  0  0  0  0  0
  115.9693  104.4142  101.8277 H   0  0  0  0  0  0  0  0  0  0  0  0
  116.8667  103.4991  103.0360 H   0  0  0  0  0  0  0  0  0  0  0  0
  119.4676  104.0082  103.2716 H   0  0  0  0  0  0  0  0  0  0  0  0
  120.1542  105.2420  102.2178 H   0  0  0  0  0  0  0  0  0  0  0  0
  117.4165  106.5489  105.2762 H   0  0  0  0  0  0  0  0  0  0  0  0
  117.7596  104.8242  105.1792 H   0  0  0  0  0  0  0  0  0  0  0  0
  119.0492  107.5784  106.0065 H   0  0  0  0  0  0  0  0  0  0  0  0
  120.0739  108.2741  104.7449 H   0  0  0  0  0  0  0  0  0  0  0  0
  121.4568  106.7746  103.3263 H   0  0  0  0  0  0  0  0  0  0  0  0
  121.4027  105.0279  103.5945 H   0  0  0  0  0  0  0  0  0  0  0  0
  121.1081  108.5682  106.9689 H   0  0  0  0  0  0  0  0  0  0  0  0
  121.0547  106.8209  107.2339 H   0  0  0  0  0  0  0  0  0  0  0  0
  122.4371  105.3250  105.8176 H   0  0  0  0  0  0  0  0  0  0  0  0
  123.4620  106.0199  104.5555 H   0  0  0  0  0  0  0  0  0  0  0  0
  116.3014  106.5072  103.0839 H   0  0  0  0  0  0  0  0  0  0  0  0
  118.8315  107.0063  103.3168 H   0  0  0  0  0  0  0  0  0  0  0  0
  115.3217  104.2612  104.8899 H   0  0  0  0  0  0  0  0  0  0  0  0
  114.3616  105.1082  103.6619 H   0  0  0  0  0  0  0  0  0  0  0  0
  114.9614  105.9878  105.0811 H   0  0  0  0  0  0  0  0  0  0  0  0
  122.3216  107.2844  108.5090 H   0  0  0  0  0  0  0  0  0  0  0  0
  124.0263  106.8593  108.7358 H   0  0  0  0  0  0  0  0  0  0  0  0
  122.9533  105.7721  107.8564 H   0  0  0  0  0  0  0  0  0  0  0  0
  122.8064  109.4754  107.4982 H   0  0  0  0  0  0  0  0  0  0  0  0
  123.9155  109.6374  106.1264 H   0  0  0  0  0  0  0  0  0  0  0  0
  124.5403  109.2437  107.7277 H   0  0  0  0  0  0  0  0  0  0  0  0
  124.2552  105.0435  106.8667 H   0  0  0  0  0  0  0  0  0  0  0  0
  125.6978  104.9989  105.9237 H   0  0  0  0  0  0  0  0  0  0  0  0
  1 15  1  0  0  0  0
  1 18  1  0  0  0  0
  1 19  2  0  0  0  0
  2  3  1  0  0  0  0
  2  4  1  0  0  0  0
  3 10  1  0  0  0  0
  4 11  1  0  0  0  0
  5 10  1  0  0  0  0
  5 11  1  0  0  0  0
  6  8  1  0  0  0  0
  6 16  1  0  0  0  0
  7  9  1  0  0  0  0
  7 16  1  0  0  0  0
  8 17  1  0  0  0  0
  9 17  1  0  0  0  0
 10 12  1  0  0  0  0
 11 16  1  0  0  0  0
 13 15  1  0  0  0  0
 14 15  1  0  0  0  0
 15 17  1  0  0  0  0
  2 20  1  0  0  0  0
  2 21  1  0  0  0  0
  3 22  1  0  0  0  0
  3 23  1  0  0  0  0
  4 24  1  0  0  0  0
  4 25  1  0  0  0  0
  5 26  1  0  0  0  0
  5 27  1  0  0  0  0
  6 28  1  0  0  0  0
  6 29  1  0  0  0  0
  7 30  1  0  0  0  0
  7 31  1  0  0  0  0
  8 32  1  0  0  0  0
  8 33  1  0  0  0  0
  9 34  1  0  0  0  0
  9 35  1  0  0  0  0
 10 36  1  0  0  0  0
 11 37  1  0  0  0  0
 12 38  1  0  0  0  0
 12 39  1  0  0  0  0
 12 40  1  0  0  0  0
 13 41  1  0  0  0  0
 13 42  1  0  0  0  0
 13 43  1  0  0  0  0
 14 44  1  0  0  0  0
 14 45  1  0  0  0  0
 14 46  1  0  0  0  0
 18 47  1  0  0  0  0
 18 48  1  0  0  0  0
M  END
> <FRED Chemgauss4 score>
-9.142517

$$$$
C88889534	P139043986
  -OEChem-05182014473D

 34 35  0     0  0  0  0  0  0999 V2000
  124.9377  105.4402  106.9525 C   0  0  0  0  0  0  0  0  0  0  0  0
  123.0909  103.8895  106.8046 C   0  0  0  0  0  0  0  0  0  0  0  0
  117.0397  105.2497  102.8806 C   0  0  0  0  0  0  0  0  0  0  0  0
  117.0809  104.5843  101.6732 C   0  0  0  0  0  0  0  0  0  0  0  0
  124.0882  106.4864  106.5927 C   0  0  0  0  0  0  0  0  0  0  0  0
  122.7400  106.2341  106.3389 C   0  0  0  0  0  0  0  0  0  0  0  0
  122.2413  104.9357  106.4448 C   0  0  0  0  0  0  0  0  0  0  0  0
  124.4391  104.1418  107.0584 C   0  0  0  0  0  0  0  0  0  0  0  0
  119.1402  104.6202  102.9225 C   0  0  0  0  0  0  0  0  0  0  0  0
  121.2533  107.9497  107.0475 C   0  0  0  0  0  0  0  0  0  0  0  0
  124.6411  107.8693  106.4847 C   0  0  0  0  0  0  0  0  0  0  0  0
  120.5565  104.4296  103.3829 C   0  0  0  0  0  0  0  0  0  0  0  0
  118.2195  105.2710  103.5985 N   0  0  0  0  0  0  0  0  0  0  0  0
  120.6264  103.7169  104.6666 N   0  0  0  0  0  0  0  0  0  0  0  0
  120.0576  103.7101  107.1792 O   0  0  0  0  0  0  0  0  0  0  0  0
  119.8841  105.8602  105.8865 O   0  0  0  0  0  0  0  0  0  0  0  0
  124.7777  108.2155  105.1126 O   0  0  0  0  0  0  0  0  0  0  0  0
  121.9134  107.2611  105.9884 O   0  0  0  0  0  0  0  0  0  0  0  0
  118.6563  103.9574  101.4153 S   0  0  0  0  0  0  0  0  0  0  0  0
  120.5547  104.5917  106.1322 S   0  0  0  0  0  0  0  0  0  0  0  0
  125.4873  102.8506  107.5007 Cl  0  0  0  0  0  0  0  0  0  0  0  0
  125.9883  105.6414  107.1499 H   0  0  0  0  0  0  0  0  0  0  0  0
  122.6999  102.8779  106.8871 H   0  0  0  0  0  0  0  0  0  0  0  0
  116.1664  105.7417  103.2873 H   0  0  0  0  0  0  0  0  0  0  0  0
  116.2873  104.4432  100.9532 H   0  0  0  0  0  0  0  0  0  0  0  0
  120.6266  108.7430  106.6326 H   0  0  0  0  0  0  0  0  0  0  0  0
  121.9970  108.3755  107.7258 H   0  0  0  0  0  0  0  0  0  0  0  0
  120.6264  107.2422  107.5952 H   0  0  0  0  0  0  0  0  0  0  0  0
  123.9816  108.6016  106.9687 H   0  0  0  0  0  0  0  0  0  0  0  0
  125.6245  107.9402  106.9676 H   0  0  0  0  0  0  0  0  0  0  0  0
  121.1278  103.8544  102.6462 H   0  0  0  0  0  0  0  0  0  0  0  0
  121.0624  105.3929  103.5068 H   0  0  0  0  0  0  0  0  0  0  0  0
  120.3076  102.7403  104.6577 H   0  0  0  0  0  0  0  0  0  0  0  0
  125.1380  109.1166  105.0860 H   0  0  0  0  0  0  0  0  0  0  0  0
  1  5  2  0  0  0  0
  1  8  1  0  0  0  0
  2  7  1  0  0  0  0
  2  8  2  0  0  0  0
  3  4  2  0  0  0  0
  3 13  1  0  0  0  0
  4 19  1  0  0  0  0
  5  6  1  0  0  0  0
  5 11  1  0  0  0  0
  6  7  2  0  0  0  0
  6 18  1  0  0  0  0
  7 20  1  0  0  0  0
  8 21  1  0  0  0  0
  9 12  1  0  0  0  0
  9 13  2  0  0  0  0
  9 19  1  0  0  0  0
 10 18  1  0  0  0  0
 11 17  1  0  0  0  0
 12 14  1  0  0  0  0
 14 20  1  0  0  0  0
 15 20  2  0  0  0  0
 16 20  2  0  0  0  0
  1 22  1  0  0  0  0
  2 23  1  0  0  0  0
  3 24  1  0  0  0  0
  4 25  1  0  0  0  0
 10 26  1  0  0  0  0
 10 27  1  0  0  0  0
 10 28  1  0  0  0  0
 11 29  1  0  0  0  0
 11 30  1  0  0  0  0
 12 31  1  0  0  0  0
 12 32  1  0  0  0  0
 14 33  1  0  0  0  0
 17 34  1  0  0  0  0
M  END
> <FRED Chemgauss4 score>
-9.136709

$$$$
C45064847	P67934202
  -OEChem-05182014473D

 41 42  0     1  0  0  0  0  0999 V2000
  121.8686  105.8772  105.7251 C   0  0  0  0  0  0  0  0  0  0  0  0
  122.8738  105.0972  106.4740 C   0  0  0  0  0  0  0  0  0  0  0  0
  119.4134  104.3684  101.0789 C   0  0  0  0  0  0  0  0  0  0  0  0
  120.8674  104.8395  101.1396 C   0  0  0  0  0  0  0  0  0  0  0  0
  118.5857  104.1732  106.1441 C   0  0  0  0  0  0  0  0  0  0  0  0
  118.7793  104.7773  102.4049 C   0  0  0  0  0  0  0  0  0  0  0  0
  121.0330  105.5255  102.4917 C   0  0  0  0  0  0  0  0  0  0  0  0
  118.2772  105.3285  105.2005 C   0  0  0  0  0  0  0  0  0  0  0  0
  119.9339  104.5608  106.7332 C   0  0  0  0  0  0  0  0  0  0  0  0
  119.9605  104.8815  103.3646 C   0  0  0  0  0  0  0  0  0  0  0  0
  119.6465  105.6825  104.6160 C   0  0  2  0  0  0  0  0  0  0  0  0
  125.8417  105.5108  107.8653 C   0  0  0  0  0  0  0  0  0  0  0  0
  124.4355  105.2639  108.3854 C   0  0  0  0  0  0  0  0  0  0  0  0
  120.5813  105.3706  105.7007 N   0  0  0  0  0  0  0  0  0  0  0  0
  126.0460  104.9400  106.5611 N   0  0  0  0  0  0  0  0  0  0  0  0
  123.4289  105.8173  107.5083 N   0  0  0  0  0  0  0  0  0  0  0  0
  122.2219  106.9201  105.1752 O   0  0  0  0  0  0  0  0  0  0  0  0
  123.1263  103.9467  106.1506 O   0  0  0  0  0  0  0  0  0  0  0  0
  118.8785  104.8073  100.2303 H   0  0  0  0  0  0  0  0  0  0  0  0
  119.3809  103.2792  100.9591 H   0  0  0  0  0  0  0  0  0  0  0  0
  121.5390  103.9764  101.0650 H   0  0  0  0  0  0  0  0  0  0  0  0
  121.1117  105.5172  100.3155 H   0  0  0  0  0  0  0  0  0  0  0  0
  117.8187  104.0316  106.9106 H   0  0  0  0  0  0  0  0  0  0  0  0
  118.6760  103.2391  105.5774 H   0  0  0  0  0  0  0  0  0  0  0  0
  118.2808  105.7480  102.2919 H   0  0  0  0  0  0  0  0  0  0  0  0
  118.0309  104.0534  102.7419 H   0  0  0  0  0  0  0  0  0  0  0  0
  122.0395  105.3907  102.8992 H   0  0  0  0  0  0  0  0  0  0  0  0
  120.8550  106.6027  102.3844 H   0  0  0  0  0  0  0  0  0  0  0  0
  117.5304  105.0713  104.4437 H   0  0  0  0  0  0  0  0  0  0  0  0
  117.8932  106.1764  105.7815 H   0  0  0  0  0  0  0  0  0  0  0  0
  119.8147  105.1873  107.6239 H   0  0  0  0  0  0  0  0  0  0  0  0
  120.5510  103.6941  106.9876 H   0  0  0  0  0  0  0  0  0  0  0  0
  120.2849  103.8715  103.6508 H   0  0  0  0  0  0  0  0  0  0  0  0
  119.7114  106.7500  104.3796 H   0  0  0  0  0  0  0  0  0  0  0  0
  126.5955  105.0807  108.5323 H   0  0  0  0  0  0  0  0  0  0  0  0
  126.0267  106.5860  107.7778 H   0  0  0  0  0  0  0  0  0  0  0  0
  124.2420  104.1893  108.4589 H   0  0  0  0  0  0  0  0  0  0  0  0
  124.2919  105.7108  109.3745 H   0  0  0  0  0  0  0  0  0  0  0  0
  125.6468  104.0390  106.3513 H   0  0  0  0  0  0  0  0  0  0  0  0
  126.7421  105.3411  105.9531 H   0  0  0  0  0  0  0  0  0  0  0  0
  123.1193  106.7729  107.6605 H   0  0  0  0  0  0  0  0  0  0  0  0
  1  2  1  0  0  0  0
  1 14  1  0  0  0  0
  1 17  2  0  0  0  0
  2 16  1  0  0  0  0
  2 18  2  0  0  0  0
  3  4  1  0  0  0  0
  3  6  1  0  0  0  0
  4  7  1  0  0  0  0
  5  8  1  0  0  0  0
  5  9  1  0  0  0  0
  6 10  1  0  0  0  0
  7 10  1  0  0  0  0
  8 11  1  0  0  0  0
  9 14  1  0  0  0  0
 10 11  1  0  0  0  0
 11 14  1  0  0  0  0
 12 13  1  0  0  0  0
 12 15  1  0  0  0  0
 13 16  1  0  0  0  0
  3 19  1  0  0  0  0
  3 20  1  0  0  0  0
  4 21  1  0  0  0  0
  4 22  1  0  0  0  0
  5 23  1  0  0  0  0
  5 24  1  0  0  0  0
  6 25  1  0  0  0  0
  6 26  1  0  0  0  0
  7 27  1  0  0  0  0
  7 28  1  0  0  0  0
  8 29  1  0  0  0  0
  8 30  1  0  0  0  0
  9 31  1  0  0  0  0
  9 32  1  0  0  0  0
 10 33  1  0  0  0  0
 11 34  1  0  0  0  0
 12 35  1  0  0  0  0
 12 36  1  0  0  0  0
 13 37  1  0  0  0  0
 13 38  1  0  0  0  0
 15 39  1  0  0  0  0
 15 40  1  0  0  0  0
 16 41  1  0  0  0  0
M  END
> <FRED Chemgauss4 score>
-9.135267

$$$$
C35354207	P52456403
  -OEChem-05182014473D

 38 40  0     0  0  0  0  0  0999 V2000
  118.9257  104.7392  103.0007 C   0  0  0  0  0  0  0  0  0  0  0  0
  120.0140  104.7812  103.8748 C   0  0  0  0  0  0  0  0  0  0  0  0
  123.7041  104.2889  108.7847 C   0  0  0  0  0  0  0  0  0  0  0  0
  125.7074  105.0265  107.6534 C   0  0  0  0  0  0  0  0  0  0  0  0
  122.9265  104.8319  107.7619 C   0  0  0  0  0  0  0  0  0  0  0  0
  124.9299  105.5695  106.6306 C   0  0  0  0  0  0  0  0  0  0  0  0
  121.5736  104.7767  102.0068 C   0  0  0  0  0  0  0  0  0  0  0  0
  119.1780  104.7293  101.6392 C   0  0  0  0  0  0  0  0  0  0  0  0
  120.4885  104.7476  101.1473 C   0  0  0  0  0  0  0  0  0  0  0  0
  125.0945  104.3863  108.7305 C   0  0  0  0  0  0  0  0  0  0  0  0
  121.3284  104.8001  103.3815 C   0  0  0  0  0  0  0  0  0  0  0  0
  123.5394  105.4722  106.6848 C   0  0  0  0  0  0  0  0  0  0  0  0
  118.1896  104.6488  100.5191 C   0  0  0  0  0  0  0  0  0  0  0  0
  120.4978  104.6796   99.6529 C   0  0  0  0  0  0  0  0  0  0  0  0
  119.0536  105.0898   99.3279 C   0  0  0  0  0  0  0  0  0  0  0  0
  127.2143  104.1462  109.9016 N   0  0  0  0  0  0  0  0  0  0  0  0
  125.8812  103.8373  109.7645 N   0  0  0  0  0  0  0  0  0  0  0  0
  122.4255  104.8356  104.2956 N   0  0  0  0  0  0  0  0  0  0  0  0
  123.3463  107.2078  104.7674 O   0  0  0  0  0  0  0  0  0  0  0  0
  121.2508  106.4779  105.9404 O   0  0  0  0  0  0  0  0  0  0  0  0
  122.5536  106.1621  105.3868 S   0  0  0  0  0  0  0  0  0  0  0  0
  117.9113  104.7133  103.3837 H   0  0  0  0  0  0  0  0  0  0  0  0
  119.8318  104.7928  104.9471 H   0  0  0  0  0  0  0  0  0  0  0  0
  123.2160  103.7924  109.6195 H   0  0  0  0  0  0  0  0  0  0  0  0
  126.7902  105.1070  107.6008 H   0  0  0  0  0  0  0  0  0  0  0  0
  121.8442  104.7504  107.8146 H   0  0  0  0  0  0  0  0  0  0  0  0
  125.4181  106.0663  105.7963 H   0  0  0  0  0  0  0  0  0  0  0  0
  122.5871  104.7789  101.6172 H   0  0  0  0  0  0  0  0  0  0  0  0
  117.8429  103.6177  100.3960 H   0  0  0  0  0  0  0  0  0  0  0  0
  117.3370  105.3183  100.6628 H   0  0  0  0  0  0  0  0  0  0  0  0
  121.2187  105.3694   99.2054 H   0  0  0  0  0  0  0  0  0  0  0  0
  120.7023  103.6558   99.3233 H   0  0  0  0  0  0  0  0  0  0  0  0
  118.7034  104.6699   98.3798 H   0  0  0  0  0  0  0  0  0  0  0  0
  119.0038  106.1836   99.2342 H   0  0  0  0  0  0  0  0  0  0  0  0
  127.7228  103.2857  110.0995 H   0  0  0  0  0  0  0  0  0  0  0  0
  127.3273  104.7353  110.7256 H   0  0  0  0  0  0  0  0  0  0  0  0
  125.4070  103.3802  110.5302 H   0  0  0  0  0  0  0  0  0  0  0  0
  123.3202  104.4785  103.9236 H   0  0  0  0  0  0  0  0  0  0  0  0
  1  2  2  0  0  0  0
  1  8  1  0  0  0  0
  2 11  1  0  0  0  0
  3  5  1  0  0  0  0
  3 10  2  0  0  0  0
  4  6  2  0  0  0  0
  4 10  1  0  0  0  0
  5 12  2  0  0  0  0
  6 12  1  0  0  0  0
  7  9  1  0  0  0  0
  7 11  2  0  0  0  0
  8  9  2  0  0  0  0
  8 13  1  0  0  0  0
  9 14  1  0  0  0  0
 10 17  1  0  0  0  0
 11 18  1  0  0  0  0
 12 21  1  0  0  0  0
 13 15  1  0  0  0  0
 14 15  1  0  0  0  0
 16 17  1  0  0  0  0
 18 21  1  0  0  0  0
 19 21  2  0  0  0  0
 20 21  2  0  0  0  0
  1 22  1  0  0  0  0
  2 23  1  0  0  0  0
  3 24  1  0  0  0  0
  4 25  1  0  0  0  0
  5 26  1  0  0  0  0
  6 27  1  0  0  0  0
  7 28  1  0  0  0  0
 13 29  1  0  0  0  0
 13 30  1  0  0  0  0
 14 31  1  0  0  0  0
 14 32  1  0  0  0  0
 15 33  1  0  0  0  0
 15 34  1  0  0  0  0
 16 35  1  0  0  0  0
 16 36  1  0  0  0  0
 17 37  1  0  0  0  0
 18 38  1  0  0  0  0
M  END
> <FRED Chemgauss4 score>
-9.103592

$$$$
C86456111	P135359542
  -OEChem-05182014473D

 29 29  0     0  0  0  0  0  0999 V2000
  125.2830  104.2957  109.5175 C   0  0  0  0  0  0  0  0  0  0  0  0
  125.3513  104.3283  108.1118 C   0  0  0  0  0  0  0  0  0  0  0  0
  125.5460  105.6536  107.8082 C   0  0  0  0  0  0  0  0  0  0  0  0
  121.2350  105.6944  107.3051 C   0  0  0  0  0  0  0  0  0  0  0  0
  125.2356  103.1820  107.1914 C   0  0  0  0  0  0  0  0  0  0  0  0
  122.8074  106.5526  105.7840 C   0  0  0  0  0  0  0  0  0  0  0  0
  123.5030  107.5906  106.6429 C   0  0  0  0  0  0  0  0  0  0  0  0
  125.4230  105.5042  110.0687 N   0  0  0  0  0  0  0  0  0  0  0  0
  125.6773  106.2199  106.5839 N   0  5  0  0  0  0  0  0  0  0  0  0
  125.5813  106.3087  109.0039 N   0  0  0  0  0  0  0  0  0  0  0  0
  126.5405  102.5236  106.8736 N   0  3  0  0  0  0  0  0  0  0  0  0
  125.2435  108.0798  104.8438 O   0  0  0  0  0  0  0  0  0  0  0  0
  125.7190  108.7337  107.1798 O   0  0  0  0  0  0  0  0  0  0  0  0
  121.4305  106.4654  106.1276 O   0  0  0  0  0  0  0  0  0  0  0  0
  125.2232  107.7092  106.2595 S   0  0  0  0  0  0  0  0  0  0  0  0
  125.1370  103.4430  110.1654 H   0  0  0  0  0  0  0  0  0  0  0  0
  120.1685  105.6487  107.5387 H   0  0  0  0  0  0  0  0  0  0  0  0
  121.7814  106.1499  108.1348 H   0  0  0  0  0  0  0  0  0  0  0  0
  121.6120  104.6832  107.1346 H   0  0  0  0  0  0  0  0  0  0  0  0
  124.5912  102.3805  107.5952 H   0  0  0  0  0  0  0  0  0  0  0  0
  124.8035  103.4674  106.2154 H   0  0  0  0  0  0  0  0  0  0  0  0
  122.8728  106.8258  104.7262 H   0  0  0  0  0  0  0  0  0  0  0  0
  123.2540  105.5616  105.9104 H   0  0  0  0  0  0  0  0  0  0  0  0
  123.4387  107.3451  107.7069 H   0  0  0  0  0  0  0  0  0  0  0  0
  123.0783  108.5837  106.4719 H   0  0  0  0  0  0  0  0  0  0  0  0
  125.7082  107.2997  109.1664 H   0  0  0  0  0  0  0  0  0  0  0  0
  127.3159  103.1564  107.0768 H   0  0  0  0  0  0  0  0  0  0  0  0
  126.5774  102.2697  105.8849 H   0  0  0  0  0  0  0  0  0  0  0  0
  126.6557  101.6765  107.4324 H   0  0  0  0  0  0  0  0  0  0  0  0
  1  2  1  0  0  0  0
  1  8  2  0  0  0  0
  2  3  2  0  0  0  0
  2  5  1  0  0  0  0
  3  9  1  0  0  0  0
  3 10  1  0  0  0  0
  4 14  1  0  0  0  0
  5 11  1  0  0  0  0
  6  7  1  0  0  0  0
  6 14  1  0  0  0  0
  7 15  1  0  0  0  0
  8 10  1  0  0  0  0
  9 15  1  0  0  0  0
 12 15  2  0  0  0  0
 13 15  2  0  0  0  0
  1 16  1  0  0  0  0
  4 17  1  0  0  0  0
  4 18  1  0  0  0  0
  4 19  1  0  0  0  0
  5 20  1  0  0  0  0
  5 21  1  0  0  0  0
  6 22  1  0  0  0  0
  6 23  1  0  0  0  0
  7 24  1  0  0  0  0
  7 25  1  0  0  0  0
 10 26  1  0  0  0  0
 11 27  1  0  0  0  0
 11 28  1  0  0  0  0
 11 29  1  0  0  0  0
M  CHG  2   9  -1  11   1
M  END
> <FRED Chemgauss4 score>
-9.088198

$$$$
C89855498	P140455637
  -OEChem-05182014473D

 37 39  0     0  0  0  0  0  0999 V2000
  119.6344  104.6329  102.2923 C   0  0  0  0  0  0  0  0  0  0  0  0
  121.0259  104.6088  102.1996 C   0  0  0  0  0  0  0  0  0  0  0  0
  119.7921  105.9312  104.3237 C   0  0  0  0  0  0  0  0  0  0  0  0
  121.1837  105.9070  104.2311 C   0  0  0  0  0  0  0  0  0  0  0  0
  119.0175  105.2942  103.3543 C   0  0  0  0  0  0  0  0  0  0  0  0
  121.8006  105.2458  103.1690 C   0  0  0  0  0  0  0  0  0  0  0  0
  123.9924  105.1097  108.8687 C   0  0  0  0  0  0  0  0  0  0  0  0
  123.7126  106.0116  107.9195 C   0  0  0  0  0  0  0  0  0  0  0  0
  116.8292  105.9398  104.4545 C   0  0  0  0  0  0  0  0  0  0  0  0
  125.9206  105.5382  107.3165 C   0  0  0  0  0  0  0  0  0  0  0  0
  121.9528  106.5851  105.2676 C   0  0  0  0  0  0  0  0  0  0  0  0
  115.3793  105.6068  104.1845 C   0  0  0  0  0  0  0  0  0  0  0  0
  115.3763  105.2156  102.7203 C   0  0  0  0  0  0  0  0  0  0  0  0
  116.7449  104.5993  102.5187 C   0  0  0  0  0  0  0  0  0  0  0  0
  122.4309  106.7381  107.7207 C   0  0  0  0  0  0  0  0  0  0  0  0
  124.7629  106.2516  107.0659 N   0  0  0  0  0  0  0  0  0  0  0  0
  117.5945  105.3181  103.4485 N   0  0  0  0  0  0  0  0  0  0  0  0
  121.7606  106.1512  106.5827 N   0  0  0  0  0  0  0  0  0  0  0  0
  117.1849  106.5871  105.4285 O   0  0  0  0  0  0  0  0  0  0  0  0
  126.9799  105.5708  106.7112 O   0  0  0  0  0  0  0  0  0  0  0  0
  122.7202  107.5158  104.9722 O   0  0  0  0  0  0  0  0  0  0  0  0
  125.6185  104.5095  108.7309 S   0  0  0  0  0  0  0  0  0  0  0  0
  123.5201  105.1919  103.0176 Cl  0  0  0  0  0  0  0  0  0  0  0  0
  119.0408  104.1333  101.5308 H   0  0  0  0  0  0  0  0  0  0  0  0
  121.4906  104.0898  101.3651 H   0  0  0  0  0  0  0  0  0  0  0  0
  119.3095  106.4447  105.1528 H   0  0  0  0  0  0  0  0  0  0  0  0
  123.3127  104.7752  109.6398 H   0  0  0  0  0  0  0  0  0  0  0  0
  115.0860  104.7701  104.8264 H   0  0  0  0  0  0  0  0  0  0  0  0
  114.7376  106.4698  104.3777 H   0  0  0  0  0  0  0  0  0  0  0  0
  114.5608  104.5357  102.4590 H   0  0  0  0  0  0  0  0  0  0  0  0
  115.2789  106.1151  102.0996 H   0  0  0  0  0  0  0  0  0  0  0  0
  116.7524  103.5392  102.7952 H   0  0  0  0  0  0  0  0  0  0  0  0
  117.1054  104.7173  101.4923 H   0  0  0  0  0  0  0  0  0  0  0  0
  122.6407  107.7945  107.5357 H   0  0  0  0  0  0  0  0  0  0  0  0
  121.8163  106.6368  108.6186 H   0  0  0  0  0  0  0  0  0  0  0  0
  124.6930  106.9117  106.2990 H   0  0  0  0  0  0  0  0  0  0  0  0
  121.0739  105.4288  106.7735 H   0  0  0  0  0  0  0  0  0  0  0  0
  1  2  1  0  0  0  0
  1  5  2  0  0  0  0
  2  6  2  0  0  0  0
  3  4  2  0  0  0  0
  3  5  1  0  0  0  0
  4  6  1  0  0  0  0
  4 11  1  0  0  0  0
  5 17  1  0  0  0  0
  6 23  1  0  0  0  0
  7  8  2  0  0  0  0
  7 22  1  0  0  0  0
  8 15  1  0  0  0  0
  8 16  1  0  0  0  0
  9 12  1  0  0  0  0
  9 17  1  0  0  0  0
  9 19  2  0  0  0  0
 10 16  1  0  0  0  0
 10 20  2  0  0  0  0
 10 22  1  0  0  0  0
 11 18  1  0  0  0  0
 11 21  2  0  0  0  0
 12 13  1  0  0  0  0
 13 14  1  0  0  0  0
 14 17  1  0  0  0  0
 15 18  1  0  0  0  0
  1 24  1  0  0  0  0
  2 25  1  0  0  0  0
  3 26  1  0  0  0  0
  7 27  1  0  0  0  0
 12 28  1  0  0  0  0
 12 29  1  0  0  0  0
 13 30  1  0  0  0  0
 13 31  1  0  0  0  0
 14 32  1  0  0  0  0
 14 33  1  0  0  0  0
 15 34  1  0  0  0  0
 15 35  1  0  0  0  0
 16 36  1  0  0  0  0
 18 37  1  0  0  0  0
M  END
> <FRED Chemgauss4 score>
-9.075016

$$$$
C21813873	P32484664
  -OEChem-05182014473D

 33 35  0     1  0  0  0  0  0999 V2000
  119.3556  104.8300  102.1360 C   0  0  0  0  0  0  0  0  0  0  0  0
  126.0574  106.2943  108.5747 C   0  0  0  0  0  0  0  0  0  0  0  0
  125.2121  104.6357  107.0348 C   0  0  0  0  0  0  0  0  0  0  0  0
  125.9854  105.3664  109.6137 C   0  0  0  0  0  0  0  0  0  0  0  0
  125.1401  103.7077  108.0738 C   0  0  0  0  0  0  0  0  0  0  0  0
  120.6055  105.1075  102.7614 C   0  0  0  0  0  0  0  0  0  0  0  0
  118.2908  105.0855  102.9717 C   0  0  0  0  0  0  0  0  0  0  0  0
  125.6707  105.9289  107.2853 C   0  0  0  0  0  0  0  0  0  0  0  0
  125.5267  104.0731  109.3632 C   0  0  0  0  0  0  0  0  0  0  0  0
  120.4482  105.5649  104.0514 C   0  0  0  0  0  0  0  0  0  0  0  0
  121.5606  105.9324  104.9447 C   0  0  0  0  0  0  0  0  0  0  0  0
  123.2356  106.8997  105.6785 C   0  0  0  0  0  0  0  0  0  0  0  0
  125.7483  106.9206  106.1742 C   0  0  0  0  0  0  0  0  0  0  0  0
  124.4525  107.7559  105.9851 C   0  0  1  0  0  0  0  0  0  0  0  0
  122.4487  106.9203  104.6325 N   0  0  0  0  0  0  0  0  0  0  0  0
  121.7627  105.3178  106.1139 N   0  0  0  0  0  0  0  0  0  0  0  0
  124.6531  108.7739  104.9449 N   0  0  0  0  0  0  0  0  0  0  0  0
  122.8967  105.9718  106.6116 O   0  0  0  0  0  0  0  0  0  0  0  0
  125.4577  103.1675  110.3769 O   0  0  0  0  0  0  0  0  0  0  0  0
  118.7992  105.6578  104.5035 S   0  0  0  0  0  0  0  0  0  0  0  0
  119.2436  104.4623  101.1243 H   0  0  0  0  0  0  0  0  0  0  0  0
  126.4159  107.2996  108.7789 H   0  0  0  0  0  0  0  0  0  0  0  0
  124.9086  104.3421  106.0332 H   0  0  0  0  0  0  0  0  0  0  0  0
  126.2883  105.6570  110.6161 H   0  0  0  0  0  0  0  0  0  0  0  0
  124.7823  102.7020  107.8722 H   0  0  0  0  0  0  0  0  0  0  0  0
  121.5675  104.9755  102.2815 H   0  0  0  0  0  0  0  0  0  0  0  0
  117.2386  104.9643  102.7561 H   0  0  0  0  0  0  0  0  0  0  0  0
  125.9662  106.3807  105.2346 H   0  0  0  0  0  0  0  0  0  0  0  0
  126.6144  107.5928  106.3125 H   0  0  0  0  0  0  0  0  0  0  0  0
  124.2624  108.3041  106.9167 H   0  0  0  0  0  0  0  0  0  0  0  0
  125.5581  109.1730  104.8600 H   0  0  0  0  0  0  0  0  0  0  0  0
  123.8446  109.1606  104.5176 H   0  0  0  0  0  0  0  0  0  0  0  0
  125.1217  102.3187  110.0474 H   0  0  0  0  0  0  0  0  0  0  0  0
  1  6  1  0  0  0  0
  1  7  2  0  0  0  0
  2  4  2  0  0  0  0
  2  8  1  0  0  0  0
  3  5  1  0  0  0  0
  3  8  2  0  0  0  0
  4  9  1  0  0  0  0
  5  9  2  0  0  0  0
  6 10  2  0  0  0  0
  7 20  1  0  0  0  0
  8 13  1  0  0  0  0
  9 19  1  0  0  0  0
 10 11  1  0  0  0  0
 10 20  1  0  0  0  0
 11 15  1  0  0  0  0
 11 16  2  0  0  0  0
 12 14  1  0  0  0  0
 12 15  2  0  0  0  0
 12 18  1  0  0  0  0
 13 14  1  0  0  0  0
 14 17  1  0  0  0  0
 16 18  1  0  0  0  0
  1 21  1  0  0  0  0
  2 22  1  0  0  0  0
  3 23  1  0  0  0  0
  4 24  1  0  0  0  0
  5 25  1  0  0  0  0
  6 26  1  0  0  0  0
  7 27  1  0  0  0  0
 13 28  1  0  0  0  0
 13 29  1  0  0  0  0
 14 30  1  0  0  0  0
 17 31  1  0  0  0  0
 17 32  1  0  0  0  0
 19 33  1  0  0  0  0
M  END
> <FRED Chemgauss4 score>
-9.018930

$$$$
C83778410	P131081130
  -OEChem-05182014473D

 38 39  0     1  0  0  0  0  0999 V2000
  121.7400  106.0251  105.0102 C   0  0  0  0  0  0  0  0  0  0  0  0
  123.4695  106.7704  105.9105 C   0  0  0  0  0  0  0  0  0  0  0  0
  119.2702  105.7223  105.0412 C   0  0  0  0  0  0  0  0  0  0  0  0
  120.6460  104.8961  103.0809 C   0  0  0  0  0  0  0  0  0  0  0  0
  118.0049  105.6279  104.1891 C   0  0  0  0  0  0  0  0  0  0  0  0
  119.3773  104.8037  102.2334 C   0  0  0  0  0  0  0  0  0  0  0  0
  120.5155  105.9703  104.1736 C   0  0  0  0  0  0  0  0  0  0  0  0
  118.1342  104.5570  103.0981 C   0  0  0  0  0  0  0  0  0  0  0  0
  115.6555  104.2376  103.0465 C   0  0  0  0  0  0  0  0  0  0  0  0
  124.2239  108.8357  107.1585 C   0  0  0  0  0  0  0  0  0  0  0  0
  116.8761  104.5162  102.2324 C   0  0  0  0  0  0  0  0  0  0  0  0
  124.6179  107.5594  106.3845 C   0  0  2  0  0  0  0  0  0  0  0  0
  122.5190  107.1441  105.0856 N   0  0  0  0  0  0  0  0  0  0  0  0
  122.1486  104.9826  105.7366 N   0  0  0  0  0  0  0  0  0  0  0  0
  123.2563  105.4856  106.3024 N   0  0  0  0  0  0  0  0  0  0  0  0
  125.5367  107.9242  105.3092 N   0  0  0  0  0  0  0  0  0  0  0  0
  119.1544  106.5306  105.7741 H   0  0  0  0  0  0  0  0  0  0  0  0
  119.3904  104.7948  105.6169 H   0  0  0  0  0  0  0  0  0  0  0  0
  120.8501  103.9178  103.5364 H   0  0  0  0  0  0  0  0  0  0  0  0
  121.5008  105.1209  102.4307 H   0  0  0  0  0  0  0  0  0  0  0  0
  117.1502  105.3995  104.8370 H   0  0  0  0  0  0  0  0  0  0  0  0
  117.8039  106.6054  103.7320 H   0  0  0  0  0  0  0  0  0  0  0  0
  119.2574  105.7331  101.6620 H   0  0  0  0  0  0  0  0  0  0  0  0
  119.4907  103.9941  101.5025 H   0  0  0  0  0  0  0  0  0  0  0  0
  120.4093  106.9487  103.6867 H   0  0  0  0  0  0  0  0  0  0  0  0
  118.2406  103.5784  103.5850 H   0  0  0  0  0  0  0  0  0  0  0  0
  115.7683  103.2757  103.5604 H   0  0  0  0  0  0  0  0  0  0  0  0
  114.7659  104.1804  102.4103 H   0  0  0  0  0  0  0  0  0  0  0  0
  115.5067  105.0129  103.8055 H   0  0  0  0  0  0  0  0  0  0  0  0
  123.5919  109.4780  106.5356 H   0  0  0  0  0  0  0  0  0  0  0  0
  123.6719  108.6039  108.0764 H   0  0  0  0  0  0  0  0  0  0  0  0
  125.1077  109.4134  107.4518 H   0  0  0  0  0  0  0  0  0  0  0  0
  116.7646  105.4750  101.7197 H   0  0  0  0  0  0  0  0  0  0  0  0
  116.9930  103.7425  101.4694 H   0  0  0  0  0  0  0  0  0  0  0  0
  125.2520  106.9675  107.0792 H   0  0  0  0  0  0  0  0  0  0  0  0
  123.7999  104.9039  106.9293 H   0  0  0  0  0  0  0  0  0  0  0  0
  125.6954  107.2603  104.5829 H   0  0  0  0  0  0  0  0  0  0  0  0
  126.1194  108.7221  105.4413 H   0  0  0  0  0  0  0  0  0  0  0  0
  1  7  1  0  0  0  0
  1 13  1  0  0  0  0
  1 14  2  0  0  0  0
  2 12  1  0  0  0  0
  2 13  2  0  0  0  0
  2 15  1  0  0  0  0
  3  5  1  0  0  0  0
  3  7  1  0  0  0  0
  4  6  1  0  0  0  0
  4  7  1  0  0  0  0
  5  8  1  0  0  0  0
  6  8  1  0  0  0  0
  8 11  1  0  0  0  0
  9 11  1  0  0  0  0
 10 12  1  0  0  0  0
 12 16  1  0  0  0  0
 14 15  1  0  0  0  0
  3 17  1  0  0  0  0
  3 18  1  0  0  0  0
  4 19  1  0  0  0  0
  4 20  1  0  0  0  0
  5 21  1  0  0  0  0
  5 22  1  0  0  0  0
  6 23  1  0  0  0  0
  6 24  1  0  0  0  0
  7 25  1  0  0  0  0
  8 26  1  0  0  0  0
  9 27  1  0  0  0  0
  9 28  1  0  0  0  0
  9 29  1  0  0  0  0
 10 30  1  0  0  0  0
 10 31  1  0  0  0  0
 10 32  1  0  0  0  0
 11 33  1  0  0  0  0
 11 34  1  0  0  0  0
 12 35  1  0  0  0  0
 15 36  1  0  0  0  0
 16 37  1  0  0  0  0
 16 38  1  0  0  0  0
M  END
> <FRED Chemgauss4 score>
-9.015465

$$$$
TBOA
  -OEChem-05182014473D

 30 30  0     1  0  0  0  0  0999 V2000
  118.2059  104.0755  103.9376 C   0  0  0  0  0  0  0  0  0  0  0  0
  117.9553  103.8761  105.2952 C   0  0  0  0  0  0  0  0  0  0  0  0
  119.5061  104.3234  103.4974 C   0  0  0  0  0  0  0  0  0  0  0  0
  119.0049  103.9248  106.2126 C   0  0  0  0  0  0  0  0  0  0  0  0
  120.5557  104.3721  104.4149 C   0  0  0  0  0  0  0  0  0  0  0  0
  120.3051  104.1728  105.7725 C   0  0  0  0  0  0  0  0  0  0  0  0
  124.4929  107.1721  105.7763 C   0  0  0  0  0  0  0  0  0  0  0  0
  122.5741  106.6721  108.0748 C   0  0  0  0  0  0  0  0  0  0  0  0
  121.4345  104.2255  106.7589 C   0  0  0  0  0  0  0  0  0  0  0  0
  124.6335  106.0111  106.7505 C   0  0  2  0  0  0  0  0  0  0  0  0
  123.2820  105.5640  107.3226 C   0  0  2  0  0  0  0  0  0  0  0  0
  125.5045  106.4559  107.8433 N   0  0  0  0  0  0  0  0  0  0  0  0
  123.4327  107.6644  105.4116 O   0  0  0  0  0  0  0  0  0  0  0  0
  121.8201  107.4966  107.5783 O   0  0  0  0  0  0  0  0  0  0  0  0
  125.6975  107.6099  105.3251 O   0  0  0  0  0  0  0  0  0  0  0  0
  122.9096  106.6570  109.3895 O   0  0  0  0  0  0  0  0  0  0  0  0
  122.4307  105.1170  106.2763 O   0  0  0  0  0  0  0  0  0  0  0  0
  117.3888  104.0362  103.2232 H   0  0  0  0  0  0  0  0  0  0  0  0
  116.9432  103.6819  105.6380 H   0  0  0  0  0  0  0  0  0  0  0  0
  119.7017  104.4776  102.4404 H   0  0  0  0  0  0  0  0  0  0  0  0
  118.8002  103.7684  107.2685 H   0  0  0  0  0  0  0  0  0  0  0  0
  121.5654  104.5660  104.0628 H   0  0  0  0  0  0  0  0  0  0  0  0
  121.0851  104.5756  107.7362 H   0  0  0  0  0  0  0  0  0  0  0  0
  121.8766  103.2327  106.8955 H   0  0  0  0  0  0  0  0  0  0  0  0
  125.1488  105.1855  106.2476 H   0  0  0  0  0  0  0  0  0  0  0  0
  123.4137  104.7274  108.0204 H   0  0  0  0  0  0  0  0  0  0  0  0
  126.2342  107.0940  107.6232 H   0  0  0  0  0  0  0  0  0  0  0  0
  125.4625  105.9556  108.7014 H   0  0  0  0  0  0  0  0  0  0  0  0
  125.6622  108.3511  104.6838 H   0  0  0  0  0  0  0  0  0  0  0  0
  122.4757  107.3830  109.8863 H   0  0  0  0  0  0  0  0  0  0  0  0
  1  2  2  0  0  0  0
  1  3  1  0  0  0  0
  2  4  1  0  0  0  0
  3  5  2  0  0  0  0
  4  6  2  0  0  0  0
  5  6  1  0  0  0  0
  6  9  1  0  0  0  0
  7 10  1  0  0  0  0
  7 13  2  0  0  0  0
  7 15  1  0  0  0  0
  8 11  1  0  0  0  0
  8 14  2  0  0  0  0
  8 16  1  0  0  0  0
  9 17  1  0  0  0  0
 10 11  1  0  0  0  0
 10 12  1  0  0  0  0
 11 17  1  0  0  0  0
  1 18  1  0  0  0  0
  2 19  1  0  0  0  0
  3 20  1  0  0  0  0
  4 21  1  0  0  0  0
  5 22  1  0  0  0  0
  9 23  1  0  0  0  0
  9 24  1  0  0  0  0
 10 25  1  0  0  0  0
 11 26  1  0  0  0  0
 12 27  1  0  0  0  0
 12 28  1  0  0  0  0
 15 29  1  0  0  0  0
 16 30  1  0  0  0  0
M  END
> <FRED Chemgauss4 score>
-9.010599

$$$$
C87750457	P137259032
  -OEChem-05182014473D

 31 32  0     0  0  0  0  0  0999 V2000
  119.1596  104.7946  104.5656 C   0  0  0  0  0  0  0  0  0  0  0  0
  120.3602  104.9254  102.4516 C   0  0  0  0  0  0  0  0  0  0  0  0
  120.3599  104.8870  103.8571 C   0  0  0  0  0  0  0  0  0  0  0  0
  117.9887  104.7429  103.8377 C   0  0  0  0  0  0  0  0  0  0  0  0
  117.9889  104.7805  102.4620 C   0  0  0  0  0  0  0  0  0  0  0  0
  119.1602  104.8716  101.7385 C   0  0  0  0  0  0  0  0  0  0  0  0
  115.9411  104.6374  103.1460 C   0  0  0  0  0  0  0  0  0  0  0  0
  121.6541  104.9458  104.5981 C   0  0  0  0  0  0  0  0  0  0  0  0
  123.4726  107.5361  106.5308 C   0  0  0  0  0  0  0  0  0  0  0  0
  122.2031  105.6133  107.5459 C   0  0  0  0  0  0  0  0  0  0  0  0
  122.8613  106.1595  106.2804 C   0  0  0  0  0  0  0  0  0  0  0  0
  121.8842  106.2365  105.1950 N   0  0  0  0  0  0  0  0  0  0  0  0
  116.7320  104.6531  104.3520 O   0  0  0  0  0  0  0  0  0  0  0  0
  116.7325  104.7186  101.9429 O   0  0  0  0  0  0  0  0  0  0  0  0
  124.1034  107.9962  105.3408 O   0  0  0  0  0  0  0  0  0  0  0  0
  122.0649  104.2012  107.4345 O   0  0  0  0  0  0  0  0  0  0  0  0
  119.1652  104.9230   99.8540 Br  0  0  0  0  0  0  0  0  0  0  0  0
  119.1454  104.7646  105.6498 H   0  0  0  0  0  0  0  0  0  0  0  0
  121.3085  104.9970  101.9223 H   0  0  0  0  0  0  0  0  0  0  0  0
  115.3570  103.7103  103.1204 H   0  0  0  0  0  0  0  0  0  0  0  0
  115.2503  105.4881  103.1687 H   0  0  0  0  0  0  0  0  0  0  0  0
  121.6824  104.1992  105.4035 H   0  0  0  0  0  0  0  0  0  0  0  0
  122.5055  104.7333  103.9375 H   0  0  0  0  0  0  0  0  0  0  0  0
  124.2359  107.4855  107.3143 H   0  0  0  0  0  0  0  0  0  0  0  0
  122.7103  108.2661  106.8246 H   0  0  0  0  0  0  0  0  0  0  0  0
  121.2101  106.0486  107.7030 H   0  0  0  0  0  0  0  0  0  0  0  0
  122.8227  105.8189  108.4249 H   0  0  0  0  0  0  0  0  0  0  0  0
  123.6303  105.4626  105.9267 H   0  0  0  0  0  0  0  0  0  0  0  0
  122.2338  106.8929  104.4896 H   0  0  0  0  0  0  0  0  0  0  0  0
  124.4763  108.8688  105.5431 H   0  0  0  0  0  0  0  0  0  0  0  0
  121.6451  103.8972  108.2547 H   0  0  0  0  0  0  0  0  0  0  0  0
  1  3  1  0  0  0  0
  1  4  2  0  0  0  0
  2  3  2  0  0  0  0
  2  6  1  0  0  0  0
  3  8  1  0  0  0  0
  4  5  1  0  0  0  0
  4 13  1  0  0  0  0
  5  6  2  0  0  0  0
  5 14  1  0  0  0  0
  6 17  1  0  0  0  0
  7 13  1  0  0  0  0
  7 14  1  0  0  0  0
  8 12  1  0  0  0  0
  9 11  1  0  0  0  0
  9 15  1  0  0  0  0
 10 11  1  0  0  0  0
 10 16  1  0  0  0  0
 11 12  1  0  0  0  0
  1 18  1  0  0  0  0
  2 19  1  0  0  0  0
  7 20  1  0  0  0  0
  7 21  1  0  0  0  0
  8 22  1  0  0  0  0
  8 23  1  0  0  0  0
  9 24  1  0  0  0  0
  9 25  1  0  0  0  0
 10 26  1  0  0  0  0
 10 27  1  0  0  0  0
 11 28  1  0  0  0  0
 12 29  1  0  0  0  0
 15 30  1  0  0  0  0
 16 31  1  0  0  0  0
M  END
> <FRED Chemgauss4 score>
-9.000926

$$$$
C43057664	P118380554
  -OEChem-05182014473D

 46 48  0     1  0  0  0  0  0999 V2000
  117.6492  104.2622  103.0914 C   0  0  0  0  0  0  0  0  0  0  0  0
  118.2201  104.6344  101.8374 C   0  0  0  0  0  0  0  0  0  0  0  0
  118.5902  104.2146  104.0973 C   0  0  0  0  0  0  0  0  0  0  0  0
  119.5788  104.8603  101.9505 C   0  0  0  0  0  0  0  0  0  0  0  0
  118.4118  103.8854  105.4745 C   0  0  0  0  0  0  0  0  0  0  0  0
  122.0046  104.0811  107.9032 C   0  0  0  0  0  0  0  0  0  0  0  0
  117.4900  104.8020  100.5409 C   0  0  0  0  0  0  0  0  0  0  0  0
  120.4841  105.2404  100.8209 C   0  0  0  0  0  0  0  0  0  0  0  0
  118.4534  104.8303   99.3440 C   0  0  0  0  0  0  0  0  0  0  0  0
  119.6667  105.7318   99.6156 C   0  0  0  0  0  0  0  0  0  0  0  0
  125.0530  106.1492  108.4456 C   0  0  0  0  0  0  0  0  0  0  0  0
  124.6700  107.5615  108.0106 C   0  0  0  0  0  0  0  0  0  0  0  0
  124.3308  105.6667  106.1583 C   0  0  0  0  0  0  0  0  0  0  0  0
  124.2231  105.1755  107.6023 C   0  0  2  0  0  0  0  0  0  0  0  0
  120.6158  104.3676  108.4455 C   0  0  0  0  0  0  0  0  0  0  0  0
  119.5331  103.5795  107.7210 C   0  0  0  0  0  0  0  0  0  0  0  0
  119.5473  103.9088  106.3139 N   0  0  0  0  0  0  0  0  0  0  0  0
  122.8412  105.1794  108.0376 N   0  0  0  0  0  0  0  0  0  0  0  0
  117.2862  103.5625  105.9339 O   0  0  0  0  0  0  0  0  0  0  0  0
  122.3252  103.0021  107.4125 O   0  0  0  0  0  0  0  0  0  0  0  0
  125.5713  107.9154  105.5587 O   0  0  0  0  0  0  0  0  0  0  0  0
  123.0679  107.9776  105.9623 O   0  0  0  0  0  0  0  0  0  0  0  0
  120.1560  104.6183  103.5337 S   0  0  0  0  0  0  0  0  0  0  0  0
  124.3865  107.4530  106.2513 S   0  0  0  0  0  0  0  0  0  0  0  0
  116.5995  104.0427  103.2445 H   0  0  0  0  0  0  0  0  0  0  0  0
  116.7628  103.9931  100.4062 H   0  0  0  0  0  0  0  0  0  0  0  0
  116.9291  105.7440  100.5772 H   0  0  0  0  0  0  0  0  0  0  0  0
  121.1887  106.0225  101.1255 H   0  0  0  0  0  0  0  0  0  0  0  0
  121.0710  104.3618  100.5257 H   0  0  0  0  0  0  0  0  0  0  0  0
  118.8048  103.8124   99.1305 H   0  0  0  0  0  0  0  0  0  0  0  0
  117.9194  105.1786   98.4526 H   0  0  0  0  0  0  0  0  0  0  0  0
  119.3171  106.7552   99.8023 H   0  0  0  0  0  0  0  0  0  0  0  0
  120.3104  105.7708   98.7295 H   0  0  0  0  0  0  0  0  0  0  0  0
  126.1182  105.9850  108.2402 H   0  0  0  0  0  0  0  0  0  0  0  0
  124.8960  106.0135  109.5207 H   0  0  0  0  0  0  0  0  0  0  0  0
  123.7373  107.8823  108.4834 H   0  0  0  0  0  0  0  0  0  0  0  0
  125.4591  108.2884  108.2140 H   0  0  0  0  0  0  0  0  0  0  0  0
  125.2750  105.3405  105.7110 H   0  0  0  0  0  0  0  0  0  0  0  0
  123.4934  105.3609  105.5264 H   0  0  0  0  0  0  0  0  0  0  0  0
  124.5754  104.1562  107.6983 H   0  0  0  0  0  0  0  0  0  0  0  0
  120.6058  104.1242  109.5153 H   0  0  0  0  0  0  0  0  0  0  0  0
  120.4236  105.4438  108.3521 H   0  0  0  0  0  0  0  0  0  0  0  0
  118.5462  103.8099  108.1367 H   0  0  0  0  0  0  0  0  0  0  0  0
  119.6944  102.5029  107.8425 H   0  0  0  0  0  0  0  0  0  0  0  0
  120.4497  104.1119  105.8964 H   0  0  0  0  0  0  0  0  0  0  0  0
  122.4682  106.0245  108.4601 H   0  0  0  0  0  0  0  0  0  0  0  0
  1  2  1  0  0  0  0
  1  3  2  0  0  0  0
  2  4  2  0  0  0  0
  2  7  1  0  0  0  0
  3  5  1  0  0  0  0
  3 23  1  0  0  0  0
  4  8  1  0  0  0  0
  4 23  1  0  0  0  0
  5 17  1  0  0  0  0
  5 19  2  0  0  0  0
  6 15  1  0  0  0  0
  6 18  1  0  0  0  0
  6 20  2  0  0  0  0
  7  9  1  0  0  0  0
  8 10  1  0  0  0  0
  9 10  1  0  0  0  0
 11 12  1  0  0  0  0
 11 14  1  0  0  0  0
 12 24  1  0  0  0  0
 13 14  1  0  0  0  0
 13 24  1  0  0  0  0
 14 18  1  0  0  0  0
 15 16  1  0  0  0  0
 16 17  1  0  0  0  0
 21 24  2  0  0  0  0
 22 24  2  0  0  0  0
  1 25  1  0  0  0  0
  7 26  1  0  0  0  0
  7 27  1  0  0  0  0
  8 28  1  0  0  0  0
  8 29  1  0  0  0  0
  9 30  1  0  0  0  0
  9 31  1  0  0  0  0
 10 32  1  0  0  0  0
 10 33  1  0  0  0  0
 11 34  1  0  0  0  0
 11 35  1  0  0  0  0
 12 36  1  0  0  0  0
 12 37  1  0  0  0  0
 13 38  1  0  0  0  0
 13 39  1  0  0  0  0
 14 40  1  0  0  0  0
 15 41  1  0  0  0  0
 15 42  1  0  0  0  0
 16 43  1  0  0  0  0
 16 44  1  0  0  0  0
 17 45  1  0  0  0  0
 18 46  1  0  0  0  0
M  END
> <FRED Chemgauss4 score>
-8.993764

$$$$
C45088381	P67962157
  -OEChem-05182014473D

 41 42  0     1  0  0  0  0  0999 V2000
  120.4152  106.7044  105.6166 C   0  0  0  0  0  0  0  0  0  0  0  0
  123.5470  107.4330  105.9357 C   0  0  0  0  0  0  0  0  0  0  0  0
  120.5979  104.3974  101.2125 C   0  0  0  0  0  0  0  0  0  0  0  0
  119.1632  104.6457  100.7438 C   0  0  0  0  0  0  0  0  0  0  0  0
  118.7661  103.4990  106.2504 C   0  0  0  0  0  0  0  0  0  0  0  0
  120.5594  104.4404  102.7371 C   0  0  0  0  0  0  0  0  0  0  0  0
  118.3274  104.8075  102.0092 C   0  0  0  0  0  0  0  0  0  0  0  0
  118.4750  103.6535  104.7655 C   0  0  0  0  0  0  0  0  0  0  0  0
  120.0183  104.3406  106.4328 C   0  0  0  0  0  0  0  0  0  0  0  0
  119.3305  105.2870  103.0536 C   0  0  0  0  0  0  0  0  0  0  0  0
  118.8374  105.1171  104.4798 C   0  0  2  0  0  0  0  0  0  0  0  0
  121.2802  106.9150  106.8343 C   0  0  0  0  0  0  0  0  0  0  0  0
  124.8663  106.7604  105.6545 C   0  0  0  0  0  0  0  0  0  0  0  0
  119.8436  105.4468  105.4958 N   0  0  0  0  0  0  0  0  0  0  0  0
  125.8101  107.7397  105.0961 N   0  0  0  0  0  0  0  0  0  0  0  0
  122.6140  106.5442  106.4707 N   0  0  0  0  0  0  0  0  0  0  0  0
  120.2521  107.6224  104.8111 O   0  0  0  0  0  0  0  0  0  0  0  0
  123.3348  108.6228  105.7170 O   0  0  0  0  0  0  0  0  0  0  0  0
  120.9838  103.4386  100.8514 H   0  0  0  0  0  0  0  0  0  0  0  0
  121.2563  105.1832  100.8242 H   0  0  0  0  0  0  0  0  0  0  0  0
  119.1242  105.5605  100.1413 H   0  0  0  0  0  0  0  0  0  0  0  0
  118.7899  103.8268  100.1208 H   0  0  0  0  0  0  0  0  0  0  0  0
  117.9414  103.8314  106.8851 H   0  0  0  0  0  0  0  0  0  0  0  0
  118.9773  102.4500  106.4847 H   0  0  0  0  0  0  0  0  0  0  0  0
  120.4455  103.4234  103.1323 H   0  0  0  0  0  0  0  0  0  0  0  0
  121.4767  104.8630  103.1586 H   0  0  0  0  0  0  0  0  0  0  0  0
  117.5024  105.5124  101.8682 H   0  0  0  0  0  0  0  0  0  0  0  0
  117.8977  103.8395  102.2953 H   0  0  0  0  0  0  0  0  0  0  0  0
  119.0249  102.9389  104.1455 H   0  0  0  0  0  0  0  0  0  0  0  0
  117.4027  103.5002  104.5877 H   0  0  0  0  0  0  0  0  0  0  0  0
  120.0737  104.7591  107.4407 H   0  0  0  0  0  0  0  0  0  0  0  0
  120.9328  103.7867  106.2179 H   0  0  0  0  0  0  0  0  0  0  0  0
  119.5632  106.3455  102.8741 H   0  0  0  0  0  0  0  0  0  0  0  0
  117.9502  105.7611  104.6248 H   0  0  0  0  0  0  0  0  0  0  0  0
  120.9000  106.2851  107.6329 H   0  0  0  0  0  0  0  0  0  0  0  0
  121.2244  107.9633  107.1124 H   0  0  0  0  0  0  0  0  0  0  0  0
  125.2774  106.3529  106.5829 H   0  0  0  0  0  0  0  0  0  0  0  0
  124.7230  105.9490  104.9350 H   0  0  0  0  0  0  0  0  0  0  0  0
  126.5608  107.3928  104.5476 H   0  0  0  0  0  0  0  0  0  0  0  0
  125.7765  108.6650  105.4533 H   0  0  0  0  0  0  0  0  0  0  0  0
  122.8994  105.5726  106.6111 H   0  0  0  0  0  0  0  0  0  0  0  0
  1 12  1  0  0  0  0
  1 14  1  0  0  0  0
  1 17  2  0  0  0  0
  2 13  1  0  0  0  0
  2 16  1  0  0  0  0
  2 18  2  0  0  0  0
  3  4  1  0  0  0  0
  3  6  1  0  0  0  0
  4  7  1  0  0  0  0
  5  8  1  0  0  0  0
  5  9  1  0  0  0  0
  6 10  1  0  0  0  0
  7 10  1  0  0  0  0
  8 11  1  0  0  0  0
  9 14  1  0  0  0  0
 10 11  1  0  0  0  0
 11 14  1  0  0  0  0
 12 16  1  0  0  0  0
 13 15  1  0  0  0  0
  3 19  1  0  0  0  0
  3 20  1  0  0  0  0
  4 21  1  0  0  0  0
  4 22  1  0  0  0  0
  5 23  1  0  0  0  0
  5 24  1  0  0  0  0
  6 25  1  0  0  0  0
  6 26  1  0  0  0  0
  7 27  1  0  0  0  0
  7 28  1  0  0  0  0
  8 29  1  0  0  0  0
  8 30  1  0  0  0  0
  9 31  1  0  0  0  0
  9 32  1  0  0  0  0
 10 33  1  0  0  0  0
 11 34  1  0  0  0  0
 12 35  1  0  0  0  0
 12 36  1  0  0  0  0
 13 37  1  0  0  0  0
 13 38  1  0  0  0  0
 15 39  1  0  0  0  0
 15 40  1  0  0  0  0
 16 41  1  0  0  0  0
M  END
> <FRED Chemgauss4 score>
-8.991606

$$$$
C87993543	P137628739
  -OEChem-05182014473D

 46 47  0     0  0  0  0  0  0999 V2000
  125.1620  105.5835  107.1624 C   0  0  0  0  0  0  0  0  0  0  0  0
  124.8183  104.2520  107.0468 C   0  0  0  0  0  0  0  0  0  0  0  0
  124.2214  106.4846  106.7068 C   0  0  0  0  0  0  0  0  0  0  0  0
  122.8159  104.7974  106.1193 C   0  0  0  0  0  0  0  0  0  0  0  0
  121.3910  104.8299  104.0821 C   0  0  0  0  0  0  0  0  0  0  0  0
  120.3468  104.9073  106.3890 C   0  0  0  0  0  0  0  0  0  0  0  0
  120.0338  104.4616  103.4834 C   0  0  0  0  0  0  0  0  0  0  0  0
  118.9921  104.5387  105.7848 C   0  0  0  0  0  0  0  0  0  0  0  0
  121.5080  104.3605  105.5418 C   0  0  0  0  0  0  0  0  0  0  0  0
  118.8745  105.0060  104.3282 C   0  0  0  0  0  0  0  0  0  0  0  0
  125.7715  103.2034  107.5135 C   0  0  0  0  0  0  0  0  0  0  0  0
  117.4182  105.0996  102.2893 C   0  0  0  0  0  0  0  0  0  0  0  0
  116.3851  105.1760  104.5726 C   0  0  0  0  0  0  0  0  0  0  0  0
  117.4204  103.0515  103.7356 C   0  0  0  0  0  0  0  0  0  0  0  0
  124.5032  107.9474  106.7921 C   0  0  0  0  0  0  0  0  0  0  0  0
  117.5314  104.5855  103.7345 C   0  0  0  0  0  0  0  0  0  0  0  0
  123.6493  103.8219  106.5283 N   0  0  0  0  0  0  0  0  0  0  0  0
  123.0337  106.1251  106.1773 N   0  0  0  0  0  0  0  0  0  0  0  0
  124.8436  108.5145  105.5123 N   0  0  0  0  0  0  0  0  0  0  0  0
  126.1087  105.9005  107.5828 H   0  0  0  0  0  0  0  0  0  0  0  0
  122.1891  104.3818  103.4769 H   0  0  0  0  0  0  0  0  0  0  0  0
  121.5288  105.9179  104.0223 H   0  0  0  0  0  0  0  0  0  0  0  0
  120.4202  106.0001  106.4713 H   0  0  0  0  0  0  0  0  0  0  0  0
  120.4087  104.5135  107.4112 H   0  0  0  0  0  0  0  0  0  0  0  0
  119.9709  104.8580  102.4629 H   0  0  0  0  0  0  0  0  0  0  0  0
  119.9593  103.3694  103.4049 H   0  0  0  0  0  0  0  0  0  0  0  0
  118.8564  103.4510  105.8410 H   0  0  0  0  0  0  0  0  0  0  0  0
  118.1943  104.9896  106.3872 H   0  0  0  0  0  0  0  0  0  0  0  0
  121.4865  103.2642  105.5680 H   0  0  0  0  0  0  0  0  0  0  0  0
  118.9210  106.1031  104.3125 H   0  0  0  0  0  0  0  0  0  0  0  0
  125.5890  102.9643  108.5681 H   0  0  0  0  0  0  0  0  0  0  0  0
  125.6697  102.2828  106.9248 H   0  0  0  0  0  0  0  0  0  0  0  0
  126.8121  103.5358  107.4066 H   0  0  0  0  0  0  0  0  0  0  0  0
  116.4629  104.8129  101.8356 H   0  0  0  0  0  0  0  0  0  0  0  0
  118.2202  104.6930  101.6629 H   0  0  0  0  0  0  0  0  0  0  0  0
  117.4893  106.1925  102.2539 H   0  0  0  0  0  0  0  0  0  0  0  0
  115.4099  104.8871  104.1647 H   0  0  0  0  0  0  0  0  0  0  0  0
  116.4316  104.8212  105.6082 H   0  0  0  0  0  0  0  0  0  0  0  0
  116.4266  106.2708  104.5932 H   0  0  0  0  0  0  0  0  0  0  0  0
  116.4630  102.7258  103.3133 H   0  0  0  0  0  0  0  0  0  0  0  0
  117.4922  102.6452  104.7507 H   0  0  0  0  0  0  0  0  0  0  0  0
  118.2195  102.5986  103.1379 H   0  0  0  0  0  0  0  0  0  0  0  0
  123.6319  108.4961  107.1755 H   0  0  0  0  0  0  0  0  0  0  0  0
  125.3368  108.1572  107.4759 H   0  0  0  0  0  0  0  0  0  0  0  0
  125.4136  109.3433  105.4810 H   0  0  0  0  0  0  0  0  0  0  0  0
  124.3489  108.2035  104.6928 H   0  0  0  0  0  0  0  0  0  0  0  0
  1  2  1  0  0  0  0
  1  3  2  0  0  0  0
  2 11  1  0  0  0  0
  2 17  2  0  0  0  0
  3 15  1  0  0  0  0
  3 18  1  0  0  0  0
  4  9  1  0  0  0  0
  4 17  1  0  0  0  0
  4 18  2  0  0  0  0
  5  7  1  0  0  0  0
  5  9  1  0  0  0  0
  6  8  1  0  0  0  0
  6  9  1  0  0  0  0
  7 10  1  0  0  0  0
  8 10  1  0  0  0  0
 10 16  1  0  0  0  0
 12 16  1  0  0  0  0
 13 16  1  0  0  0  0
 14 16  1  0  0  0  0
 15 19  1  0  0  0  0
  1 20  1  0  0  0  0
  5 21  1  0  0  0  0
  5 22  1  0  0  0  0
  6 23  1  0  0  0  0
  6 24  1  0  0  0  0
  7 25  1  0  0  0  0
  7 26  1  0  0  0  0
  8 27  1  0  0  0  0
  8 28  1  0  0  0  0
  9 29  1  0  0  0  0
 10 30  1  0  0  0  0
 11 31  1  0  0  0  0
 11 32  1  0  0  0  0
 11 33  1  0  0  0  0
 12 34  1  0  0  0  0
 12 35  1  0  0  0  0
 12 36  1  0  0  0  0
 13 37  1  0  0  0  0
 13 38  1  0  0  0  0
 13 39  1  0  0  0  0
 14 40  1  0  0  0  0
 14 41  1  0  0  0  0
 14 42  1  0  0  0  0
 15 43  1  0  0  0  0
 15 44  1  0  0  0  0
 19 45  1  0  0  0  0
 19 46  1  0  0  0  0
M  END
> <FRED Chemgauss4 score>
-8.979162

$$$$
C84057443	P131527988
  -OEChem-05182014473D

 25 26  0     1  0  0  0  0  0999 V2000
  124.0128  106.2230  106.2426 C   0  0  0  0  0  0  0  0  0  0  0  0
  124.0269  105.1870  107.1450 C   0  0  0  0  0  0  0  0  0  0  0  0
  122.3484  105.0244  105.7357 C   0  0  0  0  0  0  0  0  0  0  0  0
  125.0326  107.2321  106.3171 C   0  0  0  0  0  0  0  0  0  0  0  0
  125.8411  105.8567  108.2439 C   0  0  0  0  0  0  0  0  0  0  0  0
  119.9360  104.3392  106.0766 C   0  0  0  0  0  0  0  0  0  0  0  0
  121.1407  104.4485  105.1140 C   0  0  1  0  0  0  0  0  0  0  0  0
  122.9725  106.1258  105.3666 N   0  0  0  0  0  0  0  0  0  0  0  0
  124.8954  104.9471  108.1521 N   0  0  0  0  0  0  0  0  0  0  0  0
  122.9508  104.4186  106.8111 N   0  0  0  0  0  0  0  0  0  0  0  0
  125.9220  106.9646  107.3672 N   0  0  0  0  0  0  0  0  0  0  0  0
  126.8199  105.7945  109.2016 N   0  0  0  0  0  0  0  0  0  0  0  0
  120.7322  105.1830  103.9185 N   0  0  0  0  0  0  0  0  0  0  0  0
  125.1004  108.1900  105.5573 O   0  0  0  0  0  0  0  0  0  0  0  0
  120.0817  103.2098  106.9316 O   0  0  0  0  0  0  0  0  0  0  0  0
  119.8809  105.2303  106.7115 H   0  0  0  0  0  0  0  0  0  0  0  0
  118.9913  104.2379  105.5312 H   0  0  0  0  0  0  0  0  0  0  0  0
  121.3344  103.4247  104.7294 H   0  0  0  0  0  0  0  0  0  0  0  0
  122.6533  103.5662  107.2675 H   0  0  0  0  0  0  0  0  0  0  0  0
  126.6861  107.6188  107.5104 H   0  0  0  0  0  0  0  0  0  0  0  0
  126.8048  105.0344  109.8413 H   0  0  0  0  0  0  0  0  0  0  0  0
  127.5071  106.5120  109.2198 H   0  0  0  0  0  0  0  0  0  0  0  0
  119.7801  105.1181  103.6318 H   0  0  0  0  0  0  0  0  0  0  0  0
  121.4462  105.5480  103.3268 H   0  0  0  0  0  0  0  0  0  0  0  0
  119.3012  103.1953  107.5075 H   0  0  0  0  0  0  0  0  0  0  0  0
  1  2  2  0  0  0  0
  1  4  1  0  0  0  0
  1  8  1  0  0  0  0
  2  9  1  0  0  0  0
  2 10  1  0  0  0  0
  3  7  1  0  0  0  0
  3  8  2  0  0  0  0
  3 10  1  0  0  0  0
  4 11  1  0  0  0  0
  4 14  2  0  0  0  0
  5  9  2  0  0  0  0
  5 11  1  0  0  0  0
  5 12  1  0  0  0  0
  6  7  1  0  0  0  0
  6 15  1  0  0  0  0
  7 13  1  0  0  0  0
  6 16  1  0  0  0  0
  6 17  1  0  0  0  0
  7 18  1  0  0  0  0
 10 19  1  0  0  0  0
 11 20  1  0  0  0  0
 12 21  1  0  0  0  0
 12 22  1  0  0  0  0
 13 23  1  0  0  0  0
 13 24  1  0  0  0  0
 15 25  1  0  0  0  0
M  END
> <FRED Chemgauss4 score>
-8.977999

$$$$
C82644253	P129155959
  -OEChem-05182014473D

 30 30  0     0  0  0  0  0  0999 V2000
  125.1716  106.0193  106.4579 C   0  0  0  0  0  0  0  0  0  0  0  0
  124.0683  104.6782  108.1029 C   0  0  0  0  0  0  0  0  0  0  0  0
  126.3362  105.2163  108.3870 C   0  0  0  0  0  0  0  0  0  0  0  0
  124.0185  105.3848  106.9097 C   0  0  0  0  0  0  0  0  0  0  0  0
  126.3453  105.9367  107.2011 C   0  0  0  0  0  0  0  0  0  0  0  0
  122.7548  105.4597  106.1322 C   0  0  0  0  0  0  0  0  0  0  0  0
  119.5548  103.5659  106.3857 C   0  0  0  0  0  0  0  0  0  0  0  0
  120.6203  104.3151  105.5938 C   0  0  0  0  0  0  0  0  0  0  0  0
  118.2231  103.4988  105.6504 C   0  0  0  0  0  0  0  0  0  0  0  0
  125.2117  104.6150  108.7989 N   0  3  0  0  0  0  0  0  0  0  0  0
  115.9547  104.7437  105.0537 N   0  0  0  0  0  0  0  0  0  0  0  0
  121.8716  104.3986  106.2956 N   0  0  0  0  0  0  0  0  0  0  0  0
  127.4153  106.5137  106.8010 O   0  5  0  0  0  0  0  0  0  0  0  0
  122.5645  106.4176  105.3874 O   0  0  0  0  0  0  0  0  0  0  0  0
  117.7212  105.9140  106.5121 O   0  0  0  0  0  0  0  0  0  0  0  0
  118.1768  105.5648  104.0512 O   0  0  0  0  0  0  0  0  0  0  0  0
  117.5997  105.1141  105.3056 S   0  0  0  0  0  0  0  0  0  0  0  0
  125.1404  106.5760  105.5217 H   0  0  0  0  0  0  0  0  0  0  0  0
  123.2280  104.1528  108.5364 H   0  0  0  0  0  0  0  0  0  0  0  0
  127.1889  105.0868  109.0421 H   0  0  0  0  0  0  0  0  0  0  0  0
  119.4108  104.0711  107.3487 H   0  0  0  0  0  0  0  0  0  0  0  0
  119.9019  102.5503  106.6135 H   0  0  0  0  0  0  0  0  0  0  0  0
  120.8087  103.8299  104.6308 H   0  0  0  0  0  0  0  0  0  0  0  0
  120.2933  105.3417  105.4015 H   0  0  0  0  0  0  0  0  0  0  0  0
  118.3251  102.9866  104.6890 H   0  0  0  0  0  0  0  0  0  0  0  0
  117.4590  102.9879  106.2435 H   0  0  0  0  0  0  0  0  0  0  0  0
  125.2264  104.0904  109.6731 H   0  0  0  0  0  0  0  0  0  0  0  0
  115.2819  105.0428  105.7703 H   0  0  0  0  0  0  0  0  0  0  0  0
  115.5923  104.8048  104.0943 H   0  0  0  0  0  0  0  0  0  0  0  0
  122.1327  103.6105  106.8856 H   0  0  0  0  0  0  0  0  0  0  0  0
  1  4  1  0  0  0  0
  1  5  2  0  0  0  0
  2  4  2  0  0  0  0
  2 10  1  0  0  0  0
  3  5  1  0  0  0  0
  3 10  2  0  0  0  0
  4  6  1  0  0  0  0
  5 13  1  0  0  0  0
  6 12  1  0  0  0  0
  6 14  2  0  0  0  0
  7  8  1  0  0  0  0
  7  9  1  0  0  0  0
  8 12  1  0  0  0  0
  9 17  1  0  0  0  0
 11 17  1  0  0  0  0
 15 17  2  0  0  0  0
 16 17  2  0  0  0  0
  1 18  1  0  0  0  0
  2 19  1  0  0  0  0
  3 20  1  0  0  0  0
  7 21  1  0  0  0  0
  7 22  1  0  0  0  0
  8 23  1  0  0  0  0
  8 24  1  0  0  0  0
  9 25  1  0  0  0  0
  9 26  1  0  0  0  0
 10 27  1  0  0  0  0
 11 28  1  0  0  0  0
 11 29  1  0  0  0  0
 12 30  1  0  0  0  0
M  CHG  2  10   1  13  -1
M  END
> <FRED Chemgauss4 score>
-8.975146

$$$$
C79928687	P124912760
  -OEChem-05182014473D

 37 39  0     1  0  0  0  0  0999 V2000
  116.2800  103.6952  104.8967 C   0  0  0  0  0  0  0  0  0  0  0  0
  116.0884  104.7977  104.0633 C   0  0  0  0  0  0  0  0  0  0  0  0
  117.5221  103.4744  105.4954 C   0  0  0  0  0  0  0  0  0  0  0  0
  117.1376  105.6844  103.8244 C   0  0  0  0  0  0  0  0  0  0  0  0
  118.5788  104.3592  105.2606 C   0  0  0  0  0  0  0  0  0  0  0  0
  118.3784  105.4609  104.4244 C   0  0  0  0  0  0  0  0  0  0  0  0
  119.8925  104.1627  105.8684 C   0  0  0  0  0  0  0  0  0  0  0  0
  120.9031  105.0156  105.6392 C   0  0  0  0  0  0  0  0  0  0  0  0
  120.6975  106.2012  104.7431 C   0  0  0  0  0  0  0  0  0  0  0  0
  126.2797  105.9284  107.4100 C   0  0  0  0  0  0  0  0  0  0  0  0
  126.4628  105.4884  108.8418 C   0  0  0  0  0  0  0  0  0  0  0  0
  125.2084  106.0220  109.5291 C   0  0  0  0  0  0  0  0  0  0  0  0
  124.1512  106.0160  108.4318 C   0  0  2  0  0  0  0  0  0  0  0  0
  122.2618  104.8435  106.2448 C   0  0  0  0  0  0  0  0  0  0  0  0
  123.3841  104.7023  108.3616 C   0  0  0  0  0  0  0  0  0  0  0  0
  119.4405  106.3492  104.1893 N   0  0  0  0  0  0  0  0  0  0  0  0
  124.9326  106.2287  107.2386 N   0  0  0  0  0  0  0  0  0  0  0  0
  122.1043  104.8738  107.6703 N   0  0  0  0  0  0  0  0  0  0  0  0
  121.6163  106.9900  104.5256 O   0  0  0  0  0  0  0  0  0  0  0  0
  127.1607  105.9702  106.5652 O   0  0  0  0  0  0  0  0  0  0  0  0
  115.4603  103.0064  105.0806 H   0  0  0  0  0  0  0  0  0  0  0  0
  115.1203  104.9652  103.6000 H   0  0  0  0  0  0  0  0  0  0  0  0
  117.6520  102.6099  106.1417 H   0  0  0  0  0  0  0  0  0  0  0  0
  116.9780  106.5399  103.1737 H   0  0  0  0  0  0  0  0  0  0  0  0
  120.0266  103.3004  106.5142 H   0  0  0  0  0  0  0  0  0  0  0  0
  126.5079  104.3956  108.8751 H   0  0  0  0  0  0  0  0  0  0  0  0
  127.3732  105.9156  109.2692 H   0  0  0  0  0  0  0  0  0  0  0  0
  124.9310  105.4420  110.4143 H   0  0  0  0  0  0  0  0  0  0  0  0
  125.3930  107.0546  109.8530 H   0  0  0  0  0  0  0  0  0  0  0  0
  123.4446  106.8404  108.5482 H   0  0  0  0  0  0  0  0  0  0  0  0
  122.9002  105.6593  105.9080 H   0  0  0  0  0  0  0  0  0  0  0  0
  122.6705  103.8874  105.9202 H   0  0  0  0  0  0  0  0  0  0  0  0
  123.1725  104.3275  109.3675 H   0  0  0  0  0  0  0  0  0  0  0  0
  123.9581  103.9464  107.8174 H   0  0  0  0  0  0  0  0  0  0  0  0
  119.2754  107.1442  103.5785 H   0  0  0  0  0  0  0  0  0  0  0  0
  124.5401  106.5629  106.3641 H   0  0  0  0  0  0  0  0  0  0  0  0
  121.6979  105.7695  107.9662 H   0  0  0  0  0  0  0  0  0  0  0  0
  1  2  1  0  0  0  0
  1  3  2  0  0  0  0
  2  4  2  0  0  0  0
  3  5  1  0  0  0  0
  4  6  1  0  0  0  0
  5  6  2  0  0  0  0
  5  7  1  0  0  0  0
  6 16  1  0  0  0  0
  7  8  2  0  0  0  0
  8  9  1  0  0  0  0
  8 14  1  0  0  0  0
  9 16  1  0  0  0  0
  9 19  2  0  0  0  0
 10 11  1  0  0  0  0
 10 17  1  0  0  0  0
 10 20  2  0  0  0  0
 11 12  1  0  0  0  0
 12 13  1  0  0  0  0
 13 15  1  0  0  0  0
 13 17  1  0  0  0  0
 14 18  1  0  0  0  0
 15 18  1  0  0  0  0
  1 21  1  0  0  0  0
  2 22  1  0  0  0  0
  3 23  1  0  0  0  0
  4 24  1  0  0  0  0
  7 25  1  0  0  0  0
 11 26  1  0  0  0  0
 11 27  1  0  0  0  0
 12 28  1  0  0  0  0
 12 29  1  0  0  0  0
 13 30  1  0  0  0  0
 14 31  1  0  0  0  0
 14 32  1  0  0  0  0
 15 33  1  0  0  0  0
 15 34  1  0  0  0  0
 16 35  1  0  0  0  0
 17 36  1  0  0  0  0
 18 37  1  0  0  0  0
M  END
> <FRED Chemgauss4 score>
-8.965761

$$$$
L-DOPS	P10000036
  -OEChem-05182014473D

 26 26  0     1  0  0  0  0  0999 V2000
  123.8861  105.7525  106.3681 C   0  0  0  0  0  0  0  0  0  0  0  0
  125.2356  106.0894  106.4715 C   0  0  0  0  0  0  0  0  0  0  0  0
  123.6445  105.9859  108.7607 C   0  0  0  0  0  0  0  0  0  0  0  0
  123.0905  105.7008  107.5127 C   0  0  0  0  0  0  0  0  0  0  0  0
  125.7897  106.3746  107.7194 C   0  0  0  0  0  0  0  0  0  0  0  0
  124.9941  106.3229  108.8640 C   0  0  0  0  0  0  0  0  0  0  0  0
  120.9876  107.3541  105.8795 C   0  0  0  0  0  0  0  0  0  0  0  0
  121.6219  105.3368  107.4001 C   0  0  1  0  0  0  0  0  0  0  0  0
  120.7087  106.5575  107.1703 C   0  0  1  0  0  0  0  0  0  0  0  0
  120.7510  107.4377  108.3833 N   0  3  0  0  0  0  0  0  0  0  0  0
  122.1489  107.8293  105.7479 O   0  5  0  0  0  0  0  0  0  0  0  0
  120.0010  107.4291  105.0903 O   0  0  0  0  0  0  0  0  0  0  0  0
  127.1092  106.7023  107.8069 O   0  0  0  0  0  0  0  0  0  0  0  0
  125.5241  106.5985  110.0883 O   0  0  0  0  0  0  0  0  0  0  0  0
  121.4253  104.3610  106.3753 O   0  0  0  0  0  0  0  0  0  0  0  0
  123.4626  105.5335  105.3916 H   0  0  0  0  0  0  0  0  0  0  0  0
  125.8497  106.1275  105.5759 H   0  0  0  0  0  0  0  0  0  0  0  0
  123.0264  105.9469  109.6544 H   0  0  0  0  0  0  0  0  0  0  0  0
  121.3436  104.8400  108.3386 H   0  0  0  0  0  0  0  0  0  0  0  0
  119.6651  106.2247  107.0984 H   0  0  0  0  0  0  0  0  0  0  0  0
  121.2946  108.2785  108.1884 H   0  0  0  0  0  0  0  0  0  0  0  0
  121.1826  106.9403  109.1625 H   0  0  0  0  0  0  0  0  0  0  0  0
  119.8056  107.7119  108.6513 H   0  0  0  0  0  0  0  0  0  0  0  0
  127.5159  106.6927  106.9263 H   0  0  0  0  0  0  0  0  0  0  0  0
  124.8429  106.5179  110.7743 H   0  0  0  0  0  0  0  0  0  0  0  0
  120.4749  104.1741  106.3554 H   0  0  0  0  0  0  0  0  0  0  0  0
  1  2  1  0  0  0  0
  1  4  2  0  0  0  0
  2  5  2  0  0  0  0
  3  4  1  0  0  0  0
  3  6  2  0  0  0  0
  4  8  1  0  0  0  0
  5  6  1  0  0  0  0
  5 13  1  0  0  0  0
  6 14  1  0  0  0  0
  7  9  1  0  0  0  0
  7 11  1  0  0  0  0
  7 12  2  0  0  0  0
  8  9  1  0  0  0  0
  8 15  1  0  0  0  0
  9 10  1  0  0  0  0
  1 16  1  0  0  0  0
  2 17  1  0  0  0  0
  3 18  1  0  0  0  0
  8 19  1  0  0  0  0
  9 20  1  0  0  0  0
 10 21  1  0  0  0  0
 10 22  1  0  0  0  0
 10 23  1  0  0  0  0
 13 24  1  0  0  0  0
 14 25  1  0  0  0  0
 15 26  1  0  0  0  0
M  CHG  2  10   1  11  -1
M  END
> <FRED Chemgauss4 score>
-8.932905

$$$$
C40369350	P61284191
  -OEChem-05182014473D

 31 31  0     0  0  0  0  0  0999 V2000
  120.2462  105.8363  104.3651 C   0  0  0  0  0  0  0  0  0  0  0  0
  119.1386  106.0269  105.1912 C   0  0  0  0  0  0  0  0  0  0  0  0
  120.0779  105.3168  103.0815 C   0  0  0  0  0  0  0  0  0  0  0  0
  117.8626  105.6979  104.7337 C   0  0  0  0  0  0  0  0  0  0  0  0
  118.8019  104.9878  102.6241 C   0  0  0  0  0  0  0  0  0  0  0  0
  117.6942  105.1783  103.4502 C   0  0  0  0  0  0  0  0  0  0  0  0
  121.5923  106.1835  104.8477 C   0  0  0  0  0  0  0  0  0  0  0  0
  125.2191  105.7771  108.0999 C   0  0  0  0  0  0  0  0  0  0  0  0
  121.5738  104.1590  106.2531 C   0  0  0  0  0  0  0  0  0  0  0  0
  124.2582  105.2083  107.0632 C   0  0  0  0  0  0  0  0  0  0  0  0
  122.9950  106.0520  106.9572 C   0  0  0  0  0  0  0  0  0  0  0  0
  126.4152  106.0688  107.6813 N   0  0  0  0  0  0  0  0  0  0  0  0
  124.7252  105.9095  109.3766 N   0  0  0  0  0  0  0  0  0  0  0  0
  122.0653  105.5173  105.9997 N   0  0  0  0  0  0  0  0  0  0  0  0
  122.2044  107.0270  104.1936 O   0  0  0  0  0  0  0  0  0  0  0  0
  127.1847  106.5691  108.7358 O   0  0  0  0  0  0  0  0  0  0  0  0
  119.2888  106.5262  106.4260 F   0  0  0  0  0  0  0  0  0  0  0  0
  121.1349  105.1300  102.2783 F   0  0  0  0  0  0  0  0  0  0  0  0
  116.7988  105.8818  105.5263 F   0  0  0  0  0  0  0  0  0  0  0  0
  118.6401  104.4903  101.3911 F   0  0  0  0  0  0  0  0  0  0  0  0
  116.4688  104.8644  103.0103 F   0  0  0  0  0  0  0  0  0  0  0  0
  122.2296  103.4268  105.7749 H   0  0  0  0  0  0  0  0  0  0  0  0
  120.5635  104.0416  105.8519 H   0  0  0  0  0  0  0  0  0  0  0  0
  121.5493  103.9604  107.3280 H   0  0  0  0  0  0  0  0  0  0  0  0
  124.7648  105.1387  106.0936 H   0  0  0  0  0  0  0  0  0  0  0  0
  123.9907  104.1901  107.3701 H   0  0  0  0  0  0  0  0  0  0  0  0
  122.4791  106.0805  107.9219 H   0  0  0  0  0  0  0  0  0  0  0  0
  123.2207  107.0798  106.6559 H   0  0  0  0  0  0  0  0  0  0  0  0
  123.7774  105.6388  109.6163 H   0  0  0  0  0  0  0  0  0  0  0  0
  125.3047  106.2755  110.1243 H   0  0  0  0  0  0  0  0  0  0  0  0
  128.0330  106.7416  108.2935 H   0  0  0  0  0  0  0  0  0  0  0  0
  1  2  1  0  0  0  0
  1  3  2  0  0  0  0
  1  7  1  0  0  0  0
  2  4  2  0  0  0  0
  2 17  1  0  0  0  0
  3  5  1  0  0  0  0
  3 18  1  0  0  0  0
  4  6  1  0  0  0  0
  4 19  1  0  0  0  0
  5  6  2  0  0  0  0
  5 20  1  0  0  0  0
  6 21  1  0  0  0  0
  7 14  1  0  0  0  0
  7 15  2  0  0  0  0
  8 10  1  0  0  0  0
  8 12  2  0  0  0  0
  8 13  1  0  0  0  0
  9 14  1  0  0  0  0
 10 11  1  0  0  0  0
 11 14  1  0  0  0  0
 12 16  1  0  0  0  0
  9 22  1  0  0  0  0
  9 23  1  0  0  0  0
  9 24  1  0  0  0  0
 10 25  1  0  0  0  0
 10 26  1  0  0  0  0
 11 27  1  0  0  0  0
 11 28  1  0  0  0  0
 13 29  1  0  0  0  0
 13 30  1  0  0  0  0
 16 31  1  0  0  0  0
M  END
> <FRED Chemgauss4 score>
-8.921969

$$$$
C94871780	P148706777
  -OEChem-05182014473D

 31 33  0     0  0  0  0  0  0999 V2000
  119.8135  103.7807  106.3903 C   0  0  0  0  0  0  0  0  0  0  0  0
  120.6466  104.7853  106.8826 C   0  0  0  0  0  0  0  0  0  0  0  0
  119.1433  103.9610  105.1804 C   0  0  0  0  0  0  0  0  0  0  0  0
  120.1391  106.1507  104.9551 C   0  0  0  0  0  0  0  0  0  0  0  0
  124.5611  107.5339  104.8009 C   0  0  0  0  0  0  0  0  0  0  0  0
  123.8680  106.2243  107.0472 C   0  0  0  0  0  0  0  0  0  0  0  0
  120.8093  105.9703  106.1651 C   0  0  0  0  0  0  0  0  0  0  0  0
  119.3061  105.1460  104.4628 C   0  0  0  0  0  0  0  0  0  0  0  0
  125.1752  106.2196  106.5690 C   0  0  0  0  0  0  0  0  0  0  0  0
  122.9519  106.9284  106.2813 C   0  0  0  0  0  0  0  0  0  0  0  0
  123.4442  105.4652  108.2687 C   0  0  0  0  0  0  0  0  0  0  0  0
  126.2733  105.5172  107.3227 C   0  0  0  0  0  0  0  0  0  0  0  0
  124.6227  105.0550  109.1521 C   0  0  0  0  0  0  0  0  0  0  0  0
  125.7509  104.4721  108.3073 C   0  0  0  0  0  0  0  0  0  0  0  0
  125.5451  106.8807  105.4470 N   0  0  0  0  0  0  0  0  0  0  0  0
  123.2659  107.5982  105.1541 N   0  0  0  0  0  0  0  0  0  0  0  0
  121.6332  106.9645  106.6532 O   0  0  0  0  0  0  0  0  0  0  0  0
  118.3121  105.4120  102.6578 I   0  0  0  0  0  0  0  0  0  0  0  0
  119.6873  102.8576  106.9487 H   0  0  0  0  0  0  0  0  0  0  0  0
  121.1646  104.6389  107.8263 H   0  0  0  0  0  0  0  0  0  0  0  0
  118.4993  103.1650  104.8146 H   0  0  0  0  0  0  0  0  0  0  0  0
  120.2757  107.0802  104.4071 H   0  0  0  0  0  0  0  0  0  0  0  0
  124.8442  108.0645  103.9001 H   0  0  0  0  0  0  0  0  0  0  0  0
  122.7527  106.0657  108.8713 H   0  0  0  0  0  0  0  0  0  0  0  0
  122.9076  104.5648  107.9444 H   0  0  0  0  0  0  0  0  0  0  0  0
  126.9581  105.0371  106.6141 H   0  0  0  0  0  0  0  0  0  0  0  0
  126.8459  106.2772  107.8684 H   0  0  0  0  0  0  0  0  0  0  0  0
  124.9944  105.9273  109.7048 H   0  0  0  0  0  0  0  0  0  0  0  0
  124.2885  104.3229  109.8958 H   0  0  0  0  0  0  0  0  0  0  0  0
  125.3841  103.5937  107.7611 H   0  0  0  0  0  0  0  0  0  0  0  0
  126.5689  104.1323  108.9521 H   0  0  0  0  0  0  0  0  0  0  0  0
  1  2  1  0  0  0  0
  1  3  2  0  0  0  0
  2  7  2  0  0  0  0
  3  8  1  0  0  0  0
  4  7  1  0  0  0  0
  4  8  2  0  0  0  0
  5 15  2  0  0  0  0
  5 16  1  0  0  0  0
  6  9  2  0  0  0  0
  6 10  1  0  0  0  0
  6 11  1  0  0  0  0
  7 17  1  0  0  0  0
  8 18  1  0  0  0  0
  9 12  1  0  0  0  0
  9 15  1  0  0  0  0
 10 16  2  0  0  0  0
 10 17  1  0  0  0  0
 11 13  1  0  0  0  0
 12 14  1  0  0  0  0
 13 14  1  0  0  0  0
  1 19  1  0  0  0  0
  2 20  1  0  0  0  0
  3 21  1  0  0  0  0
  4 22  1  0  0  0  0
  5 23  1  0  0  0  0
 11 24  1  0  0  0  0
 11 25  1  0  0  0  0
 12 26  1  0  0  0  0
 12 27  1  0  0  0  0
 13 28  1  0  0  0  0
 13 29  1  0  0  0  0
 14 30  1  0  0  0  0
 14 31  1  0  0  0  0
M  END
> <FRED Chemgauss4 score>
-8.914928

$$$$
C83467584	P130570487
  -OEChem-05182014473D

 31 31  0     1  0  0  0  0  0999 V2000
  123.2954  106.5401  105.4435 C   0  0  0  0  0  0  0  0  0  0  0  0
  125.1389  105.8608  106.7960 C   0  0  0  0  0  0  0  0  0  0  0  0
  123.9370  104.9914  107.1130 C   0  0  0  0  0  0  0  0  0  0  0  0
  124.5214  107.0943  106.1444 C   0  0  1  0  0  0  0  0  0  0  0  0
  118.7639  103.9814  105.1404 C   0  0  0  0  0  0  0  0  0  0  0  0
  120.2651  106.2951  106.5322 C   0  0  0  0  0  0  0  0  0  0  0  0
  119.4340  103.8955  106.5038 C   0  0  0  0  0  0  0  0  0  0  0  0
  121.8457  104.5003  105.7880 C   0  0  0  0  0  0  0  0  0  0  0  0
  120.6524  104.8220  106.7023 C   0  0  1  0  0  0  0  0  0  0  0  0
  123.0047  105.3225  106.0600 N   0  0  0  0  0  0  0  0  0  0  0  0
  125.3865  107.7321  105.1994 N   0  0  0  0  0  0  0  0  0  0  0  0
  122.6740  107.0986  104.5516 O   0  0  0  0  0  0  0  0  0  0  0  0
  121.0838  104.6824  108.0637 O   0  0  0  0  0  0  0  0  0  0  0  0
  125.7366  106.0988  107.6811 H   0  0  0  0  0  0  0  0  0  0  0  0
  125.7912  105.3301  106.0896 H   0  0  0  0  0  0  0  0  0  0  0  0
  124.1821  103.9263  107.0896 H   0  0  0  0  0  0  0  0  0  0  0  0
  123.4834  105.2527  108.0737 H   0  0  0  0  0  0  0  0  0  0  0  0
  124.1773  107.8053  106.9094 H   0  0  0  0  0  0  0  0  0  0  0  0
  118.4523  105.0036  104.9080 H   0  0  0  0  0  0  0  0  0  0  0  0
  117.8891  103.3280  105.0797 H   0  0  0  0  0  0  0  0  0  0  0  0
  119.4657  103.6654  104.3614 H   0  0  0  0  0  0  0  0  0  0  0  0
  121.1370  106.9446  106.6750 H   0  0  0  0  0  0  0  0  0  0  0  0
  119.5318  106.5958  107.2892 H   0  0  0  0  0  0  0  0  0  0  0  0
  119.8473  106.5006  105.5420 H   0  0  0  0  0  0  0  0  0  0  0  0
  119.7272  102.8541  106.6899 H   0  0  0  0  0  0  0  0  0  0  0  0
  118.6879  104.1154  107.2792 H   0  0  0  0  0  0  0  0  0  0  0  0
  121.5853  104.6825  104.7393 H   0  0  0  0  0  0  0  0  0  0  0  0
  122.1586  103.4558  105.8840 H   0  0  0  0  0  0  0  0  0  0  0  0
  126.3548  107.8335  105.4313 H   0  0  0  0  0  0  0  0  0  0  0  0
  124.9741  108.2341  104.4379 H   0  0  0  0  0  0  0  0  0  0  0  0
  120.3272  104.9354  108.6102 H   0  0  0  0  0  0  0  0  0  0  0  0
  1  4  1  0  0  0  0
  1 10  1  0  0  0  0
  1 12  2  0  0  0  0
  2  3  1  0  0  0  0
  2  4  1  0  0  0  0
  3 10  1  0  0  0  0
  4 11  1  0  0  0  0
  5  7  1  0  0  0  0
  6  9  1  0  0  0  0
  7  9  1  0  0  0  0
  8  9  1  0  0  0  0
  8 10  1  0  0  0  0
  9 13  1  0  0  0  0
  2 14  1  0  0  0  0
  2 15  1  0  0  0  0
  3 16  1  0  0  0  0
  3 17  1  0  0  0  0
  4 18  1  0  0  0  0
  5 19  1  0  0  0  0
  5 20  1  0  0  0  0
  5 21  1  0  0  0  0
  6 22  1  0  0  0  0
  6 23  1  0  0  0  0
  6 24  1  0  0  0  0
  7 25  1  0  0  0  0
  7 26  1  0  0  0  0
  8 27  1  0  0  0  0
  8 28  1  0  0  0  0
 11 29  1  0  0  0  0
 11 30  1  0  0  0  0
 13 31  1  0  0  0  0
M  END
> <FRED Chemgauss4 score>
-8.907517

$$$$
C67820544	P104133783
  -OEChem-05182014473D

 43 44  0     1  0  0  0  0  0999 V2000
  118.6611  104.2607  103.8533 C   0  0  0  0  0  0  0  0  0  0  0  0
  118.1616  105.9673  106.1419 C   0  0  0  0  0  0  0  0  0  0  0  0
  123.2041  106.4317  105.6355 C   0  0  0  0  0  0  0  0  0  0  0  0
  117.2525  104.4883  104.3579 C   0  0  0  0  0  0  0  0  0  0  0  0
  120.5720  105.3883  106.7871 C   0  0  0  0  0  0  0  0  0  0  0  0
  121.0470  104.5179  104.6038 C   0  0  0  0  0  0  0  0  0  0  0  0
  119.2579  104.9191  106.1729 C   0  0  2  0  0  0  0  0  0  0  0  0
  121.6152  104.5724  106.0190 C   0  0  1  0  0  0  0  0  0  0  0  0
  125.9537  104.3533  109.7658 C   0  0  0  0  0  0  0  0  0  0  0  0
  116.0636  106.5928  104.9746 C   0  0  0  0  0  0  0  0  0  0  0  0
  126.0210  105.3769  108.6484 C   0  0  0  0  0  0  0  0  0  0  0  0
  124.9515  107.4448  107.2007 C   0  0  0  0  0  0  0  0  0  0  0  0
  124.6701  106.8099  105.8366 C   0  0  2  0  0  0  0  0  0  0  0  0
  117.2288  105.7368  105.1207 N   0  0  0  0  0  0  0  0  0  0  0  0
  119.6098  104.6033  104.7974 N   0  0  0  0  0  0  0  0  0  0  0  0
  125.0895  107.6500  104.7435 N   0  0  0  0  0  0  0  0  0  0  0  0
  122.9275  105.1460  106.0793 N   0  0  0  0  0  0  0  0  0  0  0  0
  118.8935  103.7369  102.7675 O   0  0  0  0  0  0  0  0  0  0  0  0
  118.0665  106.8378  107.0046 O   0  0  0  0  0  0  0  0  0  0  0  0
  122.3743  107.2003  105.1539 O   0  0  0  0  0  0  0  0  0  0  0  0
  124.5167  106.3763  108.6120 S   0  0  0  0  0  0  0  0  0  0  0  0
  116.5743  104.5688  103.4991 H   0  0  0  0  0  0  0  0  0  0  0  0
  116.9415  103.6587  105.0051 H   0  0  0  0  0  0  0  0  0  0  0  0
  120.7332  106.4618  106.7289 H   0  0  0  0  0  0  0  0  0  0  0  0
  120.5964  105.0877  107.8364 H   0  0  0  0  0  0  0  0  0  0  0  0
  121.3951  105.3184  103.9386 H   0  0  0  0  0  0  0  0  0  0  0  0
  121.2527  103.5493  104.1281 H   0  0  0  0  0  0  0  0  0  0  0  0
  118.8815  104.0321  106.6819 H   0  0  0  0  0  0  0  0  0  0  0  0
  121.7089  103.5431  106.4428 H   0  0  0  0  0  0  0  0  0  0  0  0
  125.8392  104.8328  110.7439 H   0  0  0  0  0  0  0  0  0  0  0  0
  125.1233  103.6538  109.6213 H   0  0  0  0  0  0  0  0  0  0  0  0
  126.8789  103.7679  109.7910 H   0  0  0  0  0  0  0  0  0  0  0  0
  116.2939  107.4312  104.3120 H   0  0  0  0  0  0  0  0  0  0  0  0
  115.7597  106.9870  105.9482 H   0  0  0  0  0  0  0  0  0  0  0  0
  115.2300  106.0272  104.5498 H   0  0  0  0  0  0  0  0  0  0  0  0
  126.1351  104.8764  107.6820 H   0  0  0  0  0  0  0  0  0  0  0  0
  126.8803  106.0388  108.7920 H   0  0  0  0  0  0  0  0  0  0  0  0
  126.0127  107.6971  107.2957 H   0  0  0  0  0  0  0  0  0  0  0  0
  124.3805  108.3738  107.3047 H   0  0  0  0  0  0  0  0  0  0  0  0
  125.2641  105.8918  105.7474 H   0  0  0  0  0  0  0  0  0  0  0  0
  124.6789  107.5112  103.8355 H   0  0  0  0  0  0  0  0  0  0  0  0
  125.9165  108.2132  104.8500 H   0  0  0  0  0  0  0  0  0  0  0  0
  123.6846  104.5632  106.4246 H   0  0  0  0  0  0  0  0  0  0  0  0
  1  4  1  0  0  0  0
  1 15  1  0  0  0  0
  1 18  2  0  0  0  0
  2  7  1  0  0  0  0
  2 14  1  0  0  0  0
  2 19  2  0  0  0  0
  3 13  1  0  0  0  0
  3 17  1  0  0  0  0
  3 20  2  0  0  0  0
  4 14  1  0  0  0  0
  5  7  1  0  0  0  0
  5  8  1  0  0  0  0
  6  8  1  0  0  0  0
  6 15  1  0  0  0  0
  7 15  1  0  0  0  0
  8 17  1  0  0  0  0
  9 11  1  0  0  0  0
 10 14  1  0  0  0  0
 11 21  1  0  0  0  0
 12 13  1  0  0  0  0
 12 21  1  0  0  0  0
 13 16  1  0  0  0  0
  4 22  1  0  0  0  0
  4 23  1  0  0  0  0
  5 24  1  0  0  0  0
  5 25  1  0  0  0  0
  6 26  1  0  0  0  0
  6 27  1  0  0  0  0
  7 28  1  0  0  0  0
  8 29  1  0  0  0  0
  9 30  1  0  0  0  0
  9 31  1  0  0  0  0
  9 32  1  0  0  0  0
 10 33  1  0  0  0  0
 10 34  1  0  0  0  0
 10 35  1  0  0  0  0
 11 36  1  0  0  0  0
 11 37  1  0  0  0  0
 12 38  1  0  0  0  0
 12 39  1  0  0  0  0
 13 40  1  0  0  0  0
 16 41  1  0  0  0  0
 16 42  1  0  0  0  0
 17 43  1  0  0  0  0
M  END
> <FRED Chemgauss4 score>
-8.901459

$$$$
C94763834	P148525057
  -OEChem-05182014473D

 42 43  0     1  0  0  0  0  0999 V2000
  123.5960  105.0475  106.9171 C   0  0  0  0  0  0  0  0  0  0  0  0
  122.4361  105.2710  106.1836 C   0  0  0  0  0  0  0  0  0  0  0  0
  124.6798  106.7154  105.6133 C   0  0  0  0  0  0  0  0  0  0  0  0
  124.7436  105.7793  106.6328 C   0  0  0  0  0  0  0  0  0  0  0  0
  122.4756  106.2301  105.1843 C   0  0  0  0  0  0  0  0  0  0  0  0
  125.9704  105.5701  107.3810 C   0  0  0  0  0  0  0  0  0  0  0  0
  118.8816  104.6780  104.1280 C   0  0  0  0  0  0  0  0  0  0  0  0
  115.2539  104.2051  104.4986 C   0  0  0  0  0  0  0  0  0  0  0  0
  115.3784  104.3107  102.9838 C   0  0  0  0  0  0  0  0  0  0  0  0
  116.6725  103.8689  104.9316 C   0  0  0  0  0  0  0  0  0  0  0  0
  116.7365  104.9727  102.7983 C   0  0  0  0  0  0  0  0  0  0  0  0
  121.8630  105.6475  102.2111 C   0  0  0  0  0  0  0  0  0  0  0  0
  121.2419  106.4964  104.3712 C   0  0  0  0  0  0  0  0  0  0  0  0
  119.6131  105.3734  103.0080 C   0  0  0  0  0  0  0  0  0  0  0  0
  123.5715  106.9606  104.8791 N   0  0  0  0  0  0  0  0  0  0  0  0
  117.5193  104.5248  103.9460 N   0  0  0  0  0  0  0  0  0  0  0  0
  126.9460  104.8454  109.4554 N   0  0  0  0  0  0  0  0  0  0  0  0
  125.8231  105.0941  108.6876 N   0  0  0  0  0  0  0  0  0  0  0  0
  120.9936  105.4333  103.3815 N   0  0  1  0  0  0  0  0  0  0  0  0
  127.0974  105.7736  106.8979 O   0  0  0  0  0  0  0  0  0  0  0  0
  119.4933  104.2816  105.1213 O   0  0  0  0  0  0  0  0  0  0  0  0
  123.5950  104.3018  107.7075 H   0  0  0  0  0  0  0  0  0  0  0  0
  121.5335  104.7080  106.3955 H   0  0  0  0  0  0  0  0  0  0  0  0
  125.5432  107.3168  105.3446 H   0  0  0  0  0  0  0  0  0  0  0  0
  114.9537  105.1747  104.9139 H   0  0  0  0  0  0  0  0  0  0  0  0
  114.5263  103.4541  104.8177 H   0  0  0  0  0  0  0  0  0  0  0  0
  115.3867  103.3067  102.5425 H   0  0  0  0  0  0  0  0  0  0  0  0
  114.5656  104.8804  102.5255 H   0  0  0  0  0  0  0  0  0  0  0  0
  116.9081  104.2164  105.9418 H   0  0  0  0  0  0  0  0  0  0  0  0
  116.8666  102.7922  104.8730 H   0  0  0  0  0  0  0  0  0  0  0  0
  117.2177  104.6910  101.8578 H   0  0  0  0  0  0  0  0  0  0  0  0
  116.6602  106.0641  102.8506 H   0  0  0  0  0  0  0  0  0  0  0  0
  121.6903  104.8658  101.4668 H   0  0  0  0  0  0  0  0  0  0  0  0
  122.9141  105.6216  102.5113 H   0  0  0  0  0  0  0  0  0  0  0  0
  121.6522  106.6192  101.7564 H   0  0  0  0  0  0  0  0  0  0  0  0
  120.3608  106.5673  105.0183 H   0  0  0  0  0  0  0  0  0  0  0  0
  121.3251  107.4448  103.8301 H   0  0  0  0  0  0  0  0  0  0  0  0
  119.1923  106.3681  102.8944 H   0  0  0  0  0  0  0  0  0  0  0  0
  119.4752  104.7925  102.1007 H   0  0  0  0  0  0  0  0  0  0  0  0
  126.7233  104.0509  110.0538 H   0  0  0  0  0  0  0  0  0  0  0  0
  127.6725  104.5218  108.8183 H   0  0  0  0  0  0  0  0  0  0  0  0
  124.8977  104.9322  109.0700 H   0  0  0  0  0  0  0  0  0  0  0  0
  1  2  2  0  0  0  0
  1  4  1  0  0  0  0
  2  5  1  0  0  0  0
  3  4  2  0  0  0  0
  3 15  1  0  0  0  0
  4  6  1  0  0  0  0
  5 13  1  0  0  0  0
  5 15  2  0  0  0  0
  6 18  1  0  0  0  0
  6 20  2  0  0  0  0
  7 14  1  0  0  0  0
  7 16  1  0  0  0  0
  7 21  2  0  0  0  0
  8  9  1  0  0  0  0
  8 10  1  0  0  0  0
  9 11  1  0  0  0  0
 10 16  1  0  0  0  0
 11 16  1  0  0  0  0
 12 19  1  0  0  0  0
 13 19  1  0  0  0  0
 14 19  1  0  0  0  0
 17 18  1  0  0  0  0
  1 22  1  0  0  0  0
  2 23  1  0  0  0  0
  3 24  1  0  0  0  0
  8 25  1  0  0  0  0
  8 26  1  0  0  0  0
  9 27  1  0  0  0  0
  9 28  1  0  0  0  0
 10 29  1  0  0  0  0
 10 30  1  0  0  0  0
 11 31  1  0  0  0  0
 11 32  1  0  0  0  0
 12 33  1  0  0  0  0
 12 34  1  0  0  0  0
 12 35  1  0  0  0  0
 13 36  1  0  0  0  0
 13 37  1  0  0  0  0
 14 38  1  0  0  0  0
 14 39  1  0  0  0  0
 17 40  1  0  0  0  0
 17 41  1  0  0  0  0
 18 42  1  0  0  0  0
M  END
> <FRED Chemgauss4 score>
-8.895023

$$$$
C90493141	P141528232
  -OEChem-05182014473D

 48 49  0     1  0  0  0  0  0999 V2000
  123.2891  105.1723  106.4257 C   0  0  0  0  0  0  0  0  0  0  0  0
  118.2870  105.3401  107.0481 C   0  0  0  0  0  0  0  0  0  0  0  0
  117.5610  103.9819  105.0463 C   0  0  0  0  0  0  0  0  0  0  0  0
  119.7347  105.2966  106.5547 C   0  0  0  0  0  0  0  0  0  0  0  0
  119.0084  103.9356  104.5513 C   0  0  0  0  0  0  0  0  0  0  0  0
  125.4559  104.2855  107.2691 C   0  0  0  0  0  0  0  0  0  0  0  0
  125.9793  105.9532  108.8016 C   0  0  0  0  0  0  0  0  0  0  0  0
  124.1673  105.0139  107.6264 C   0  0  1  0  0  0  0  0  0  0  0  0
  117.2902  105.2354  105.8874 C   0  0  0  0  0  0  0  0  0  0  0  0
  124.6691  106.3468  108.1524 C   0  0  1  0  0  0  0  0  0  0  0  0
  120.0215  104.0529  105.6992 C   0  0  0  0  0  0  0  0  0  0  0  0
  115.8542  105.2357  106.4082 C   0  0  0  0  0  0  0  0  0  0  0  0
  121.7868  108.3858  109.3228 C   0  0  0  0  0  0  0  0  0  0  0  0
  121.4487  104.0912  105.1501 C   0  0  0  0  0  0  0  0  0  0  0  0
  122.7356  107.7357  108.3743 C   0  0  0  0  0  0  0  0  0  0  0  0
  122.3764  104.1371  106.2285 N   0  0  0  0  0  0  0  0  0  0  0  0
  123.7503  106.9755  109.0859 N   0  0  0  0  0  0  0  0  0  0  0  0
  123.4132  106.1610  105.7125 O   0  0  0  0  0  0  0  0  0  0  0  0
  126.5346  104.9413  107.9539 O   0  0  0  0  0  0  0  0  0  0  0  0
  119.8998  102.8854  106.5168 O   0  0  0  0  0  0  0  0  0  0  0  0
  118.1182  104.5245  107.7626 H   0  0  0  0  0  0  0  0  0  0  0  0
  118.1235  106.2760  107.5961 H   0  0  0  0  0  0  0  0  0  0  0  0
  116.8860  103.9599  104.1822 H   0  0  0  0  0  0  0  0  0  0  0  0
  117.3468  103.0811  105.6354 H   0  0  0  0  0  0  0  0  0  0  0  0
  119.9418  106.2053  105.9755 H   0  0  0  0  0  0  0  0  0  0  0  0
  120.3952  105.3106  107.4307 H   0  0  0  0  0  0  0  0  0  0  0  0
  119.1557  102.9916  104.0121 H   0  0  0  0  0  0  0  0  0  0  0  0
  119.1646  104.7485  103.8308 H   0  0  0  0  0  0  0  0  0  0  0  0
  125.4343  103.2445  107.6146 H   0  0  0  0  0  0  0  0  0  0  0  0
  125.6697  104.2822  106.1938 H   0  0  0  0  0  0  0  0  0  0  0  0
  126.6766  106.7905  108.8157 H   0  0  0  0  0  0  0  0  0  0  0  0
  125.8801  105.5703  109.8152 H   0  0  0  0  0  0  0  0  0  0  0  0
  123.5841  104.4427  108.3699 H   0  0  0  0  0  0  0  0  0  0  0  0
  117.4153  106.1168  105.2439 H   0  0  0  0  0  0  0  0  0  0  0  0
  124.8592  107.0741  107.3206 H   0  0  0  0  0  0  0  0  0  0  0  0
  115.6951  104.3722  107.0518 H   0  0  0  0  0  0  0  0  0  0  0  0
  115.1586  105.1904  105.5719 H   0  0  0  0  0  0  0  0  0  0  0  0
  115.6688  106.1447  106.9780 H   0  0  0  0  0  0  0  0  0  0  0  0
  121.2709  107.6373  109.9341 H   0  0  0  0  0  0  0  0  0  0  0  0
  122.3113  109.0887  109.9791 H   0  0  0  0  0  0  0  0  0  0  0  0
  121.0282  108.9463  108.7635 H   0  0  0  0  0  0  0  0  0  0  0  0
  121.5599  104.9774  104.5409 H   0  0  0  0  0  0  0  0  0  0  0  0
  121.6215  103.1996  104.5642 H   0  0  0  0  0  0  0  0  0  0  0  0
  123.2471  108.4886  107.7672 H   0  0  0  0  0  0  0  0  0  0  0  0
  122.2078  107.0459  107.7092 H   0  0  0  0  0  0  0  0  0  0  0  0
  122.3733  103.3623  106.9009 H   0  0  0  0  0  0  0  0  0  0  0  0
  124.2764  107.5970  109.6956 H   0  0  0  0  0  0  0  0  0  0  0  0
  118.9903  102.8809  106.8488 H   0  0  0  0  0  0  0  0  0  0  0  0
  1  8  1  0  0  0  0
  1 16  1  0  0  0  0
  1 18  2  0  0  0  0
  2  4  1  0  0  0  0
  2  9  1  0  0  0  0
  3  5  1  0  0  0  0
  3  9  1  0  0  0  0
  4 11  1  0  0  0  0
  5 11  1  0  0  0  0
  6  8  1  0  0  0  0
  6 19  1  0  0  0  0
  7 10  1  0  0  0  0
  7 19  1  0  0  0  0
  8 10  1  0  0  0  0
  9 12  1  0  0  0  0
 10 17  1  0  0  0  0
 11 14  1  0  0  0  0
 11 20  1  0  0  0  0
 13 15  1  0  0  0  0
 14 16  1  0  0  0  0
 15 17  1  0  0  0  0
  2 21  1  0  0  0  0
  2 22  1  0  0  0  0
  3 23  1  0  0  0  0
  3 24  1  0  0  0  0
  4 25  1  0  0  0  0
  4 26  1  0  0  0  0
  5 27  1  0  0  0  0
  5 28  1  0  0  0  0
  6 29  1  0  0  0  0
  6 30  1  0  0  0  0
  7 31  1  0  0  0  0
  7 32  1  0  0  0  0
  8 33  1  0  0  0  0
  9 34  1  0  0  0  0
 10 35  1  0  0  0  0
 12 36  1  0  0  0  0
 12 37  1  0  0  0  0
 12 38  1  0  0  0  0
 13 39  1  0  0  0  0
 13 40  1  0  0  0  0
 13 41  1  0  0  0  0
 14 42  1  0  0  0  0
 14 43  1  0  0  0  0
 15 44  1  0  0  0  0
 15 45  1  0  0  0  0
 16 46  1  0  0  0  0
 17 47  1  0  0  0  0
 20 48  1  0  0  0  0
M  END
> <FRED Chemgauss4 score>
-8.871468

$$$$
C19331409	P28924605
  -OEChem-05182014473D

 51 53  0     1  0  0  0  0  0999 V2000
  118.6606  105.7245  104.4237 C   0  0  0  0  0  0  0  0  0  0  0  0
  120.3313  103.9207  104.2938 C   0  0  0  0  0  0  0  0  0  0  0  0
  120.7409  106.1429  103.1751 C   0  0  0  0  0  0  0  0  0  0  0  0
  119.9700  105.0439  106.3966 C   0  0  0  0  0  0  0  0  0  0  0  0
  120.3801  107.2692  105.2764 C   0  0  0  0  0  0  0  0  0  0  0  0
  121.9939  105.4837  105.1659 C   0  0  0  0  0  0  0  0  0  0  0  0
  119.6820  105.0663  103.4902 C   0  0  0  0  0  0  0  0  0  0  0  0
  119.2988  106.2550  105.7114 C   0  0  0  0  0  0  0  0  0  0  0  0
  119.0294  104.5438  102.2135 C   0  0  0  0  0  0  0  0  0  0  0  0
  116.5664  108.7423  106.8638 C   0  0  0  0  0  0  0  0  0  0  0  0
  118.2691  106.9070  106.6297 C   0  0  0  0  0  0  0  0  0  0  0  0
  117.6112  108.1086  105.9591 C   0  0  0  0  0  0  0  0  0  0  0  0
  126.0655  106.0905  107.0847 C   0  0  0  0  0  0  0  0  0  0  0  0
  122.7978  105.9508  106.3886 C   0  0  2  0  0  0  0  0  0  0  0  0
  124.9626  107.1464  107.1467 C   0  0  1  0  0  0  0  0  0  0  0  0
  123.9048  106.9556  106.0489 C   0  0  2  0  0  0  0  0  0  0  0  0
  120.9961  104.4369  105.5129 N   0  0  2  0  0  0  0  0  0  0  0  0
  121.3985  106.6203  104.4138 N   0  0  1  0  0  0  0  0  0  0  0  0
  117.4645  105.8165  104.1683 O   0  0  0  0  0  0  0  0  0  0  0  0
  127.1961  106.5657  107.8088 O   0  0  0  0  0  0  0  0  0  0  0  0
  123.3894  104.7934  106.9784 O   0  0  0  0  0  0  0  0  0  0  0  0
  124.3279  107.0653  108.4243 O   0  0  0  0  0  0  0  0  0  0  0  0
  123.2741  108.2178  105.8003 O   0  0  0  0  0  0  0  0  0  0  0  0
  119.5768  103.1772  104.5850 H   0  0  0  0  0  0  0  0  0  0  0  0
  121.0540  103.3745  103.6762 H   0  0  0  0  0  0  0  0  0  0  0  0
  121.4928  105.7558  102.4775 H   0  0  0  0  0  0  0  0  0  0  0  0
  120.2809  106.9983  102.6617 H   0  0  0  0  0  0  0  0  0  0  0  0
  120.4413  105.3485  107.3402 H   0  0  0  0  0  0  0  0  0  0  0  0
  119.2246  104.2830  106.6636 H   0  0  0  0  0  0  0  0  0  0  0  0
  119.9297  108.1120  104.7354 H   0  0  0  0  0  0  0  0  0  0  0  0
  120.8753  107.7042  106.1543 H   0  0  0  0  0  0  0  0  0  0  0  0
  122.7507  105.0177  104.5177 H   0  0  0  0  0  0  0  0  0  0  0  0
  119.7819  104.0835  101.5746 H   0  0  0  0  0  0  0  0  0  0  0  0
  118.5598  105.3656  101.6746 H   0  0  0  0  0  0  0  0  0  0  0  0
  118.2715  103.8020  102.4619 H   0  0  0  0  0  0  0  0  0  0  0  0
  115.7918  108.0182  107.1357 H   0  0  0  0  0  0  0  0  0  0  0  0
  116.0831  109.5821  106.3545 H   0  0  0  0  0  0  0  0  0  0  0  0
  117.0221  109.1204  107.7846 H   0  0  0  0  0  0  0  0  0  0  0  0
  117.5117  106.1635  106.8968 H   0  0  0  0  0  0  0  0  0  0  0  0
  118.7655  107.2169  107.5545 H   0  0  0  0  0  0  0  0  0  0  0  0
  118.3701  108.8583  105.7061 H   0  0  0  0  0  0  0  0  0  0  0  0
  117.1352  107.7998  105.0211 H   0  0  0  0  0  0  0  0  0  0  0  0
  125.7380  105.1527  107.5440 H   0  0  0  0  0  0  0  0  0  0  0  0
  126.3861  105.9048  106.0547 H   0  0  0  0  0  0  0  0  0  0  0  0
  122.1116  106.3622  107.1305 H   0  0  0  0  0  0  0  0  0  0  0  0
  125.4085  108.1445  107.0725 H   0  0  0  0  0  0  0  0  0  0  0  0
  124.4016  106.6683  105.1140 H   0  0  0  0  0  0  0  0  0  0  0  0
  127.8739  105.8743  107.7493 H   0  0  0  0  0  0  0  0  0  0  0  0
  123.8920  105.1039  107.7467 H   0  0  0  0  0  0  0  0  0  0  0  0
  125.0180  107.2348  109.0826 H   0  0  0  0  0  0  0  0  0  0  0  0
  122.6717  108.0753  105.0566 H   0  0  0  0  0  0  0  0  0  0  0  0
  1  7  1  0  0  0  0
  1  8  1  0  0  0  0
  1 19  2  0  0  0  0
  2  7  1  0  0  0  0
  2 17  1  0  0  0  0
  3  7  1  0  0  0  0
  3 18  1  0  0  0  0
  4  8  1  0  0  0  0
  4 17  1  0  0  0  0
  5  8  1  0  0  0  0
  5 18  1  0  0  0  0
  6 14  1  0  0  0  0
  6 17  1  0  0  0  0
  6 18  1  0  0  0  0
  7  9  1  0  0  0  0
  8 11  1  0  0  0  0
 10 12  1  0  0  0  0
 11 12  1  0  0  0  0
 13 15  1  0  0  0  0
 13 20  1  0  0  0  0
 14 16  1  0  0  0  0
 14 21  1  0  0  0  0
 15 16  1  0  0  0  0
 15 22  1  0  0  0  0
 16 23  1  0  0  0  0
  2 24  1  0  0  0  0
  2 25  1  0  0  0  0
  3 26  1  0  0  0  0
  3 27  1  0  0  0  0
  4 28  1  0  0  0  0
  4 29  1  0  0  0  0
  5 30  1  0  0  0  0
  5 31  1  0  0  0  0
  6 32  1  0  0  0  0
  9 33  1  0  0  0  0
  9 34  1  0  0  0  0
  9 35  1  0  0  0  0
 10 36  1  0  0  0  0
 10 37  1  0  0  0  0
 10 38  1  0  0  0  0
 11 39  1  0  0  0  0
 11 40  1  0  0  0  0
 12 41  1  0  0  0  0
 12 42  1  0  0  0  0
 13 43  1  0  0  0  0
 13 44  1  0  0  0  0
 14 45  1  0  0  0  0
 15 46  1  0  0  0  0
 16 47  1  0  0  0  0
 20 48  1  0  0  0  0
 21 49  1  0  0  0  0
 22 50  1  0  0  0  0
 23 51  1  0  0  0  0
M  END
> <FRED Chemgauss4 score>
-8.867107

$$$$
C97104505	P153724932
  -OEChem-05182014473D

 36 37  0     1  0  0  0  0  0999 V2000
  119.5889  105.0357  104.8529 C   0  0  0  0  0  0  0  0  0  0  0  0
  118.2474  104.7679  104.5802 C   0  0  0  0  0  0  0  0  0  0  0  0
  118.7383  104.7175  102.2151 C   0  0  0  0  0  0  0  0  0  0  0  0
  120.5051  105.1445  103.8068 C   0  0  0  0  0  0  0  0  0  0  0  0
  117.8222  104.6088  103.2613 C   0  0  0  0  0  0  0  0  0  0  0  0
  120.0798  104.9854  102.4879 C   0  0  0  0  0  0  0  0  0  0  0  0
  125.4768  105.4381  107.4329 C   0  0  0  0  0  0  0  0  0  0  0  0
  125.4465  104.3397  108.4722 C   0  0  0  0  0  0  0  0  0  0  0  0
  124.1031  105.3160  106.8223 C   0  0  1  0  0  0  0  0  0  0  0  0
  123.2326  104.9667  108.0226 C   0  0  2  0  0  0  0  0  0  0  0  0
  122.6766  106.1425  108.8186 C   0  0  0  0  0  0  0  0  0  0  0  0
  121.9393  105.4348  104.1427 C   0  0  0  0  0  0  0  0  0  0  0  0
  116.4659  104.3375  102.9856 N   0  0  0  0  0  0  0  0  0  0  0  0
  122.0661  106.2394  105.3712 N   0  0  0  0  0  0  0  0  0  0  0  0
  123.5036  107.8465  106.8013 O   0  0  0  0  0  0  0  0  0  0  0  0
  124.4883  106.7979  104.7308 O   0  0  0  0  0  0  0  0  0  0  0  0
  124.0869  104.2193  108.9149 O   0  0  0  0  0  0  0  0  0  0  0  0
  123.6207  106.7192  105.8933 S   0  0  0  0  0  0  0  0  0  0  0  0
  121.1850  105.1147  101.1684 Cl  0  0  0  0  0  0  0  0  0  0  0  0
  119.9095  105.1594  105.8839 H   0  0  0  0  0  0  0  0  0  0  0  0
  117.5425  104.6859  105.4037 H   0  0  0  0  0  0  0  0  0  0  0  0
  118.4011  104.5935  101.1883 H   0  0  0  0  0  0  0  0  0  0  0  0
  125.7099  106.4132  107.8596 H   0  0  0  0  0  0  0  0  0  0  0  0
  126.2342  105.2027  106.6801 H   0  0  0  0  0  0  0  0  0  0  0  0
  125.7872  103.3802  108.0741 H   0  0  0  0  0  0  0  0  0  0  0  0
  126.0595  104.5911  109.3430 H   0  0  0  0  0  0  0  0  0  0  0  0
  124.0798  104.4559  106.0750 H   0  0  0  0  0  0  0  0  0  0  0  0
  122.4303  104.3236  107.7340 H   0  0  0  0  0  0  0  0  0  0  0  0
  123.4851  106.8111  109.1221 H   0  0  0  0  0  0  0  0  0  0  0  0
  122.1647  105.7853  109.7149 H   0  0  0  0  0  0  0  0  0  0  0  0
  121.9652  106.7080  108.2127 H   0  0  0  0  0  0  0  0  0  0  0  0
  122.4974  104.5037  104.2903 H   0  0  0  0  0  0  0  0  0  0  0  0
  122.4298  105.9829  103.3314 H   0  0  0  0  0  0  0  0  0  0  0  0
  115.8284  104.2149  103.7462 H   0  0  0  0  0  0  0  0  0  0  0  0
  116.1828  104.1789  102.0397 H   0  0  0  0  0  0  0  0  0  0  0  0
  121.3018  106.9133  105.5093 H   0  0  0  0  0  0  0  0  0  0  0  0
  1  2  2  0  0  0  0
  1  4  1  0  0  0  0
  2  5  1  0  0  0  0
  3  5  2  0  0  0  0
  3  6  1  0  0  0  0
  4  6  2  0  0  0  0
  4 12  1  0  0  0  0
  5 13  1  0  0  0  0
  6 19  1  0  0  0  0
  7  8  1  0  0  0  0
  7  9  1  0  0  0  0
  8 17  1  0  0  0  0
  9 10  1  0  0  0  0
  9 18  1  0  0  0  0
 10 11  1  0  0  0  0
 10 17  1  0  0  0  0
 12 14  1  0  0  0  0
 14 18  1  0  0  0  0
 15 18  2  0  0  0  0
 16 18  2  0  0  0  0
  1 20  1  0  0  0  0
  2 21  1  0  0  0  0
  3 22  1  0  0  0  0
  7 23  1  0  0  0  0
  7 24  1  0  0  0  0
  8 25  1  0  0  0  0
  8 26  1  0  0  0  0
  9 27  1  0  0  0  0
 10 28  1  0  0  0  0
 11 29  1  0  0  0  0
 11 30  1  0  0  0  0
 11 31  1  0  0  0  0
 12 32  1  0  0  0  0
 12 33  1  0  0  0  0
 13 34  1  0  0  0  0
 13 35  1  0  0  0  0
 14 36  1  0  0  0  0
M  END
> <FRED Chemgauss4 score>
-8.865593

$$$$
C40377149	P61293722
  -OEChem-05182014473D

 31 31  0     0  0  0  0  0  0999 V2000
  120.7331  104.6881  102.7748 C   0  0  0  0  0  0  0  0  0  0  0  0
  119.3762  105.4516  104.6079 C   0  0  0  0  0  0  0  0  0  0  0  0
  119.6973  103.8330  102.4348 C   0  0  0  0  0  0  0  0  0  0  0  0
  118.4011  104.5624  104.1857 C   0  0  0  0  0  0  0  0  0  0  0  0
  120.5616  105.5095  103.8834 C   0  0  0  0  0  0  0  0  0  0  0  0
  125.9762  105.2677  108.7933 C   0  0  0  0  0  0  0  0  0  0  0  0
  121.6582  106.4600  104.2993 C   0  0  0  0  0  0  0  0  0  0  0  0
  125.8514  105.9283  107.4389 C   0  0  0  0  0  0  0  0  0  0  0  0
  122.6415  105.8402  105.2848 C   0  0  0  0  0  0  0  0  0  0  0  0
  118.5315  103.7487  103.1141 N   0  0  0  0  0  0  0  0  0  0  0  0
  125.8637  103.9723  108.8201 N   0  0  0  0  0  0  0  0  0  0  0  0
  126.2114  106.1074  109.8573 N   0  0  0  0  0  0  0  0  0  0  0  0
  124.4191  106.2191  107.2564 N   0  0  0  0  0  0  0  0  0  0  0  0
  124.9664  106.9559  104.8372 O   0  0  0  0  0  0  0  0  0  0  0  0
  123.2381  108.2218  106.1664 O   0  0  0  0  0  0  0  0  0  0  0  0
  125.6444  103.4820  107.5293 O   0  0  0  0  0  0  0  0  0  0  0  0
  123.8990  106.9788  105.8180 S   0  0  0  0  0  0  0  0  0  0  0  0
  121.6460  104.7087  102.1893 H   0  0  0  0  0  0  0  0  0  0  0  0
  119.2127  106.0797  105.4769 H   0  0  0  0  0  0  0  0  0  0  0  0
  119.7819  103.1708  101.5792 H   0  0  0  0  0  0  0  0  0  0  0  0
  117.4586  104.4792  104.7168 H   0  0  0  0  0  0  0  0  0  0  0  0
  121.1977  107.3405  104.7664 H   0  0  0  0  0  0  0  0  0  0  0  0
  122.1954  106.8300  103.4168 H   0  0  0  0  0  0  0  0  0  0  0  0
  126.2009  105.2629  106.6450 H   0  0  0  0  0  0  0  0  0  0  0  0
  126.4230  106.8602  107.4112 H   0  0  0  0  0  0  0  0  0  0  0  0
  122.1133  105.5307  106.1924 H   0  0  0  0  0  0  0  0  0  0  0  0
  123.1536  104.9668  104.8697 H   0  0  0  0  0  0  0  0  0  0  0  0
  126.3001  107.1112  109.7393 H   0  0  0  0  0  0  0  0  0  0  0  0
  126.3114  105.7414  110.7980 H   0  0  0  0  0  0  0  0  0  0  0  0
  123.9322  106.4837  108.1231 H   0  0  0  0  0  0  0  0  0  0  0  0
  125.5807  102.5256  107.6921 H   0  0  0  0  0  0  0  0  0  0  0  0
  1  3  1  0  0  0  0
  1  5  2  0  0  0  0
  2  4  2  0  0  0  0
  2  5  1  0  0  0  0
  3 10  2  0  0  0  0
  4 10  1  0  0  0  0
  5  7  1  0  0  0  0
  6  8  1  0  0  0  0
  6 11  2  0  0  0  0
  6 12  1  0  0  0  0
  7  9  1  0  0  0  0
  8 13  1  0  0  0  0
  9 17  1  0  0  0  0
 11 16  1  0  0  0  0
 13 17  1  0  0  0  0
 14 17  2  0  0  0  0
 15 17  2  0  0  0  0
  1 18  1  0  0  0  0
  2 19  1  0  0  0  0
  3 20  1  0  0  0  0
  4 21  1  0  0  0  0
  7 22  1  0  0  0  0
  7 23  1  0  0  0  0
  8 24  1  0  0  0  0
  8 25  1  0  0  0  0
  9 26  1  0  0  0  0
  9 27  1  0  0  0  0
 12 28  1  0  0  0  0
 12 29  1  0  0  0  0
 13 30  1  0  0  0  0
 16 31  1  0  0  0  0
M  END
> <FRED Chemgauss4 score>
-8.859406

$$$$
C85378026	P133586410
  -OEChem-05182014473D

 36 38  0     0  0  0  0  0  0999 V2000
  124.7192  104.2076  107.8634 C   0  0  0  0  0  0  0  0  0  0  0  0
  125.6864  105.1457  107.4916 C   0  0  0  0  0  0  0  0  0  0  0  0
  119.8300  105.3357   99.6485 C   0  0  0  0  0  0  0  0  0  0  0  0
  120.3630  105.5112  100.9581 C   0  0  0  0  0  0  0  0  0  0  0  0
  124.0411  106.4404  106.2612 C   0  0  0  0  0  0  0  0  0  0  0  0
  121.2051  104.2520  106.9883 C   0  0  0  0  0  0  0  0  0  0  0  0
  123.0489  105.5078  106.6233 C   0  0  0  0  0  0  0  0  0  0  0  0
  123.4101  104.4151  107.4145 C   0  0  0  0  0  0  0  0  0  0  0  0
  125.3548  106.2456  106.7029 C   0  0  0  0  0  0  0  0  0  0  0  0
  121.6548  105.3918  106.3624 C   0  0  0  0  0  0  0  0  0  0  0  0
  118.6743  104.5862   99.6562 C   0  0  0  0  0  0  0  0  0  0  0  0
  119.5940  104.8892  101.9172 C   0  0  0  0  0  0  0  0  0  0  0  0
  117.8282  104.1870   98.5106 C   0  0  0  0  0  0  0  0  0  0  0  0
  119.8120  104.8394  103.4019 C   0  0  0  0  0  0  0  0  0  0  0  0
  122.2710  103.6699  107.6204 N   0  0  0  0  0  0  0  0  0  0  0  0
  126.3550  107.1762  106.3439 N   0  0  0  0  0  0  0  0  0  0  0  0
  120.7997  105.8330  103.8465 N   0  0  0  0  0  0  0  0  0  0  0  0
  119.2907  106.3772  105.8623 O   0  0  0  0  0  0  0  0  0  0  0  0
  121.3264  107.7907  105.4349 O   0  0  0  0  0  0  0  0  0  0  0  0
  118.2360  104.0976  101.2379 S   0  0  0  0  0  0  0  0  0  0  0  0
  120.6973  106.4628  105.4417 S   0  0  0  0  0  0  0  0  0  0  0  0
  124.9782  103.3516  108.4774 H   0  0  0  0  0  0  0  0  0  0  0  0
  126.7107  105.0036  107.8297 H   0  0  0  0  0  0  0  0  0  0  0  0
  120.2746  105.7418   98.7487 H   0  0  0  0  0  0  0  0  0  0  0  0
  121.2643  106.0678  101.1812 H   0  0  0  0  0  0  0  0  0  0  0  0
  123.7880  107.3001  105.6461 H   0  0  0  0  0  0  0  0  0  0  0  0
  120.2236  103.8017  107.0419 H   0  0  0  0  0  0  0  0  0  0  0  0
  118.1583  103.2226   98.0938 H   0  0  0  0  0  0  0  0  0  0  0  0
  116.7689  104.0858   98.7979 H   0  0  0  0  0  0  0  0  0  0  0  0
  117.8566  104.9329   97.6994 H   0  0  0  0  0  0  0  0  0  0  0  0
  118.8753  105.0323  103.9363 H   0  0  0  0  0  0  0  0  0  0  0  0
  120.1669  103.8516  103.7140 H   0  0  0  0  0  0  0  0  0  0  0  0
  122.2286  102.8165  108.1601 H   0  0  0  0  0  0  0  0  0  0  0  0
  127.2802  107.0571  106.7011 H   0  0  0  0  0  0  0  0  0  0  0  0
  126.0985  107.9859  105.8181 H   0  0  0  0  0  0  0  0  0  0  0  0
  121.7186  105.7908  103.3891 H   0  0  0  0  0  0  0  0  0  0  0  0
  1  2  1  0  0  0  0
  1  8  2  0  0  0  0
  2  9  2  0  0  0  0
  3  4  1  0  0  0  0
  3 11  2  0  0  0  0
  4 12  2  0  0  0  0
  5  7  2  0  0  0  0
  5  9  1  0  0  0  0
  6 10  2  0  0  0  0
  6 15  1  0  0  0  0
  7  8  1  0  0  0  0
  7 10  1  0  0  0  0
  8 15  1  0  0  0  0
  9 16  1  0  0  0  0
 10 21  1  0  0  0  0
 11 13  1  0  0  0  0
 11 20  1  0  0  0  0
 12 14  1  0  0  0  0
 12 20  1  0  0  0  0
 14 17  1  0  0  0  0
 17 21  1  0  0  0  0
 18 21  2  0  0  0  0
 19 21  2  0  0  0  0
  1 22  1  0  0  0  0
  2 23  1  0  0  0  0
  3 24  1  0  0  0  0
  4 25  1  0  0  0  0
  5 26  1  0  0  0  0
  6 27  1  0  0  0  0
 13 28  1  0  0  0  0
 13 29  1  0  0  0  0
 13 30  1  0  0  0  0
 14 31  1  0  0  0  0
 14 32  1  0  0  0  0
 15 33  1  0  0  0  0
 16 34  1  0  0  0  0
 16 35  1  0  0  0  0
 17 36  1  0  0  0  0
M  END
> <FRED Chemgauss4 score>
-8.837698

$$$$
C41058875	P62326300
  -OEChem-05182014473D

 35 36  0     1  0  0  0  0  0999 V2000
  122.8610  106.3549  105.5845 C   0  0  0  0  0  0  0  0  0  0  0  0
  124.5763  106.6782  106.7293 C   0  0  0  0  0  0  0  0  0  0  0  0
  118.9336  106.0013  106.2680 C   0  0  0  0  0  0  0  0  0  0  0  0
  119.5544  107.1421  105.4721 C   0  0  0  0  0  0  0  0  0  0  0  0
  119.9922  105.1457  106.9516 C   0  0  0  0  0  0  0  0  0  0  0  0
  120.5760  106.6393  104.4550 C   0  0  0  0  0  0  0  0  0  0  0  0
  121.0204  104.6087  105.9592 C   0  0  0  0  0  0  0  0  0  0  0  0
  121.6277  105.6677  105.0209 C   0  0  0  0  0  0  0  0  0  0  0  0
  125.0381  104.3249  108.6224 C   0  0  0  0  0  0  0  0  0  0  0  0
  125.4415  105.7639  108.9200 C   0  0  0  0  0  0  0  0  0  0  0  0
  125.7219  106.6179  107.6512 C   0  0  1  0  0  0  0  0  0  0  0  0
  123.6508  105.7683  106.5315 N   0  0  0  0  0  0  0  0  0  0  0  0
  123.2396  107.5705  105.1839 N   0  0  0  0  0  0  0  0  0  0  0  0
  124.3388  107.7536  105.9312 N   0  0  0  0  0  0  0  0  0  0  0  0
  126.9362  106.1418  106.9913 N   0  0  0  0  0  0  0  0  0  0  0  0
  118.2519  106.4126  107.0246 H   0  0  0  0  0  0  0  0  0  0  0  0
  118.3266  105.3749  105.6023 H   0  0  0  0  0  0  0  0  0  0  0  0
  118.7633  107.6970  104.9493 H   0  0  0  0  0  0  0  0  0  0  0  0
  120.0365  107.8508  106.1576 H   0  0  0  0  0  0  0  0  0  0  0  0
  120.5007  105.7356  107.7248 H   0  0  0  0  0  0  0  0  0  0  0  0
  119.5075  104.3037  107.4646 H   0  0  0  0  0  0  0  0  0  0  0  0
  120.0372  106.1573  103.6100 H   0  0  0  0  0  0  0  0  0  0  0  0
  121.0867  107.5149  103.9952 H   0  0  0  0  0  0  0  0  0  0  0  0
  121.8338  104.1005  106.5238 H   0  0  0  0  0  0  0  0  0  0  0  0
  120.5526  103.7990  105.3575 H   0  0  0  0  0  0  0  0  0  0  0  0
  122.0305  105.0833  104.1126 H   0  0  0  0  0  0  0  0  0  0  0  0
  125.8002  103.8206  108.0198 H   0  0  0  0  0  0  0  0  0  0  0  0
  124.9213  103.7663  109.5566 H   0  0  0  0  0  0  0  0  0  0  0  0
  124.0865  104.2801  108.0838 H   0  0  0  0  0  0  0  0  0  0  0  0
  124.6530  106.2308  109.5236 H   0  0  0  0  0  0  0  0  0  0  0  0
  126.3470  105.7469  109.5398 H   0  0  0  0  0  0  0  0  0  0  0  0
  126.0022  107.6329  108.0090 H   0  0  0  0  0  0  0  0  0  0  0  0
  124.8600  108.6179  105.8416 H   0  0  0  0  0  0  0  0  0  0  0  0
  127.6478  105.7356  107.5580 H   0  0  0  0  0  0  0  0  0  0  0  0
  127.0956  106.4203  106.0480 H   0  0  0  0  0  0  0  0  0  0  0  0
  1  8  1  0  0  0  0
  1 12  1  0  0  0  0
  1 13  2  0  0  0  0
  2 11  1  0  0  0  0
  2 12  2  0  0  0  0
  2 14  1  0  0  0  0
  3  4  1  0  0  0  0
  3  5  1  0  0  0  0
  4  6  1  0  0  0  0
  5  7  1  0  0  0  0
  6  8  1  0  0  0  0
  7  8  1  0  0  0  0
  9 10  1  0  0  0  0
 10 11  1  0  0  0  0
 11 15  1  0  0  0  0
 13 14  1  0  0  0  0
  3 16  1  0  0  0  0
  3 17  1  0  0  0  0
  4 18  1  0  0  0  0
  4 19  1  0  0  0  0
  5 20  1  0  0  0  0
  5 21  1  0  0  0  0
  6 22  1  0  0  0  0
  6 23  1  0  0  0  0
  7 24  1  0  0  0  0
  7 25  1  0  0  0  0
  8 26  1  0  0  0  0
  9 27  1  0  0  0  0
  9 28  1  0  0  0  0
  9 29  1  0  0  0  0
 10 30  1  0  0  0  0
 10 31  1  0  0  0  0
 11 32  1  0  0  0  0
 14 33  1  0  0  0  0
 15 34  1  0  0  0  0
 15 35  1  0  0  0  0
M  END
> <FRED Chemgauss4 score>
-8.834908

$$$$
C01646389	P06812831
  -OEChem-05182014473D

 42 43  0     0  0  0  0  0  0999 V2000
  122.4677  105.6408  107.2148 C   0  0  0  0  0  0  0  0  0  0  0  0
  123.2618  104.9916  108.0978 C   0  0  0  0  0  0  0  0  0  0  0  0
  123.0665  106.4896  106.1423 C   0  0  0  0  0  0  0  0  0  0  0  0
  125.3065  105.8894  107.0299 C   0  0  0  0  0  0  0  0  0  0  0  0
  120.2659  105.1173  106.2209 C   0  0  0  0  0  0  0  0  0  0  0  0
  115.0284  105.0076  104.6887 C   0  0  0  0  0  0  0  0  0  0  0  0
  115.4570  103.8473  105.5825 C   0  0  0  0  0  0  0  0  0  0  0  0
  116.1932  105.5386  103.8579 C   0  0  0  0  0  0  0  0  0  0  0  0
  116.6479  104.2237  106.4623 C   0  0  0  0  0  0  0  0  0  0  0  0
  117.3846  105.9176  104.7359 C   0  0  0  0  0  0  0  0  0  0  0  0
  117.8192  104.7458  105.6229 C   0  0  0  0  0  0  0  0  0  0  0  0
  125.4806  104.3983  108.9832 C   0  0  0  0  0  0  0  0  0  0  0  0
  125.0823  107.3640  105.0838 C   0  0  0  0  0  0  0  0  0  0  0  0
  124.6558  105.1160  108.0057 N   0  0  0  0  0  0  0  0  0  0  0  0
  124.4572  106.5511  106.1233 N   0  0  0  0  0  0  0  0  0  0  0  0
  122.6844  104.2118  109.0826 N   0  0  0  0  0  0  0  0  0  0  0  0
  121.1002  105.5779  107.2294 N   0  0  0  0  0  0  0  0  0  0  0  0
  118.9108  105.1648  106.5000 N   0  0  0  0  0  0  0  0  0  0  0  0
  122.3270  107.0763  105.3514 O   0  0  0  0  0  0  0  0  0  0  0  0
  126.5366  105.9898  106.9622 O   0  0  0  0  0  0  0  0  0  0  0  0
  120.7451  104.5190  104.7221 S   0  0  0  0  0  0  0  0  0  0  0  0
  114.2198  104.6824  104.0245 H   0  0  0  0  0  0  0  0  0  0  0  0
  114.6257  105.8168  105.3104 H   0  0  0  0  0  0  0  0  0  0  0  0
  114.6162  103.5381  106.2135 H   0  0  0  0  0  0  0  0  0  0  0  0
  115.7230  102.9848  104.9589 H   0  0  0  0  0  0  0  0  0  0  0  0
  116.5027  104.7758  103.1330 H   0  0  0  0  0  0  0  0  0  0  0  0
  115.8671  106.4124  103.2826 H   0  0  0  0  0  0  0  0  0  0  0  0
  116.3390  104.9863  107.1892 H   0  0  0  0  0  0  0  0  0  0  0  0
  116.9627  103.3492  107.0448 H   0  0  0  0  0  0  0  0  0  0  0  0
  118.2194  106.2383  104.1008 H   0  0  0  0  0  0  0  0  0  0  0  0
  117.1194  106.7812  105.3599 H   0  0  0  0  0  0  0  0  0  0  0  0
  118.2172  103.9445  105.0065 H   0  0  0  0  0  0  0  0  0  0  0  0
  125.7233  103.4002  108.6093 H   0  0  0  0  0  0  0  0  0  0  0  0
  124.9433  104.2983  109.9302 H   0  0  0  0  0  0  0  0  0  0  0  0
  126.4115  104.9423  109.1642 H   0  0  0  0  0  0  0  0  0  0  0  0
  125.2155  108.3895  105.4380 H   0  0  0  0  0  0  0  0  0  0  0  0
  124.4553  107.3797  104.1881 H   0  0  0  0  0  0  0  0  0  0  0  0
  126.0604  106.9530  104.8197 H   0  0  0  0  0  0  0  0  0  0  0  0
  121.6981  104.1568  109.1051 H   0  0  0  0  0  0  0  0  0  0  0  0
  123.2873  103.7489  109.7140 H   0  0  0  0  0  0  0  0  0  0  0  0
  120.6750  105.9117  108.0879 H   0  0  0  0  0  0  0  0  0  0  0  0
  118.6483  105.5277  107.4114 H   0  0  0  0  0  0  0  0  0  0  0  0
  1  2  2  0  0  0  0
  1  3  1  0  0  0  0
  1 17  1  0  0  0  0
  2 14  1  0  0  0  0
  2 16  1  0  0  0  0
  3 15  1  0  0  0  0
  3 19  2  0  0  0  0
  4 14  1  0  0  0  0
  4 15  1  0  0  0  0
  4 20  2  0  0  0  0
  5 17  1  0  0  0  0
  5 18  1  0  0  0  0
  5 21  2  0  0  0  0
  6  7  1  0  0  0  0
  6  8  1  0  0  0  0
  7  9  1  0  0  0  0
  8 10  1  0  0  0  0
  9 11  1  0  0  0  0
 10 11  1  0  0  0  0
 11 18  1  0  0  0  0
 12 14  1  0  0  0  0
 13 15  1  0  0  0  0
  6 22  1  0  0  0  0
  6 23  1  0  0  0  0
  7 24  1  0  0  0  0
  7 25  1  0  0  0  0
  8 26  1  0  0  0  0
  8 27  1  0  0  0  0
  9 28  1  0  0  0  0
  9 29  1  0  0  0  0
 10 30  1  0  0  0  0
 10 31  1  0  0  0  0
 11 32  1  0  0  0  0
 12 33  1  0  0  0  0
 12 34  1  0  0  0  0
 12 35  1  0  0  0  0
 13 36  1  0  0  0  0
 13 37  1  0  0  0  0
 13 38  1  0  0  0  0
 16 39  1  0  0  0  0
 16 40  1  0  0  0  0
 17 41  1  0  0  0  0
 18 42  1  0  0  0  0
M  END
> <FRED Chemgauss4 score>
-8.832062

$$$$
C45169388	P68083549
  -OEChem-05182014473D

 42 43  0     1  0  0  0  0  0999 V2000
  122.6259  108.6230  108.7221 C   0  0  0  0  0  0  0  0  0  0  0  0
  120.4481  107.9931  107.5846 C   0  0  0  0  0  0  0  0  0  0  0  0
  121.8849  108.0228  107.7315 C   0  0  0  0  0  0  0  0  0  0  0  0
  119.5407  108.9799  108.0144 C   0  0  0  0  0  0  0  0  0  0  0  0
  119.6583  107.0271  107.0107 C   0  0  0  0  0  0  0  0  0  0  0  0
  123.9176  107.6211  107.2441 C   0  0  0  0  0  0  0  0  0  0  0  0
  119.8362  110.2507  108.7017 C   0  0  0  0  0  0  0  0  0  0  0  0
  119.9970  105.7397  106.3733 C   0  0  0  0  0  0  0  0  0  0  0  0
  124.8228  105.0352  108.9071 C   0  0  0  0  0  0  0  0  0  0  0  0
  123.9668  105.0404  105.8993 C   0  0  0  0  0  0  0  0  0  0  0  0
  117.1776  106.8108  106.6711 C   0  0  0  0  0  0  0  0  0  0  0  0
  125.7363  104.8613  107.7010 C   0  0  0  0  0  0  0  0  0  0  0  0
  125.2083  107.1507  106.5969 C   0  0  1  0  0  0  0  0  0  0  0  0
  125.2955  105.6106  106.4215 C   0  0  2  0  0  0  0  0  0  0  0  0
  122.6949  107.4006  106.8147 N   0  0  0  0  0  0  0  0  0  0  0  0
  118.2716  108.6694  107.7370 N   0  0  0  0  0  0  0  0  0  0  0  0
  123.9260  108.3567  108.3965 N   0  0  0  0  0  0  0  0  0  0  0  0
  118.3759  107.4766  107.1267 N   0  0  0  0  0  0  0  0  0  0  0  0
  125.3328  107.8393  105.3288 N   0  0  0  0  0  0  0  0  0  0  0  0
  122.3618  109.1958  109.5998 H   0  0  0  0  0  0  0  0  0  0  0  0
  119.9993  111.0668  107.9781 H   0  0  0  0  0  0  0  0  0  0  0  0
  119.0169  110.5594  109.3741 H   0  0  0  0  0  0  0  0  0  0  0  0
  120.7380  110.1804  109.3347 H   0  0  0  0  0  0  0  0  0  0  0  0
  120.0048  104.9208  107.1112 H   0  0  0  0  0  0  0  0  0  0  0  0
  119.2792  105.4690  105.5801 H   0  0  0  0  0  0  0  0  0  0  0  0
  120.9890  105.7652  105.8905 H   0  0  0  0  0  0  0  0  0  0  0  0
  124.7359  106.0982  109.1553 H   0  0  0  0  0  0  0  0  0  0  0  0
  125.2187  104.5235  109.7889 H   0  0  0  0  0  0  0  0  0  0  0  0
  123.8153  104.6597  108.7111 H   0  0  0  0  0  0  0  0  0  0  0  0
  123.1563  105.2237  106.6127 H   0  0  0  0  0  0  0  0  0  0  0  0
  123.6850  105.4857  104.9398 H   0  0  0  0  0  0  0  0  0  0  0  0
  124.0334  103.9567  105.7567 H   0  0  0  0  0  0  0  0  0  0  0  0
  116.8135  106.1776  107.4844 H   0  0  0  0  0  0  0  0  0  0  0  0
  116.4257  107.5580  106.4024 H   0  0  0  0  0  0  0  0  0  0  0  0
  117.4125  106.2065  105.7905 H   0  0  0  0  0  0  0  0  0  0  0  0
  125.8057  103.7896  107.4744 H   0  0  0  0  0  0  0  0  0  0  0  0
  126.7501  105.1702  107.9811 H   0  0  0  0  0  0  0  0  0  0  0  0
  126.0674  107.4907  107.1881 H   0  0  0  0  0  0  0  0  0  0  0  0
  126.0489  105.3862  105.6534 H   0  0  0  0  0  0  0  0  0  0  0  0
  124.7432  108.6516  108.9145 H   0  0  0  0  0  0  0  0  0  0  0  0
  125.9367  107.4521  104.6284 H   0  0  0  0  0  0  0  0  0  0  0  0
  124.9826  108.7759  105.2537 H   0  0  0  0  0  0  0  0  0  0  0  0
  1  3  2  0  0  0  0
  1 17  1  0  0  0  0
  2  3  1  0  0  0  0
  2  4  1  0  0  0  0
  2  5  2  0  0  0  0
  3 15  1  0  0  0  0
  4  7  1  0  0  0  0
  4 16  2  0  0  0  0
  5  8  1  0  0  0  0
  5 18  1  0  0  0  0
  6 13  1  0  0  0  0
  6 15  2  0  0  0  0
  6 17  1  0  0  0  0
  9 12  1  0  0  0  0
 10 14  1  0  0  0  0
 11 18  1  0  0  0  0
 12 14  1  0  0  0  0
 13 14  1  0  0  0  0
 13 19  1  0  0  0  0
 16 18  1  0  0  0  0
  1 20  1  0  0  0  0
  7 21  1  0  0  0  0
  7 22  1  0  0  0  0
  7 23  1  0  0  0  0
  8 24  1  0  0  0  0
  8 25  1  0  0  0  0
  8 26  1  0  0  0  0
  9 27  1  0  0  0  0
  9 28  1  0  0  0  0
  9 29  1  0  0  0  0
 10 30  1  0  0  0  0
 10 31  1  0  0  0  0
 10 32  1  0  0  0  0
 11 33  1  0  0  0  0
 11 34  1  0  0  0  0
 11 35  1  0  0  0  0
 12 36  1  0  0  0  0
 12 37  1  0  0  0  0
 13 38  1  0  0  0  0
 14 39  1  0  0  0  0
 17 40  1  0  0  0  0
 19 41  1  0  0  0  0
 19 42  1  0  0  0  0
M  END
> <FRED Chemgauss4 score>
-8.827009

$$$$
C19428761	P28756483
  -OEChem-05182014473D

 21 20  0     0  0  0  0  0  0999 V2000
  124.4447  105.2067  106.8860 C   0  0  0  0  0  0  0  0  0  0  0  0
  123.4124  108.2669  107.6107 C   0  0  0  0  0  0  0  0  0  0  0  0
  124.4657  108.4868  106.5444 C   0  0  0  0  0  0  0  0  0  0  0  0
  125.2319  104.5001  107.9696 C   0  0  0  0  0  0  0  0  0  0  0  0
  125.3068  106.0896  106.1128 N   0  5  0  0  0  0  0  0  0  0  0  0
  123.4157  109.3954  108.5732 N   0  3  0  0  0  0  0  0  0  0  0  0
  125.1784  107.8109  104.1875 O   0  0  0  0  0  0  0  0  0  0  0  0
  123.0702  106.9060  105.1045 O   0  0  0  0  0  0  0  0  0  0  0  0
  126.1989  103.7134  107.4504 F   0  0  0  0  0  0  0  0  0  0  0  0
  125.8136  105.3774  108.8154 F   0  0  0  0  0  0  0  0  0  0  0  0
  124.4153  103.7096  108.7031 F   0  0  0  0  0  0  0  0  0  0  0  0
  124.4848  107.2088  105.3273 S   0  0  0  0  0  0  0  0  0  0  0  0
  123.9771  104.4542  106.2408 H   0  0  0  0  0  0  0  0  0  0  0  0
  123.6277  105.7693  107.3525 H   0  0  0  0  0  0  0  0  0  0  0  0
  122.4109  108.2405  107.1719 H   0  0  0  0  0  0  0  0  0  0  0  0
  123.5836  107.3546  108.1890 H   0  0  0  0  0  0  0  0  0  0  0  0
  124.2604  109.4152  106.0023 H   0  0  0  0  0  0  0  0  0  0  0  0
  125.4729  108.5494  106.9673 H   0  0  0  0  0  0  0  0  0  0  0  0
  124.3583  109.5606  108.9423 H   0  0  0  0  0  0  0  0  0  0  0  0
  122.7952  109.2021  109.3670 H   0  0  0  0  0  0  0  0  0  0  0  0
  123.0955  110.2610  108.1254 H   0  0  0  0  0  0  0  0  0  0  0  0
  1  4  1  0  0  0  0
  1  5  1  0  0  0  0
  2  3  1  0  0  0  0
  2  6  1  0  0  0  0
  3 12  1  0  0  0  0
  4  9  1  0  0  0  0
  4 10  1  0  0  0  0
  4 11  1  0  0  0  0
  5 12  1  0  0  0  0
  7 12  2  0  0  0  0
  8 12  2  0  0  0  0
  1 13  1  0  0  0  0
  1 14  1  0  0  0  0
  2 15  1  0  0  0  0
  2 16  1  0  0  0  0
  3 17  1  0  0  0  0
  3 18  1  0  0  0  0
  6 19  1  0  0  0  0
  6 20  1  0  0  0  0
  6 21  1  0  0  0  0
M  CHG  2   5  -1   6   1
M  END
> <FRED Chemgauss4 score>
-8.794333

$$$$
C87875617	P137452266
  -OEChem-05182014473D

 34 34  0     1  0  0  0  0  0999 V2000
  119.5190  103.8861  106.4173 C   0  0  0  0  0  0  0  0  0  0  0  0
  120.5404  104.7050  106.8331 C   0  0  0  0  0  0  0  0  0  0  0  0
  121.0037  105.3166  105.6529 C   0  0  0  0  0  0  0  0  0  0  0  0
  122.1048  106.3035  105.5080 C   0  0  0  0  0  0  0  0  0  0  0  0
  125.4782  106.3328  106.9283 C   0  0  0  0  0  0  0  0  0  0  0  0
  117.3664  104.3078  103.7621 C   0  0  0  0  0  0  0  0  0  0  0  0
  123.9958  108.3175  107.3176 C   0  0  0  0  0  0  0  0  0  0  0  0
  126.3135  105.0755  108.9025 C   0  0  0  0  0  0  0  0  0  0  0  0
  118.5061  103.3940  104.1788 C   0  0  0  0  0  0  0  0  0  0  0  0
  124.2606  107.1054  106.4382 C   0  0  2  0  0  0  0  0  0  0  0  0
  120.3320  104.9202  104.5686 N   0  0  0  0  0  0  0  0  0  0  0  0
  119.4362  104.0505  105.0659 N   0  0  0  0  0  0  0  0  0  0  0  0
  120.9848  104.8722  108.0940 N   0  0  0  0  0  0  0  0  0  0  0  0
  123.1365  106.2066  106.4330 N   0  0  0  0  0  0  0  0  0  0  0  0
  125.3155  105.8716  108.2271 N   0  0  0  0  0  0  0  0  0  0  0  0
  122.0419  107.1460  104.6165 O   0  0  0  0  0  0  0  0  0  0  0  0
  126.4648  106.1203  106.2266 O   0  0  0  0  0  0  0  0  0  0  0  0
  118.8600  103.2167  106.9536 H   0  0  0  0  0  0  0  0  0  0  0  0
  116.8027  104.6595  104.6327 H   0  0  0  0  0  0  0  0  0  0  0  0
  116.6758  103.7755  103.1008 H   0  0  0  0  0  0  0  0  0  0  0  0
  117.7401  105.1881  103.2287 H   0  0  0  0  0  0  0  0  0  0  0  0
  123.8341  108.0231  108.3609 H   0  0  0  0  0  0  0  0  0  0  0  0
  124.8405  109.0141  107.2979 H   0  0  0  0  0  0  0  0  0  0  0  0
  123.1026  108.8551  106.9816 H   0  0  0  0  0  0  0  0  0  0  0  0
  126.1075  104.0119  108.7567 H   0  0  0  0  0  0  0  0  0  0  0  0
  126.3075  105.2915  109.9743 H   0  0  0  0  0  0  0  0  0  0  0  0
  127.3074  105.2991  108.5056 H   0  0  0  0  0  0  0  0  0  0  0  0
  119.0639  103.0474  103.3014 H   0  0  0  0  0  0  0  0  0  0  0  0
  118.1210  102.5052  104.6913 H   0  0  0  0  0  0  0  0  0  0  0  0
  124.4197  107.4189  105.4007 H   0  0  0  0  0  0  0  0  0  0  0  0
  120.5404  104.4067  108.9011 H   0  0  0  0  0  0  0  0  0  0  0  0
  121.7305  105.5456  108.3303 H   0  0  0  0  0  0  0  0  0  0  0  0
  123.0841  105.5191  107.1813 H   0  0  0  0  0  0  0  0  0  0  0  0
  124.4824  106.1290  108.7481 H   0  0  0  0  0  0  0  0  0  0  0  0
  1  2  2  0  0  0  0
  1 12  1  0  0  0  0
  2  3  1  0  0  0  0
  2 13  1  0  0  0  0
  3  4  1  0  0  0  0
  3 11  2  0  0  0  0
  4 14  1  0  0  0  0
  4 16  2  0  0  0  0
  5 10  1  0  0  0  0
  5 15  1  0  0  0  0
  5 17  2  0  0  0  0
  6  9  1  0  0  0  0
  7 10  1  0  0  0  0
  8 15  1  0  0  0  0
  9 12  1  0  0  0  0
 10 14  1  0  0  0  0
 11 12  1  0  0  0  0
  1 18  1  0  0  0  0
  6 19  1  0  0  0  0
  6 20  1  0  0  0  0
  6 21  1  0  0  0  0
  7 22  1  0  0  0  0
  7 23  1  0  0  0  0
  7 24  1  0  0  0  0
  8 25  1  0  0  0  0
  8 26  1  0  0  0  0
  8 27  1  0  0  0  0
  9 28  1  0  0  0  0
  9 29  1  0  0  0  0
 10 30  1  0  0  0  0
 13 31  1  0  0  0  0
 13 32  1  0  0  0  0
 14 33  1  0  0  0  0
 15 34  1  0  0  0  0
M  END
> <FRED Chemgauss4 score>
-8.760504

$$$$
C40348239	P61248580
  -OEChem-05182014473D

 34 35  0     0  0  0  0  0  0999 V2000
  125.8322  103.8115  107.5857 C   0  0  0  0  0  0  0  0  0  0  0  0
  125.3643  104.6191  106.5492 C   0  0  0  0  0  0  0  0  0  0  0  0
  124.5991  105.1434  109.1802 C   0  0  0  0  0  0  0  0  0  0  0  0
  119.0284  104.4324  102.4465 C   0  0  0  0  0  0  0  0  0  0  0  0
  124.1311  105.9510  108.1437 C   0  0  0  0  0  0  0  0  0  0  0  0
  125.4496  104.0736  108.9012 C   0  0  0  0  0  0  0  0  0  0  0  0
  124.5137  105.6889  106.8282 C   0  0  0  0  0  0  0  0  0  0  0  0
  119.8850  105.0236  101.5415 C   0  0  0  0  0  0  0  0  0  0  0  0
  121.2860  104.7803  103.2112 C   0  0  0  0  0  0  0  0  0  0  0  0
  123.2221  107.0889  108.4761 C   0  0  0  0  0  0  0  0  0  0  0  0
  119.5328  105.4496  100.1725 C   0  0  0  0  0  0  0  0  0  0  0  0
  122.5469  104.8263  104.0250 C   0  0  0  0  0  0  0  0  0  0  0  0
  121.1798  105.2243  101.9784 N   0  0  0  0  0  0  0  0  0  0  0  0
  125.9229  103.2564  109.9488 N   0  0  0  0  0  0  0  0  0  0  0  0
  122.5062  105.8858  105.0430 N   0  0  0  0  0  0  0  0  0  0  0  0
  123.6071  107.9993  106.0218 O   0  0  0  0  0  0  0  0  0  0  0  0
  124.9112  106.5646  104.4202 O   0  0  0  0  0  0  0  0  0  0  0  0
  119.8681  104.1086  103.9064 S   0  0  0  0  0  0  0  0  0  0  0  0
  123.9459  106.6816  105.5034 S   0  0  0  0  0  0  0  0  0  0  0  0
  126.4936  102.9799  107.3565 H   0  0  0  0  0  0  0  0  0  0  0  0
  125.6686  104.4048  105.5281 H   0  0  0  0  0  0  0  0  0  0  0  0
  124.3009  105.3483  110.2061 H   0  0  0  0  0  0  0  0  0  0  0  0
  117.9839  104.1814  102.3270 H   0  0  0  0  0  0  0  0  0  0  0  0
  123.8055  107.9954  108.6740 H   0  0  0  0  0  0  0  0  0  0  0  0
  122.5263  107.2933  107.6532 H   0  0  0  0  0  0  0  0  0  0  0  0
  122.6136  106.8642  109.3607 H   0  0  0  0  0  0  0  0  0  0  0  0
  119.1745  106.4919  100.1609 H   0  0  0  0  0  0  0  0  0  0  0  0
  120.3928  105.3829   99.4846 H   0  0  0  0  0  0  0  0  0  0  0  0
  118.7417  104.8180   99.7336 H   0  0  0  0  0  0  0  0  0  0  0  0
  122.7106  103.8722  104.5376 H   0  0  0  0  0  0  0  0  0  0  0  0
  123.4192  105.0073  103.3882 H   0  0  0  0  0  0  0  0  0  0  0  0
  126.4935  102.4648  109.7304 H   0  0  0  0  0  0  0  0  0  0  0  0
  125.6041  103.4256  110.8814 H   0  0  0  0  0  0  0  0  0  0  0  0
  121.6133  106.3850  105.1384 H   0  0  0  0  0  0  0  0  0  0  0  0
  1  2  2  0  0  0  0
  1  6  1  0  0  0  0
  2  7  1  0  0  0  0
  3  5  1  0  0  0  0
  3  6  2  0  0  0  0
  4  8  2  0  0  0  0
  4 18  1  0  0  0  0
  5  7  2  0  0  0  0
  5 10  1  0  0  0  0
  6 14  1  0  0  0  0
  7 19  1  0  0  0  0
  8 11  1  0  0  0  0
  8 13  1  0  0  0  0
  9 12  1  0  0  0  0
  9 13  2  0  0  0  0
  9 18  1  0  0  0  0
 12 15  1  0  0  0  0
 15 19  1  0  0  0  0
 16 19  2  0  0  0  0
 17 19  2  0  0  0  0
  1 20  1  0  0  0  0
  2 21  1  0  0  0  0
  3 22  1  0  0  0  0
  4 23  1  0  0  0  0
 10 24  1  0  0  0  0
 10 25  1  0  0  0  0
 10 26  1  0  0  0  0
 11 27  1  0  0  0  0
 11 28  1  0  0  0  0
 11 29  1  0  0  0  0
 12 30  1  0  0  0  0
 12 31  1  0  0  0  0
 14 32  1  0  0  0  0
 14 33  1  0  0  0  0
 15 34  1  0  0  0  0
M  END
> <FRED Chemgauss4 score>
-8.745233

$$$$
C84208274	P131759461
  -OEChem-05182014473D

 39 41  0     0  0  0  0  0  0999 V2000
  119.8675  104.2547  101.6671 C   0  0  0  0  0  0  0  0  0  0  0  0
  121.1337  104.2003  102.2496 C   0  0  0  0  0  0  0  0  0  0  0  0
  118.7459  104.5035  102.4583 C   0  0  0  0  0  0  0  0  0  0  0  0
  121.2784  104.3946  103.6233 C   0  0  0  0  0  0  0  0  0  0  0  0
  123.3770  104.8057  106.7653 C   0  0  0  0  0  0  0  0  0  0  0  0
  124.6892  105.1026  107.1482 C   0  0  0  0  0  0  0  0  0  0  0  0
  124.2476  107.4958  107.0724 C   0  0  0  0  0  0  0  0  0  0  0  0
  118.8906  104.6978  103.8319 C   0  0  0  0  0  0  0  0  0  0  0  0
  120.1569  104.6433  104.4145 C   0  0  0  0  0  0  0  0  0  0  0  0
  122.9257  107.2159  106.6870 C   0  0  0  0  0  0  0  0  0  0  0  0
  122.5269  105.8898  106.5444 C   0  0  0  0  0  0  0  0  0  0  0  0
  125.1188  106.4230  107.2997 C   0  0  0  0  0  0  0  0  0  0  0  0
  120.8741  107.2917  106.0999 C   0  0  0  0  0  0  0  0  0  0  0  0
  119.5185  107.7401  105.7204 C   0  0  0  0  0  0  0  0  0  0  0  0
  117.2321  103.7352  105.4472 C   0  0  0  0  0  0  0  0  0  0  0  0
  117.6758  104.9639  104.6591 C   0  0  0  0  0  0  0  0  0  0  0  0
  120.3379  104.8491  105.8941 C   0  0  0  0  0  0  0  0  0  0  0  0
  121.8857  108.0723  106.4069 N   0  0  0  0  0  0  0  0  0  0  0  0
  121.2105  105.9684  106.1683 N   0  0  0  0  0  0  0  0  0  0  0  0
  126.4526  106.6823  107.6880 N   0  0  0  0  0  0  0  0  0  0  0  0
  119.7552  104.1026  100.5978 H   0  0  0  0  0  0  0  0  0  0  0  0
  122.0066  104.0063  101.6330 H   0  0  0  0  0  0  0  0  0  0  0  0
  117.7635  104.5423  101.9949 H   0  0  0  0  0  0  0  0  0  0  0  0
  122.2693  104.3508  104.0677 H   0  0  0  0  0  0  0  0  0  0  0  0
  123.0443  103.7806  106.6481 H   0  0  0  0  0  0  0  0  0  0  0  0
  125.3792  104.2807  107.3287 H   0  0  0  0  0  0  0  0  0  0  0  0
  124.5804  108.5228  107.1900 H   0  0  0  0  0  0  0  0  0  0  0  0
  119.4388  107.8813  104.6305 H   0  0  0  0  0  0  0  0  0  0  0  0
  118.7444  107.0150  106.0229 H   0  0  0  0  0  0  0  0  0  0  0  0
  119.2493  108.6943  106.2037 H   0  0  0  0  0  0  0  0  0  0  0  0
  117.0358  102.8892  104.7797 H   0  0  0  0  0  0  0  0  0  0  0  0
  116.3150  103.9456  106.0064 H   0  0  0  0  0  0  0  0  0  0  0  0
  118.0024  103.4271  106.1623 H   0  0  0  0  0  0  0  0  0  0  0  0
  117.8641  105.7932  105.3585 H   0  0  0  0  0  0  0  0  0  0  0  0
  116.8454  105.3027  104.0201 H   0  0  0  0  0  0  0  0  0  0  0  0
  119.3766  105.0342  106.3887 H   0  0  0  0  0  0  0  0  0  0  0  0
  120.7651  103.9573  106.3687 H   0  0  0  0  0  0  0  0  0  0  0  0
  127.0560  105.9138  107.8943 H   0  0  0  0  0  0  0  0  0  0  0  0
  126.7385  107.6270  107.8397 H   0  0  0  0  0  0  0  0  0  0  0  0
  1  2  1  0  0  0  0
  1  3  2  0  0  0  0
  2  4  2  0  0  0  0
  3  8  1  0  0  0  0
  4  9  1  0  0  0  0
  5  6  1  0  0  0  0
  5 11  2  0  0  0  0
  6 12  2  0  0  0  0
  7 10  2  0  0  0  0
  7 12  1  0  0  0  0
  8  9  2  0  0  0  0
  8 16  1  0  0  0  0
  9 17  1  0  0  0  0
 10 11  1  0  0  0  0
 10 18  1  0  0  0  0
 11 19  1  0  0  0  0
 12 20  1  0  0  0  0
 13 14  1  0  0  0  0
 13 18  2  0  0  0  0
 13 19  1  0  0  0  0
 15 16  1  0  0  0  0
 17 19  1  0  0  0  0
  1 21  1  0  0  0  0
  2 22  1  0  0  0  0
  3 23  1  0  0  0  0
  4 24  1  0  0  0  0
  5 25  1  0  0  0  0
  6 26  1  0  0  0  0
  7 27  1  0  0  0  0
 14 28  1  0  0  0  0
 14 29  1  0  0  0  0
 14 30  1  0  0  0  0
 15 31  1  0  0  0  0
 15 32  1  0  0  0  0
 15 33  1  0  0  0  0
 16 34  1  0  0  0  0
 16 35  1  0  0  0  0
 17 36  1  0  0  0  0
 17 37  1  0  0  0  0
 20 38  1  0  0  0  0
 20 39  1  0  0  0  0
M  END
> <FRED Chemgauss4 score>
-8.725890

$$$$
C75848109	P118209303
  -OEChem-05182014473D

 18 18  0     0  0  0  0  0  0999 V2000
  122.4275  105.6154  105.2209 C   0  0  0  0  0  0  0  0  0  0  0  0
  122.7425  104.5517  106.0332 C   0  0  0  0  0  0  0  0  0  0  0  0
  123.6943  106.4114  106.7349 C   0  0  0  0  0  0  0  0  0  0  0  0
  124.4710  107.3205  107.5157 C   0  0  0  0  0  0  0  0  0  0  0  0
  124.1496  104.3454  108.0915 C   0  0  0  0  0  0  0  0  0  0  0  0
  123.0234  106.7701  105.6629 N   0  0  0  0  0  0  0  0  0  0  0  0
  123.5549  105.0770  106.9983 N   0  0  0  0  0  0  0  0  0  0  0  0
  125.5078  107.9932  106.9510 N   0  0  0  0  0  0  0  0  0  0  0  0
  124.1789  107.5160  108.8266 N   0  3  0  0  0  0  0  0  0  0  0  0
  125.9397  107.8753  105.6032 O   0  5  0  0  0  0  0  0  0  0  0  0
  121.8020  105.6086  104.3402 H   0  0  0  0  0  0  0  0  0  0  0  0
  122.4685  103.5063  106.0084 H   0  0  0  0  0  0  0  0  0  0  0  0
  125.1206  103.9702  107.7577 H   0  0  0  0  0  0  0  0  0  0  0  0
  124.2717  105.0104  108.9510 H   0  0  0  0  0  0  0  0  0  0  0  0
  123.4935  103.5162  108.3707 H   0  0  0  0  0  0  0  0  0  0  0  0
  126.0572  108.6379  107.5083 H   0  0  0  0  0  0  0  0  0  0  0  0
  123.4113  107.0360  109.2838 H   0  0  0  0  0  0  0  0  0  0  0  0
  124.7302  108.1661  109.3756 H   0  0  0  0  0  0  0  0  0  0  0  0
  1  2  2  0  0  0  0
  1  6  1  0  0  0  0
  2  7  1  0  0  0  0
  3  4  1  0  0  0  0
  3  6  2  0  0  0  0
  3  7  1  0  0  0  0
  4  8  1  0  0  0  0
  4  9  2  0  0  0  0
  5  7  1  0  0  0  0
  8 10  1  0  0  0  0
  1 11  1  0  0  0  0
  2 12  1  0  0  0  0
  5 13  1  0  0  0  0
  5 14  1  0  0  0  0
  5 15  1  0  0  0  0
  8 16  1  0  0  0  0
  9 17  1  0  0  0  0
  9 18  1  0  0  0  0
M  CHG  2   9   1  10  -1
M  END
> <FRED Chemgauss4 score>
-8.721985

$$$$
C51362684	P76947179
  -OEChem-05182014473D

 28 30  0     1  0  0  0  0  0999 V2000
  121.1993  104.8542  107.2347 C   0  0  0  0  0  0  0  0  0  0  0  0
  122.5779  105.0422  107.3646 C   0  0  0  0  0  0  0  0  0  0  0  0
  117.4521  106.3209  104.2764 C   0  0  0  0  0  0  0  0  0  0  0  0
  117.1964  106.1607  102.8839 C   0  0  0  0  0  0  0  0  0  0  0  0
  121.1012  106.4269  105.3708 C   0  0  0  0  0  0  0  0  0  0  0  0
  120.4669  105.5408  106.2462 C   0  0  0  0  0  0  0  0  0  0  0  0
  123.1758  105.9224  106.4871 C   0  0  0  0  0  0  0  0  0  0  0  0
  122.4617  106.5966  105.5177 C   0  0  0  0  0  0  0  0  0  0  0  0
  118.4326  105.4633  104.7245 C   0  0  0  0  0  0  0  0  0  0  0  0
  117.9914  105.1867  102.3206 C   0  0  0  0  0  0  0  0  0  0  0  0
  124.5397  107.2343  105.2995 C   0  0  0  0  0  0  0  0  0  0  0  0
  125.6006  105.8866  107.1447 C   0  0  0  0  0  0  0  0  0  0  0  0
  118.9949  105.3184  106.1341 C   0  0  1  0  0  0  0  0  0  0  0  0
  124.4852  106.3277  106.3457 N   0  0  0  0  0  0  0  0  0  0  0  0
  125.5312  107.8142  104.8734 O   0  0  0  0  0  0  0  0  0  0  0  0
  123.2601  107.4288  104.7471 O   0  0  0  0  0  0  0  0  0  0  0  0
  119.0405  104.4702  103.4688 S   0  0  0  0  0  0  0  0  0  0  0  0
  118.0189  104.6676  100.6876 Cl  0  0  0  0  0  0  0  0  0  0  0  0
  118.4653  103.7438  106.8280 Cl  0  0  0  0  0  0  0  0  0  0  0  0
  120.6917  104.1681  107.9090 H   0  0  0  0  0  0  0  0  0  0  0  0
  123.1400  104.5140  108.1257 H   0  0  0  0  0  0  0  0  0  0  0  0
  116.9403  107.0308  104.9137 H   0  0  0  0  0  0  0  0  0  0  0  0
  116.4647  106.7344  102.3291 H   0  0  0  0  0  0  0  0  0  0  0  0
  120.5478  106.9604  104.6060 H   0  0  0  0  0  0  0  0  0  0  0  0
  126.0585  105.0019  106.6947 H   0  0  0  0  0  0  0  0  0  0  0  0
  125.2658  105.6345  108.1545 H   0  0  0  0  0  0  0  0  0  0  0  0
  126.3532  106.6767  107.2120 H   0  0  0  0  0  0  0  0  0  0  0  0
  118.4670  106.0459  106.7749 H   0  0  0  0  0  0  0  0  0  0  0  0
  1  2  2  0  0  0  0
  1  6  1  0  0  0  0
  2  7  1  0  0  0  0
  3  4  1  0  0  0  0
  3  9  2  0  0  0  0
  4 10  2  0  0  0  0
  5  6  2  0  0  0  0
  5  8  1  0  0  0  0
  6 13  1  0  0  0  0
  7  8  2  0  0  0  0
  7 14  1  0  0  0  0
  8 16  1  0  0  0  0
  9 13  1  0  0  0  0
  9 17  1  0  0  0  0
 10 17  1  0  0  0  0
 10 18  1  0  0  0  0
 11 14  1  0  0  0  0
 11 15  2  0  0  0  0
 11 16  1  0  0  0  0
 12 14  1  0  0  0  0
 13 19  1  0  0  0  0
  1 20  1  0  0  0  0
  2 21  1  0  0  0  0
  3 22  1  0  0  0  0
  4 23  1  0  0  0  0
  5 24  1  0  0  0  0
 12 25  1  0  0  0  0
 12 26  1  0  0  0  0
 12 27  1  0  0  0  0
 13 28  1  0  0  0  0
M  END
> <FRED Chemgauss4 score>
-8.702463

$$$$
C62701028	P96198372
  -OEChem-05182014473D

 33 34  0     0  0  0  0  0  0999 V2000
  125.2761  104.3055  107.2849 C   0  0  0  0  0  0  0  0  0  0  0  0
  118.8563  103.9518  106.3391 C   0  0  0  0  0  0  0  0  0  0  0  0
  123.9932  104.0243  107.7545 C   0  0  0  0  0  0  0  0  0  0  0  0
  118.3699  103.4091  105.1498 C   0  0  0  0  0  0  0  0  0  0  0  0
  125.5360  105.5205  106.6510 C   0  0  0  0  0  0  0  0  0  0  0  0
  120.6301  105.0439  105.1152 C   0  0  0  0  0  0  0  0  0  0  0  0
  123.2299  106.1731  106.9563 C   0  0  0  0  0  0  0  0  0  0  0  0
  119.9865  104.7693  106.3218 C   0  0  0  0  0  0  0  0  0  0  0  0
  122.9701  104.9580  107.5902 C   0  0  0  0  0  0  0  0  0  0  0  0
  119.0135  103.6837  103.9432 C   0  0  0  0  0  0  0  0  0  0  0  0
  124.5129  106.4543  106.4867 C   0  0  0  0  0  0  0  0  0  0  0  0
  120.1437  104.5012  103.9259 C   0  0  0  0  0  0  0  0  0  0  0  0
  120.5058  105.3488  107.5939 C   0  0  0  0  0  0  0  0  0  0  0  0
  125.2878  108.9463  107.0294 N   0  0  0  0  0  0  0  0  0  0  0  0
  121.6940  104.6779  108.0568 N   0  0  0  0  0  0  0  0  0  0  0  0
  125.9961  107.8054  104.8289 O   0  0  0  0  0  0  0  0  0  0  0  0
  123.5916  108.4881  105.1453 O   0  0  0  0  0  0  0  0  0  0  0  0
  118.5140  103.1367  102.7989 O   0  0  0  0  0  0  0  0  0  0  0  0
  124.8389  107.9767  105.6960 S   0  0  0  0  0  0  0  0  0  0  0  0
  121.0443  104.8942  102.3051 Br  0  0  0  0  0  0  0  0  0  0  0  0
  126.0728  103.5787  107.4129 H   0  0  0  0  0  0  0  0  0  0  0  0
  118.3477  103.7317  107.2741 H   0  0  0  0  0  0  0  0  0  0  0  0
  123.8019  103.0741  108.2466 H   0  0  0  0  0  0  0  0  0  0  0  0
  117.4888  102.7731  105.1712 H   0  0  0  0  0  0  0  0  0  0  0  0
  126.5394  105.7299  106.2897 H   0  0  0  0  0  0  0  0  0  0  0  0
  121.5106  105.6830  105.1111 H   0  0  0  0  0  0  0  0  0  0  0  0
  122.4321  106.9014  106.8279 H   0  0  0  0  0  0  0  0  0  0  0  0
  120.7538  106.4127  107.4725 H   0  0  0  0  0  0  0  0  0  0  0  0
  119.7604  105.2871  108.3988 H   0  0  0  0  0  0  0  0  0  0  0  0
  126.2762  109.2106  107.1219 H   0  0  0  0  0  0  0  0  0  0  0  0
  124.6326  109.6748  107.3378 H   0  0  0  0  0  0  0  0  0  0  0  0
  121.5938  103.9588  108.7665 H   0  0  0  0  0  0  0  0  0  0  0  0
  117.7317  102.5996  102.9989 H   0  0  0  0  0  0  0  0  0  0  0  0
  1  3  1  0  0  0  0
  1  5  2  0  0  0  0
  2  4  2  0  0  0  0
  2  8  1  0  0  0  0
  3  9  2  0  0  0  0
  4 10  1  0  0  0  0
  5 11  1  0  0  0  0
  6  8  2  0  0  0  0
  6 12  1  0  0  0  0
  7  9  1  0  0  0  0
  7 11  2  0  0  0  0
  8 13  1  0  0  0  0
  9 15  1  0  0  0  0
 10 12  2  0  0  0  0
 10 18  1  0  0  0  0
 11 19  1  0  0  0  0
 12 20  1  0  0  0  0
 13 15  1  0  0  0  0
 14 19  1  0  0  0  0
 16 19  2  0  0  0  0
 17 19  2  0  0  0  0
  1 21  1  0  0  0  0
  2 22  1  0  0  0  0
  3 23  1  0  0  0  0
  4 24  1  0  0  0  0
  5 25  1  0  0  0  0
  6 26  1  0  0  0  0
  7 27  1  0  0  0  0
 13 28  1  0  0  0  0
 13 29  1  0  0  0  0
 14 30  1  0  0  0  0
 14 31  1  0  0  0  0
 15 32  1  0  0  0  0
 18 33  1  0  0  0  0
M  END
> <FRED Chemgauss4 score>
-8.690709

$$$$
C70521692	P108791441
  -OEChem-05182014473D

 45 46  0     1  0  0  0  0  0999 V2000
  121.2571  105.1427  101.8949 C   0  0  0  0  0  0  0  0  0  0  0  0
  118.8866  105.0294  102.3476 C   0  0  0  0  0  0  0  0  0  0  0  0
  121.0013  105.0340  100.5281 C   0  0  0  0  0  0  0  0  0  0  0  0
  118.6308  104.9208  100.9807 C   0  0  0  0  0  0  0  0  0  0  0  0
  120.1998  105.1403  102.8047 C   0  0  0  0  0  0  0  0  0  0  0  0
  119.6882  104.9231  100.0709 C   0  0  0  0  0  0  0  0  0  0  0  0
  121.7001  104.7310  104.7394 C   0  0  0  0  0  0  0  0  0  0  0  0
  119.7618  106.2107  105.0238 C   0  0  0  0  0  0  0  0  0  0  0  0
  122.6212  105.9135  105.0723 C   0  0  0  0  0  0  0  0  0  0  0  0
  120.7016  107.3778  105.3376 C   0  0  0  0  0  0  0  0  0  0  0  0
  123.3418  106.8746  108.5017 C   0  0  0  0  0  0  0  0  0  0  0  0
  118.0730  104.7071   98.3388 C   0  0  0  0  0  0  0  0  0  0  0  0
  122.8399  107.9982  106.2672 C   0  0  0  0  0  0  0  0  0  0  0  0
  125.1797  107.0120  106.7367 C   0  0  0  0  0  0  0  0  0  0  0  0
  123.9171  107.6769  107.3268 C   0  0  2  0  0  0  0  0  0  0  0  0
  120.4546  105.2484  104.1660 N   0  0  0  0  0  0  0  0  0  0  0  0
  121.9470  106.8846  105.9503 N   0  0  0  0  0  0  0  0  0  0  0  0
  125.7449  107.6852  105.5751 N   0  0  0  0  0  0  0  0  0  0  0  0
  124.3622  108.9374  107.8601 O   0  0  0  0  0  0  0  0  0  0  0  0
  119.4386  104.8172   98.7371 O   0  0  0  0  0  0  0  0  0  0  0  0
  122.2843  105.2286  102.2402 H   0  0  0  0  0  0  0  0  0  0  0  0
  118.0552  105.0265  103.0478 H   0  0  0  0  0  0  0  0  0  0  0  0
  121.8292  105.0364   99.8242 H   0  0  0  0  0  0  0  0  0  0  0  0
  117.6057  104.8347  100.6306 H   0  0  0  0  0  0  0  0  0  0  0  0
  122.2061  104.0810  104.0262 H   0  0  0  0  0  0  0  0  0  0  0  0
  121.4873  104.1601  105.6438 H   0  0  0  0  0  0  0  0  0  0  0  0
  119.4473  105.7259  105.9521 H   0  0  0  0  0  0  0  0  0  0  0  0
  118.8727  106.5984  104.5208 H   0  0  0  0  0  0  0  0  0  0  0  0
  123.5166  105.5192  105.5674 H   0  0  0  0  0  0  0  0  0  0  0  0
  122.9480  106.3962  104.1415 H   0  0  0  0  0  0  0  0  0  0  0  0
  120.9180  107.9346  104.4196 H   0  0  0  0  0  0  0  0  0  0  0  0
  120.1889  108.0560  106.0256 H   0  0  0  0  0  0  0  0  0  0  0  0
  124.1215  106.6575  109.2411 H   0  0  0  0  0  0  0  0  0  0  0  0
  122.8987  105.9252  108.1870 H   0  0  0  0  0  0  0  0  0  0  0  0
  122.5750  107.4558  109.0268 H   0  0  0  0  0  0  0  0  0  0  0  0
  118.0152  104.6295   97.2504 H   0  0  0  0  0  0  0  0  0  0  0  0
  117.5205  105.5854   98.6820 H   0  0  0  0  0  0  0  0  0  0  0  0
  117.6426  103.8095   98.7892 H   0  0  0  0  0  0  0  0  0  0  0  0
  122.2439  108.8566  106.6020 H   0  0  0  0  0  0  0  0  0  0  0  0
  123.3271  108.3251  105.3402 H   0  0  0  0  0  0  0  0  0  0  0  0
  125.9510  106.9401  107.5143 H   0  0  0  0  0  0  0  0  0  0  0  0
  124.9459  105.9754  106.4636 H   0  0  0  0  0  0  0  0  0  0  0  0
  126.2721  107.1418  104.9239 H   0  0  0  0  0  0  0  0  0  0  0  0
  125.7642  108.6837  105.5705 H   0  0  0  0  0  0  0  0  0  0  0  0
  124.7203  109.4280  107.1091 H   0  0  0  0  0  0  0  0  0  0  0  0
  1  3  2  0  0  0  0
  1  5  1  0  0  0  0
  2  4  1  0  0  0  0
  2  5  2  0  0  0  0
  3  6  1  0  0  0  0
  4  6  2  0  0  0  0
  5 16  1  0  0  0  0
  6 20  1  0  0  0  0
  7  9  1  0  0  0  0
  7 16  1  0  0  0  0
  8 10  1  0  0  0  0
  8 16  1  0  0  0  0
  9 17  1  0  0  0  0
 10 17  1  0  0  0  0
 11 15  1  0  0  0  0
 12 20  1  0  0  0  0
 13 15  1  0  0  0  0
 13 17  1  0  0  0  0
 14 15  1  0  0  0  0
 14 18  1  0  0  0  0
 15 19  1  0  0  0  0
  1 21  1  0  0  0  0
  2 22  1  0  0  0  0
  3 23  1  0  0  0  0
  4 24  1  0  0  0  0
  7 25  1  0  0  0  0
  7 26  1  0  0  0  0
  8 27  1  0  0  0  0
  8 28  1  0  0  0  0
  9 29  1  0  0  0  0
  9 30  1  0  0  0  0
 10 31  1  0  0  0  0
 10 32  1  0  0  0  0
 11 33  1  0  0  0  0
 11 34  1  0  0  0  0
 11 35  1  0  0  0  0
 12 36  1  0  0  0  0
 12 37  1  0  0  0  0
 12 38  1  0  0  0  0
 13 39  1  0  0  0  0
 13 40  1  0  0  0  0
 14 41  1  0  0  0  0
 14 42  1  0  0  0  0
 18 43  1  0  0  0  0
 18 44  1  0  0  0  0
 19 45  1  0  0  0  0
M  END
> <FRED Chemgauss4 score>
-8.678349

$$$$
C92496043	P144788371
  -OEChem-05182014473D

 36 36  0     1  0  0  0  0  0999 V2000
  125.1174  107.4556  106.3925 C   0  0  0  0  0  0  0  0  0  0  0  0
  122.3795  106.3670  105.3988 C   0  0  0  0  0  0  0  0  0  0  0  0
  124.7345  105.8673  108.2188 C   0  0  0  0  0  0  0  0  0  0  0  0
  123.2032  104.5357  106.9546 C   0  0  0  0  0  0  0  0  0  0  0  0
  124.0362  106.7849  107.2136 C   0  0  2  0  0  0  0  0  0  0  0  0
  123.7792  104.6869  108.3542 C   0  0  2  0  0  0  0  0  0  0  0  0
  119.2791  104.6594   99.1913 C   0  0  0  0  0  0  0  0  0  0  0  0
  121.4505  105.3529  104.7807 C   0  0  0  0  0  0  0  0  0  0  0  0
  120.3827  104.8022  102.7030 C   0  0  0  0  0  0  0  0  0  0  0  0
  120.2551  105.2286  101.2519 C   0  0  0  0  0  0  0  0  0  0  0  0
  123.1806  105.8995  106.4283 N   0  0  0  0  0  0  0  0  0  0  0  0
  125.9746  108.2337  107.1341 N   0  0  0  0  0  0  0  0  0  0  0  0
  121.2678  105.7307  103.4123 N   0  0  0  0  0  0  0  0  0  0  0  0
  125.2115  107.2916  105.1785 O   0  0  0  0  0  0  0  0  0  0  0  0
  122.3933  107.5281  104.9861 O   0  0  0  0  0  0  0  0  0  0  0  0
  122.7263  105.0081  109.2570 O   0  0  0  0  0  0  0  0  0  0  0  0
  119.4244  104.3052  100.5597 O   0  0  0  0  0  0  0  0  0  0  0  0
  125.7025  105.5190  107.8379 H   0  0  0  0  0  0  0  0  0  0  0  0
  124.9074  106.3857  109.1677 H   0  0  0  0  0  0  0  0  0  0  0  0
  123.8715  103.9555  106.3097 H   0  0  0  0  0  0  0  0  0  0  0  0
  122.2039  104.0934  106.9494 H   0  0  0  0  0  0  0  0  0  0  0  0
  123.4232  107.5534  107.7208 H   0  0  0  0  0  0  0  0  0  0  0  0
  124.2711  103.7772  108.7099 H   0  0  0  0  0  0  0  0  0  0  0  0
  118.6365  103.9302   98.6917 H   0  0  0  0  0  0  0  0  0  0  0  0
  120.2618  104.6826   98.7137 H   0  0  0  0  0  0  0  0  0  0  0  0
  118.8214  105.6494   99.1270 H   0  0  0  0  0  0  0  0  0  0  0  0
  120.5113  105.3781  105.3251 H   0  0  0  0  0  0  0  0  0  0  0  0
  121.9149  104.3746  104.8611 H   0  0  0  0  0  0  0  0  0  0  0  0
  119.4097  104.8051  103.2045 H   0  0  0  0  0  0  0  0  0  0  0  0
  120.8166  103.7998  102.7686 H   0  0  0  0  0  0  0  0  0  0  0  0
  121.2387  105.2238  100.7720 H   0  0  0  0  0  0  0  0  0  0  0  0
  119.8195  106.2291  101.1632 H   0  0  0  0  0  0  0  0  0  0  0  0
  125.8283  108.3005  108.1360 H   0  0  0  0  0  0  0  0  0  0  0  0
  126.7479  108.7439  106.7198 H   0  0  0  0  0  0  0  0  0  0  0  0
  120.8581  106.6716  103.3493 H   0  0  0  0  0  0  0  0  0  0  0  0
  122.1530  104.2268  109.3044 H   0  0  0  0  0  0  0  0  0  0  0  0
  1  5  1  0  0  0  0
  1 12  1  0  0  0  0
  1 14  2  0  0  0  0
  2  8  1  0  0  0  0
  2 11  1  0  0  0  0
  2 15  2  0  0  0  0
  3  5  1  0  0  0  0
  3  6  1  0  0  0  0
  4  6  1  0  0  0  0
  4 11  1  0  0  0  0
  5 11  1  0  0  0  0
  6 16  1  0  0  0  0
  7 17  1  0  0  0  0
  8 13  1  0  0  0  0
  9 10  1  0  0  0  0
  9 13  1  0  0  0  0
 10 17  1  0  0  0  0
  3 18  1  0  0  0  0
  3 19  1  0  0  0  0
  4 20  1  0  0  0  0
  4 21  1  0  0  0  0
  5 22  1  0  0  0  0
  6 23  1  0  0  0  0
  7 24  1  0  0  0  0
  7 25  1  0  0  0  0
  7 26  1  0  0  0  0
  8 27  1  0  0  0  0
  8 28  1  0  0  0  0
  9 29  1  0  0  0  0
  9 30  1  0  0  0  0
 10 31  1  0  0  0  0
 10 32  1  0  0  0  0
 12 33  1  0  0  0  0
 12 34  1  0  0  0  0
 13 35  1  0  0  0  0
 16 36  1  0  0  0  0
M  END
> <FRED Chemgauss4 score>
-8.678198

$$$$
C70037314	P107964016
  -OEChem-05182014473D

 46 48  0     1  0  0  0  0  0999 V2000
  124.1883  106.1788  106.3656 C   0  0  0  0  0  0  0  0  0  0  0  0
  115.2240  107.0453  104.2256 C   0  0  0  0  0  0  0  0  0  0  0  0
  116.3697  107.0380  104.9857 C   0  0  0  0  0  0  0  0  0  0  0  0
  124.4180  107.3105  108.3828 C   0  0  0  0  0  0  0  0  0  0  0  0
  125.0244  106.4602  107.4845 C   0  0  0  0  0  0  0  0  0  0  0  0
  122.9745  106.8247  106.4515 C   0  0  0  0  0  0  0  0  0  0  0  0
  116.4055  105.4495  103.4587 C   0  0  0  0  0  0  0  0  0  0  0  0
  126.3498  105.9380  107.6883 C   0  0  0  0  0  0  0  0  0  0  0  0
  121.8470  106.7954  105.5106 C   0  0  0  0  0  0  0  0  0  0  0  0
  119.7859  104.0863  106.5542 C   0  0  0  0  0  0  0  0  0  0  0  0
  118.3932  104.4802  106.0546 C   0  0  0  0  0  0  0  0  0  0  0  0
  120.5758  105.3064  107.0225 C   0  0  0  0  0  0  0  0  0  0  0  0
  119.2967  106.7782  105.5113 C   0  0  0  0  0  0  0  0  0  0  0  0
  118.4832  105.5849  104.9827 C   0  0  2  0  0  0  0  0  0  0  0  0
  117.7877  104.7303  101.4773 C   0  0  0  0  0  0  0  0  0  0  0  0
  115.7953  103.3593  102.1886 C   0  0  0  0  0  0  0  0  0  0  0  0
  116.9169  104.3025  102.6809 C   0  0  0  0  0  0  0  0  0  0  0  0
  115.2523  106.0538  103.2770 N   0  0  0  0  0  0  0  0  0  0  0  0
  117.1166  106.0101  104.4830 N   0  0  0  0  0  0  0  0  0  0  0  0
  120.6162  106.3245  105.9730 N   0  0  0  0  0  0  0  0  0  0  0  0
  127.0399  106.3145  108.8456 N   0  0  0  0  0  0  0  0  0  0  0  0
  126.8988  105.1789  106.8583 O   0  0  0  0  0  0  0  0  0  0  0  0
  122.0762  107.2054  104.3738 O   0  0  0  0  0  0  0  0  0  0  0  0
  122.8469  107.7659  107.8763 S   0  0  0  0  0  0  0  0  0  0  0  0
  124.4634  105.5347  105.5392 H   0  0  0  0  0  0  0  0  0  0  0  0
  114.3801  107.7139  104.3132 H   0  0  0  0  0  0  0  0  0  0  0  0
  116.7044  107.6525  105.8098 H   0  0  0  0  0  0  0  0  0  0  0  0
  124.8166  107.6899  109.3138 H   0  0  0  0  0  0  0  0  0  0  0  0
  119.6973  103.3632  107.3722 H   0  0  0  0  0  0  0  0  0  0  0  0
  120.3300  103.5915  105.7400 H   0  0  0  0  0  0  0  0  0  0  0  0
  117.8839  103.5990  105.6459 H   0  0  0  0  0  0  0  0  0  0  0  0
  117.7868  104.8279  106.9015 H   0  0  0  0  0  0  0  0  0  0  0  0
  120.1022  105.7573  107.9025 H   0  0  0  0  0  0  0  0  0  0  0  0
  121.5866  105.0031  107.3125 H   0  0  0  0  0  0  0  0  0  0  0  0
  119.3799  107.5456  104.7363 H   0  0  0  0  0  0  0  0  0  0  0  0
  118.7940  107.2470  106.3671 H   0  0  0  0  0  0  0  0  0  0  0  0
  118.9769  105.1743  104.0771 H   0  0  0  0  0  0  0  0  0  0  0  0
  117.2265  105.3667  100.7845 H   0  0  0  0  0  0  0  0  0  0  0  0
  118.1563  103.8676  100.9117 H   0  0  0  0  0  0  0  0  0  0  0  0
  118.6571  105.3000  101.8241 H   0  0  0  0  0  0  0  0  0  0  0  0
  115.0916  103.9091  101.5536 H   0  0  0  0  0  0  0  0  0  0  0  0
  115.2289  102.9277  103.0210 H   0  0  0  0  0  0  0  0  0  0  0  0
  116.2010  102.5306  101.5980 H   0  0  0  0  0  0  0  0  0  0  0  0
  117.5779  103.6685  103.3109 H   0  0  0  0  0  0  0  0  0  0  0  0
  126.5900  106.9407  109.5045 H   0  0  0  0  0  0  0  0  0  0  0  0
  127.9769  105.9800  109.0460 H   0  0  0  0  0  0  0  0  0  0  0  0
  1  5  1  0  0  0  0
  1  6  2  0  0  0  0
  2  3  2  0  0  0  0
  2 18  1  0  0  0  0
  3 19  1  0  0  0  0
  4  5  2  0  0  0  0
  4 24  1  0  0  0  0
  5  8  1  0  0  0  0
  6  9  1  0  0  0  0
  6 24  1  0  0  0  0
  7 17  1  0  0  0  0
  7 18  2  0  0  0  0
  7 19  1  0  0  0  0
  8 21  1  0  0  0  0
  8 22  2  0  0  0  0
  9 20  1  0  0  0  0
  9 23  2  0  0  0  0
 10 11  1  0  0  0  0
 10 12  1  0  0  0  0
 11 14  1  0  0  0  0
 12 20  1  0  0  0  0
 13 14  1  0  0  0  0
 13 20  1  0  0  0  0
 14 19  1  0  0  0  0
 15 17  1  0  0  0  0
 16 17  1  0  0  0  0
  1 25  1  0  0  0  0
  2 26  1  0  0  0  0
  3 27  1  0  0  0  0
  4 28  1  0  0  0  0
 10 29  1  0  0  0  0
 10 30  1  0  0  0  0
 11 31  1  0  0  0  0
 11 32  1  0  0  0  0
 12 33  1  0  0  0  0
 12 34  1  0  0  0  0
 13 35  1  0  0  0  0
 13 36  1  0  0  0  0
 14 37  1  0  0  0  0
 15 38  1  0  0  0  0
 15 39  1  0  0  0  0
 15 40  1  0  0  0  0
 16 41  1  0  0  0  0
 16 42  1  0  0  0  0
 16 43  1  0  0  0  0
 17 44  1  0  0  0  0
 21 45  1  0  0  0  0
 21 46  1  0  0  0  0
M  END
> <FRED Chemgauss4 score>
-8.660134

$$$$
C49589096	P74062086
  -OEChem-05182014473D

 37 38  0     1  0  0  0  0  0999 V2000
  115.8583  106.0736  105.7438 C   0  0  0  0  0  0  0  0  0  0  0  0
  114.7692  106.5486  105.9201 C   0  0  0  0  0  0  0  0  0  0  0  0
  117.5617  104.4018  106.2768 C   0  0  0  0  0  0  0  0  0  0  0  0
  118.0084  106.0619  104.5793 C   0  0  0  0  0  0  0  0  0  0  0  0
  118.8254  103.8492  106.0691 C   0  0  0  0  0  0  0  0  0  0  0  0
  119.2723  105.5093  104.3716 C   0  0  0  0  0  0  0  0  0  0  0  0
  117.1531  105.5081  105.5319 C   0  0  0  0  0  0  0  0  0  0  0  0
  119.6807  104.4030  105.1165 C   0  0  0  0  0  0  0  0  0  0  0  0
  124.9602  107.4358  106.8508 C   0  0  0  0  0  0  0  0  0  0  0  0
  122.7610  105.2824  105.9215 C   0  0  0  0  0  0  0  0  0  0  0  0
  123.0131  106.3282  108.1885 C   0  0  0  0  0  0  0  0  0  0  0  0
  123.6369  105.4433  107.1263 C   0  0  2  0  0  0  0  0  0  0  0  0
  113.4359  107.1297  106.1370 C   0  0  0  0  0  0  0  0  0  0  0  0
  121.0416  103.8092  104.8940 C   0  0  0  0  0  0  0  0  0  0  0  0
  112.5159  106.8699  104.9522 C   0  0  0  0  0  0  0  0  0  0  0  0
  124.8457  106.0764  106.6606 N   0  0  0  0  0  0  0  0  0  0  0  0
  121.9624  104.1552  105.9530 N   0  0  0  0  0  0  0  0  0  0  0  0
  125.8618  108.1662  106.4687 O   0  0  0  0  0  0  0  0  0  0  0  0
  122.8036  106.1194  105.0275 O   0  0  0  0  0  0  0  0  0  0  0  0
  113.0912  107.4171  103.7721 O   0  0  0  0  0  0  0  0  0  0  0  0
  123.5711  108.0091  107.7675 S   0  0  0  0  0  0  0  0  0  0  0  0
  116.9055  103.9578  107.0217 H   0  0  0  0  0  0  0  0  0  0  0  0
  117.7054  106.9253  103.9916 H   0  0  0  0  0  0  0  0  0  0  0  0
  119.1349  102.9868  106.6535 H   0  0  0  0  0  0  0  0  0  0  0  0
  119.9327  105.9485  103.6286 H   0  0  0  0  0  0  0  0  0  0  0  0
  121.9214  106.2713  108.2206 H   0  0  0  0  0  0  0  0  0  0  0  0
  123.4130  106.0826  109.1775 H   0  0  0  0  0  0  0  0  0  0  0  0
  123.8780  104.4476  107.5102 H   0  0  0  0  0  0  0  0  0  0  0  0
  113.0015  106.7034  107.0486 H   0  0  0  0  0  0  0  0  0  0  0  0
  113.5361  108.2104  106.2873 H   0  0  0  0  0  0  0  0  0  0  0  0
  120.9823  102.7165  104.8422 H   0  0  0  0  0  0  0  0  0  0  0  0
  121.4723  104.1567  103.9491 H   0  0  0  0  0  0  0  0  0  0  0  0
  112.3997  105.7920  104.8006 H   0  0  0  0  0  0  0  0  0  0  0  0
  111.5263  107.3149  105.1016 H   0  0  0  0  0  0  0  0  0  0  0  0
  125.5826  105.5419  106.2108 H   0  0  0  0  0  0  0  0  0  0  0  0
  122.0255  103.5404  106.7589 H   0  0  0  0  0  0  0  0  0  0  0  0
  112.4738  107.2286  103.0473 H   0  0  0  0  0  0  0  0  0  0  0  0
  1  2  3  0  0  0  0
  1  7  1  0  0  0  0
  2 13  1  0  0  0  0
  3  5  1  0  0  0  0
  3  7  2  0  0  0  0
  4  6  2  0  0  0  0
  4  7  1  0  0  0  0
  5  8  2  0  0  0  0
  6  8  1  0  0  0  0
  8 14  1  0  0  0  0
  9 16  1  0  0  0  0
  9 18  2  0  0  0  0
  9 21  1  0  0  0  0
 10 12  1  0  0  0  0
 10 17  1  0  0  0  0
 10 19  2  0  0  0  0
 11 12  1  0  0  0  0
 11 21  1  0  0  0  0
 12 16  1  0  0  0  0
 13 15  1  0  0  0  0
 14 17  1  0  0  0  0
 15 20  1  0  0  0  0
  3 22  1  0  0  0  0
  4 23  1  0  0  0  0
  5 24  1  0  0  0  0
  6 25  1  0  0  0  0
 11 26  1  0  0  0  0
 11 27  1  0  0  0  0
 12 28  1  0  0  0  0
 13 29  1  0  0  0  0
 13 30  1  0  0  0  0
 14 31  1  0  0  0  0
 14 32  1  0  0  0  0
 15 33  1  0  0  0  0
 15 34  1  0  0  0  0
 16 35  1  0  0  0  0
 17 36  1  0  0  0  0
 20 37  1  0  0  0  0
M  END
> <FRED Chemgauss4 score>
-8.656275

$$$$
C89752394	P140315060
  -OEChem-05182014473D

 35 36  0     1  0  0  0  0  0999 V2000
  120.4849  104.7725  102.7444 C   0  0  0  0  0  0  0  0  0  0  0  0
  118.2764  105.0912  103.6708 C   0  0  0  0  0  0  0  0  0  0  0  0
  119.9296  104.6160  101.4745 C   0  0  0  0  0  0  0  0  0  0  0  0
  117.7211  104.9348  102.4009 C   0  0  0  0  0  0  0  0  0  0  0  0
  119.6583  105.0100  103.8426 C   0  0  0  0  0  0  0  0  0  0  0  0
  118.5477  104.6972  101.3027 C   0  0  0  0  0  0  0  0  0  0  0  0
  126.2163  105.6445  106.8841 C   0  0  0  0  0  0  0  0  0  0  0  0
  124.3501  107.0168  105.9204 C   0  0  0  0  0  0  0  0  0  0  0  0
  125.2159  104.6028  107.3250 C   0  0  0  0  0  0  0  0  0  0  0  0
  123.8558  105.2187  107.5976 C   0  0  0  0  0  0  0  0  0  0  0  0
  123.3694  105.9406  106.3517 C   0  0  1  0  0  0  0  0  0  0  0  0
  120.2535  105.1777  105.2066 C   0  0  0  0  0  0  0  0  0  0  0  0
  125.6851  106.7433  106.2155 N   0  0  0  0  0  0  0  0  0  0  0  0
  117.9861  104.5409  100.0185 N   0  0  0  0  0  0  0  0  0  0  0  0
  122.0921  106.5624  106.5812 N   0  0  0  0  0  0  0  0  0  0  0  0
  127.4240  105.4919  107.0659 O   0  0  0  0  0  0  0  0  0  0  0  0
  124.0068  108.0177  105.2915 O   0  0  0  0  0  0  0  0  0  0  0  0
  121.7822  106.9552  104.0430 O   0  0  0  0  0  0  0  0  0  0  0  0
  120.0082  107.7358  105.6556 O   0  0  0  0  0  0  0  0  0  0  0  0
  121.0260  106.7782  105.2673 S   0  0  0  0  0  0  0  0  0  0  0  0
  121.5623  104.7066  102.8693 H   0  0  0  0  0  0  0  0  0  0  0  0
  117.6245  105.2743  104.5207 H   0  0  0  0  0  0  0  0  0  0  0  0
  120.5826  104.4298  100.6258 H   0  0  0  0  0  0  0  0  0  0  0  0
  116.6430  104.9993  102.2787 H   0  0  0  0  0  0  0  0  0  0  0  0
  125.1493  103.8412  106.5401 H   0  0  0  0  0  0  0  0  0  0  0  0
  125.5916  104.1232  108.2354 H   0  0  0  0  0  0  0  0  0  0  0  0
  123.1433  104.4386  107.8904 H   0  0  0  0  0  0  0  0  0  0  0  0
  123.9294  105.9181  108.4412 H   0  0  0  0  0  0  0  0  0  0  0  0
  123.2797  105.2247  105.5052 H   0  0  0  0  0  0  0  0  0  0  0  0
  121.0165  104.4229  105.4164 H   0  0  0  0  0  0  0  0  0  0  0  0
  119.4945  105.1357  105.9929 H   0  0  0  0  0  0  0  0  0  0  0  0
  126.3568  107.4421  105.9095 H   0  0  0  0  0  0  0  0  0  0  0  0
  118.5920  104.4194   99.2324 H   0  0  0  0  0  0  0  0  0  0  0  0
  116.9987  104.6482   99.9017 H   0  0  0  0  0  0  0  0  0  0  0  0
  121.6734  106.3261  107.4889 H   0  0  0  0  0  0  0  0  0  0  0  0
  1  3  1  0  0  0  0
  1  5  2  0  0  0  0
  2  4  2  0  0  0  0
  2  5  1  0  0  0  0
  3  6  2  0  0  0  0
  4  6  1  0  0  0  0
  5 12  1  0  0  0  0
  6 14  1  0  0  0  0
  7  9  1  0  0  0  0
  7 13  1  0  0  0  0
  7 16  2  0  0  0  0
  8 11  1  0  0  0  0
  8 13  1  0  0  0  0
  8 17  2  0  0  0  0
  9 10  1  0  0  0  0
 10 11  1  0  0  0  0
 11 15  1  0  0  0  0
 12 20  1  0  0  0  0
 15 20  1  0  0  0  0
 18 20  2  0  0  0  0
 19 20  2  0  0  0  0
  1 21  1  0  0  0  0
  2 22  1  0  0  0  0
  3 23  1  0  0  0  0
  4 24  1  0  0  0  0
  9 25  1  0  0  0  0
  9 26  1  0  0  0  0
 10 27  1  0  0  0  0
 10 28  1  0  0  0  0
 11 29  1  0  0  0  0
 12 30  1  0  0  0  0
 12 31  1  0  0  0  0
 13 32  1  0  0  0  0
 14 33  1  0  0  0  0
 14 34  1  0  0  0  0
 15 35  1  0  0  0  0
M  END
> <FRED Chemgauss4 score>
-8.647993

$$$$
C87446021	P136813038
  -OEChem-05182014473D

 30 31  0     1  0  0  0  0  0999 V2000
  123.0095  106.5882  105.5669 C   0  0  0  0  0  0  0  0  0  0  0  0
  120.9406  106.8994  105.2198 C   0  0  0  0  0  0  0  0  0  0  0  0
  124.4054  106.7965  105.9840 C   0  0  0  0  0  0  0  0  0  0  0  0
  125.1418  103.7148  108.0745 C   0  0  0  0  0  0  0  0  0  0  0  0
  126.1096  104.2838  109.1130 C   0  0  0  0  0  0  0  0  0  0  0  0
  124.2153  104.7842  107.5118 C   0  0  0  0  0  0  0  0  0  0  0  0
  126.3610  106.0625  107.2993 C   0  0  0  0  0  0  0  0  0  0  0  0
  126.6223  105.6827  108.7545 C   0  0  1  0  0  0  0  0  0  0  0  0
  119.6164  107.5152  105.1749 C   0  0  0  0  0  0  0  0  0  0  0  0
  121.2172  105.6665  104.7516 N   0  5  0  0  0  0  0  0  0  0  0  0
  122.0310  107.4890  105.7281 N   0  0  0  0  0  0  0  0  0  0  0  0
  122.5561  105.4648  104.9769 N   0  0  0  0  0  0  0  0  0  0  0  0
  124.9520  105.9117  106.9211 N   0  0  0  0  0  0  0  0  0  0  0  0
  125.9459  106.6876  109.6300 N   0  3  0  0  0  0  0  0  0  0  0  0
  124.9957  107.7471  105.4730 O   0  0  0  0  0  0  0  0  0  0  0  0
  125.7111  103.2483  107.2572 H   0  0  0  0  0  0  0  0  0  0  0  0
  124.5424  102.9126  108.5314 H   0  0  0  0  0  0  0  0  0  0  0  0
  125.6295  104.2896  110.1014 H   0  0  0  0  0  0  0  0  0  0  0  0
  126.9729  103.6073  109.1937 H   0  0  0  0  0  0  0  0  0  0  0  0
  123.5785  104.3639  106.7156 H   0  0  0  0  0  0  0  0  0  0  0  0
  123.5333  105.1346  108.3019 H   0  0  0  0  0  0  0  0  0  0  0  0
  126.7404  107.0764  107.1019 H   0  0  0  0  0  0  0  0  0  0  0  0
  126.9354  105.3941  106.6355 H   0  0  0  0  0  0  0  0  0  0  0  0
  127.6914  105.7677  108.9899 H   0  0  0  0  0  0  0  0  0  0  0  0
  119.0259  107.2899  106.0847 H   0  0  0  0  0  0  0  0  0  0  0  0
  119.6600  108.6197  105.0843 H   0  0  0  0  0  0  0  0  0  0  0  0
  119.0146  107.1749  104.3075 H   0  0  0  0  0  0  0  0  0  0  0  0
  126.5898  107.4446  109.8705 H   0  0  0  0  0  0  0  0  0  0  0  0
  125.6249  106.2490  110.4964 H   0  0  0  0  0  0  0  0  0  0  0  0
  125.1364  107.0913  109.1529 H   0  0  0  0  0  0  0  0  0  0  0  0
  1  3  1  0  0  0  0
  1 11  1  0  0  0  0
  1 12  2  0  0  0  0
  2  9  1  0  0  0  0
  2 10  1  0  0  0  0
  2 11  2  0  0  0  0
  3 13  1  0  0  0  0
  3 15  2  0  0  0  0
  4  5  1  0  0  0  0
  4  6  1  0  0  0  0
  5  8  1  0  0  0  0
  6 13  1  0  0  0  0
  7  8  1  0  0  0  0
  7 13  1  0  0  0  0
  8 14  1  0  0  0  0
 10 12  1  0  0  0  0
  4 16  1  0  0  0  0
  4 17  1  0  0  0  0
  5 18  1  0  0  0  0
  5 19  1  0  0  0  0
  6 20  1  0  0  0  0
  6 21  1  0  0  0  0
  7 22  1  0  0  0  0
  7 23  1  0  0  0  0
  8 24  1  0  0  0  0
  9 25  1  0  0  0  0
  9 26  1  0  0  0  0
  9 27  1  0  0  0  0
 14 28  1  0  0  0  0
 14 29  1  0  0  0  0
 14 30  1  0  0  0  0
M  CHG  2  10  -1  14   1
M  END
> <FRED Chemgauss4 score>
-8.624502

$$$$
C37191777	P55304598
  -OEChem-05182014473D

 32 34  0     0  0  0  0  0  0999 V2000
  114.8531  107.6119  105.0362 C   0  0  0  0  0  0  0  0  0  0  0  0
  116.2048  107.5385  105.3401 C   0  0  0  0  0  0  0  0  0  0  0  0
  118.0940  103.8000  105.4418 C   0  0  0  0  0  0  0  0  0  0  0  0
  116.7343  103.9078  105.1391 C   0  0  0  0  0  0  0  0  0  0  0  0
  124.6337  104.9282  106.9159 C   0  0  0  0  0  0  0  0  0  0  0  0
  123.4527  104.6324  106.2442 C   0  0  0  0  0  0  0  0  0  0  0  0
  118.2198  106.1880  105.6830 C   0  0  0  0  0  0  0  0  0  0  0  0
  114.1916  106.4282  104.7792 C   0  0  0  0  0  0  0  0  0  0  0  0
  124.4957  107.1481  106.0736 C   0  0  0  0  0  0  0  0  0  0  0  0
  116.8522  106.2962  105.3785 C   0  0  0  0  0  0  0  0  0  0  0  0
  118.8379  104.9413  105.7142 C   0  0  0  0  0  0  0  0  0  0  0  0
  116.0907  105.1417  105.1010 C   0  0  0  0  0  0  0  0  0  0  0  0
  125.1717  106.2077  106.8341 C   0  0  0  0  0  0  0  0  0  0  0  0
  122.8535  105.6434  105.5103 C   0  0  0  0  0  0  0  0  0  0  0  0
  120.2891  104.8313  106.0370 C   0  0  0  0  0  0  0  0  0  0  0  0
  114.7787  105.2098  104.8058 N   0  0  0  0  0  0  0  0  0  0  0  0
  123.3463  106.8981  105.4072 N   0  0  0  0  0  0  0  0  0  0  0  0
  126.3627  106.5359  107.5017 N   0  0  0  0  0  0  0  0  0  0  0  0
  121.3525  105.3117  104.6415 S   0  0  0  0  0  0  0  0  0  0  0  0
  114.3360  108.5636  105.0023 H   0  0  0  0  0  0  0  0  0  0  0  0
  116.7508  108.4562  105.5469 H   0  0  0  0  0  0  0  0  0  0  0  0
  118.5600  102.8184  105.4621 H   0  0  0  0  0  0  0  0  0  0  0  0
  116.1738  102.9985  104.9299 H   0  0  0  0  0  0  0  0  0  0  0  0
  125.1256  104.1556  107.5008 H   0  0  0  0  0  0  0  0  0  0  0  0
  123.0306  103.6345  106.3055 H   0  0  0  0  0  0  0  0  0  0  0  0
  118.8043  107.0814  105.8955 H   0  0  0  0  0  0  0  0  0  0  0  0
  113.1340  106.4233  104.5365 H   0  0  0  0  0  0  0  0  0  0  0  0
  124.8670  108.1634  105.9713 H   0  0  0  0  0  0  0  0  0  0  0  0
  120.5479  105.4614  106.9010 H   0  0  0  0  0  0  0  0  0  0  0  0
  120.5470  103.8016  106.3264 H   0  0  0  0  0  0  0  0  0  0  0  0
  126.8076  105.8510  108.0839 H   0  0  0  0  0  0  0  0  0  0  0  0
  126.7055  107.4778  107.4658 H   0  0  0  0  0  0  0  0  0  0  0  0
  1  2  1  0  0  0  0
  1  8  2  0  0  0  0
  2 10  2  0  0  0  0
  3  4  2  0  0  0  0
  3 11  1  0  0  0  0
  4 12  1  0  0  0  0
  5  6  2  0  0  0  0
  5 13  1  0  0  0  0
  6 14  1  0  0  0  0
  7 10  1  0  0  0  0
  7 11  2  0  0  0  0
  8 16  1  0  0  0  0
  9 13  2  0  0  0  0
  9 17  1  0  0  0  0
 10 12  1  0  0  0  0
 11 15  1  0  0  0  0
 12 16  2  0  0  0  0
 13 18  1  0  0  0  0
 14 17  2  0  0  0  0
 14 19  1  0  0  0  0
 15 19  1  0  0  0  0
  1 20  1  0  0  0  0
  2 21  1  0  0  0  0
  3 22  1  0  0  0  0
  4 23  1  0  0  0  0
  5 24  1  0  0  0  0
  6 25  1  0  0  0  0
  7 26  1  0  0  0  0
  8 27  1  0  0  0  0
  9 28  1  0  0  0  0
 15 29  1  0  0  0  0
 15 30  1  0  0  0  0
 18 31  1  0  0  0  0
 18 32  1  0  0  0  0
M  END
> <FRED Chemgauss4 score>
-8.612644

$$$$
C70842458	P128807509
  -OEChem-05182014473D

 24 25  0     1  0  0  0  0  0999 V2000
  121.7607  105.2721  105.3290 C   0  0  0  0  0  0  0  0  0  0  0  0
  122.5599  106.3733  105.1700 C   0  0  0  0  0  0  0  0  0  0  0  0
  124.0031  106.4225  105.4542 C   0  0  0  0  0  0  0  0  0  0  0  0
  124.4598  106.0268  109.1055 C   0  0  0  0  0  0  0  0  0  0  0  0
  123.5668  105.7991  107.8926 C   0  0  0  0  0  0  0  0  0  0  0  0
  125.8096  106.2616  107.1496 C   0  0  0  0  0  0  0  0  0  0  0  0
  125.8395  105.6886  108.5569 C   0  0  1  0  0  0  0  0  0  0  0  0
  120.5620  106.8894  104.6047 N   0  5  0  0  0  0  0  0  0  0  0  0
  120.4999  105.5787  104.9775 N   0  0  0  0  0  0  0  0  0  0  0  0
  121.8220  107.4007  104.7148 N   0  0  0  0  0  0  0  0  0  0  0  0
  124.4117  106.1491  106.7503 N   0  0  0  0  0  0  0  0  0  0  0  0
  126.9004  106.3124  109.3658 N   0  3  0  0  0  0  0  0  0  0  0  0
  124.7526  106.7131  104.5239 O   0  0  0  0  0  0  0  0  0  0  0  0
  122.0462  104.2886  105.6781 H   0  0  0  0  0  0  0  0  0  0  0  0
  124.3704  107.0337  109.5073 H   0  0  0  0  0  0  0  0  0  0  0  0
  124.1972  105.3119  109.8880 H   0  0  0  0  0  0  0  0  0  0  0  0
  123.2152  104.7692  107.8094 H   0  0  0  0  0  0  0  0  0  0  0  0
  122.7046  106.4707  107.8891 H   0  0  0  0  0  0  0  0  0  0  0  0
  126.1615  107.2949  107.0847 H   0  0  0  0  0  0  0  0  0  0  0  0
  126.3952  105.6407  106.4633 H   0  0  0  0  0  0  0  0  0  0  0  0
  126.0456  104.5928  108.5653 H   0  0  0  0  0  0  0  0  0  0  0  0
  126.5523  107.1549  109.8318 H   0  0  0  0  0  0  0  0  0  0  0  0
  127.6952  106.5774  108.7770 H   0  0  0  0  0  0  0  0  0  0  0  0
  127.2360  105.6645  110.0842 H   0  0  0  0  0  0  0  0  0  0  0  0
  1  2  1  0  0  0  0
  1  9  2  0  0  0  0
  2  3  1  0  0  0  0
  2 10  2  0  0  0  0
  3 11  1  0  0  0  0
  3 13  2  0  0  0  0
  4  5  1  0  0  0  0
  4  7  1  0  0  0  0
  5 11  1  0  0  0  0
  6  7  1  0  0  0  0
  6 11  1  0  0  0  0
  7 12  1  0  0  0  0
  8  9  1  0  0  0  0
  8 10  1  0  0  0  0
  1 14  1  0  0  0  0
  4 15  1  0  0  0  0
  4 16  1  0  0  0  0
  5 17  1  0  0  0  0
  5 18  1  0  0  0  0
  6 19  1  0  0  0  0
  6 20  1  0  0  0  0
  7 21  1  0  0  0  0
 12 22  1  0  0  0  0
 12 23  1  0  0  0  0
 12 24  1  0  0  0  0
M  CHG  2   8  -1  12   1
M  END
> <FRED Chemgauss4 score>
-8.582660

$$$$
C98309401	P156374145
  -OEChem-05182014473D

 36 37  0     1  0  0  0  0  0999 V2000
  115.9089  105.8844  103.9622 C   0  0  0  0  0  0  0  0  0  0  0  0
  116.8826  106.3160  104.7720 C   0  0  0  0  0  0  0  0  0  0  0  0
  116.1087  104.7469  103.1057 C   0  0  0  0  0  0  0  0  0  0  0  0
  123.7189  104.8714  107.8918 C   0  0  0  0  0  0  0  0  0  0  0  0
  122.8944  105.2513  106.7701 C   0  0  0  0  0  0  0  0  0  0  0  0
  124.9405  105.3994  108.0226 C   0  0  0  0  0  0  0  0  0  0  0  0
  117.2841  104.1089  103.1152 C   0  0  0  0  0  0  0  0  0  0  0  0
  123.3323  106.1276  105.8525 C   0  0  0  0  0  0  0  0  0  0  0  0
  118.2031  105.6157  104.7944 C   0  0  0  0  0  0  0  0  0  0  0  0
  124.7008  106.7210  105.9952 C   0  0  0  0  0  0  0  0  0  0  0  0
  122.4269  106.4619  104.7379 C   0  0  0  0  0  0  0  0  0  0  0  0
  119.5818  103.7799  103.8986 C   0  0  0  0  0  0  0  0  0  0  0  0
  121.2035  105.4354  102.8391 C   0  0  0  0  0  0  0  0  0  0  0  0
  120.4380  104.1217  102.6784 C   0  0  1  0  0  0  0  0  0  0  0  0
  125.4203  106.2978  107.1030 N   0  0  0  0  0  0  0  0  0  0  0  0
  118.3407  104.5065  103.9331 N   0  0  0  0  0  0  0  0  0  0  0  0
  122.0834  105.3579  103.9845 N   0  0  0  0  0  0  0  0  0  0  0  0
  119.0822  106.0338  105.5463 O   0  0  0  0  0  0  0  0  0  0  0  0
  125.1325  107.5245  105.1719 O   0  0  0  0  0  0  0  0  0  0  0  0
  122.0565  107.6169  104.5587 O   0  0  0  0  0  0  0  0  0  0  0  0
  121.3740  103.0688  102.4476 O   0  0  0  0  0  0  0  0  0  0  0  0
  114.9462  106.3824  103.9349 H   0  0  0  0  0  0  0  0  0  0  0  0
  116.7454  107.1709  105.4233 H   0  0  0  0  0  0  0  0  0  0  0  0
  115.2961  104.4256  102.4650 H   0  0  0  0  0  0  0  0  0  0  0  0
  123.3287  104.1609  108.6107 H   0  0  0  0  0  0  0  0  0  0  0  0
  121.9107  104.7962  106.7100 H   0  0  0  0  0  0  0  0  0  0  0  0
  125.6035  105.1525  108.8418 H   0  0  0  0  0  0  0  0  0  0  0  0
  117.4666  103.2480  102.4818 H   0  0  0  0  0  0  0  0  0  0  0  0
  119.3374  102.7132  103.9166 H   0  0  0  0  0  0  0  0  0  0  0  0
  120.1135  104.0302  104.8222 H   0  0  0  0  0  0  0  0  0  0  0  0
  120.5179  106.2755  102.9911 H   0  0  0  0  0  0  0  0  0  0  0  0
  121.8085  105.6375  101.9493 H   0  0  0  0  0  0  0  0  0  0  0  0
  119.7878  104.1763  101.7966 H   0  0  0  0  0  0  0  0  0  0  0  0
  126.3545  106.6680  107.2512 H   0  0  0  0  0  0  0  0  0  0  0  0
  122.4642  104.4534  104.2451 H   0  0  0  0  0  0  0  0  0  0  0  0
  120.8518  102.2673  102.2927 H   0  0  0  0  0  0  0  0  0  0  0  0
  1  2  2  0  0  0  0
  1  3  1  0  0  0  0
  2  9  1  0  0  0  0
  3  7  2  0  0  0  0
  4  5  1  0  0  0  0
  4  6  2  0  0  0  0
  5  8  2  0  0  0  0
  6 15  1  0  0  0  0
  7 16  1  0  0  0  0
  8 10  1  0  0  0  0
  8 11  1  0  0  0  0
  9 16  1  0  0  0  0
  9 18  2  0  0  0  0
 10 15  1  0  0  0  0
 10 19  2  0  0  0  0
 11 17  1  0  0  0  0
 11 20  2  0  0  0  0
 12 14  1  0  0  0  0
 12 16  1  0  0  0  0
 13 14  1  0  0  0  0
 13 17  1  0  0  0  0
 14 21  1  0  0  0  0
  1 22  1  0  0  0  0
  2 23  1  0  0  0  0
  3 24  1  0  0  0  0
  4 25  1  0  0  0  0
  5 26  1  0  0  0  0
  6 27  1  0  0  0  0
  7 28  1  0  0  0  0
 12 29  1  0  0  0  0
 12 30  1  0  0  0  0
 13 31  1  0  0  0  0
 13 32  1  0  0  0  0
 14 33  1  0  0  0  0
 15 34  1  0  0  0  0
 17 35  1  0  0  0  0
 21 36  1  0  0  0  0
M  END
> <FRED Chemgauss4 score>
-8.579559

$$$$
C54897756	P82660573
  -OEChem-05182014473D

 37 38  0     1  0  0  0  0  0999 V2000
  118.7935  105.1697  101.7649 C   0  0  0  0  0  0  0  0  0  0  0  0
  120.9051  105.1575  102.9389 C   0  0  0  0  0  0  0  0  0  0  0  0
  118.8392  104.9063  104.1661 C   0  0  0  0  0  0  0  0  0  0  0  0
  123.8692  106.9427  105.6044 C   0  0  0  0  0  0  0  0  0  0  0  0
  120.1860  105.2494  101.7472 C   0  0  0  0  0  0  0  0  0  0  0  0
  118.1201  104.9982  102.9744 C   0  0  0  0  0  0  0  0  0  0  0  0
  120.2317  104.9860  104.1484 C   0  0  0  0  0  0  0  0  0  0  0  0
  124.4012  106.0310  106.4920 C   0  0  0  0  0  0  0  0  0  0  0  0
  122.2109  105.5078  105.6369 C   0  0  0  0  0  0  0  0  0  0  0  0
  120.9059  105.4328  100.4540 C   0  0  0  0  0  0  0  0  0  0  0  0
  116.6313  104.9131  102.9933 C   0  0  0  0  0  0  0  0  0  0  0  0
  125.9002  107.2602  108.1150 C   0  0  0  0  0  0  0  0  0  0  0  0
  120.4867  103.8650  106.2946 C   0  0  0  0  0  0  0  0  0  0  0  0
  125.7004  106.0412  107.1917 C   0  0  2  0  0  0  0  0  0  0  0  0
  122.6135  106.6442  105.1127 N   0  0  0  0  0  0  0  0  0  0  0  0
  126.8328  105.9475  106.2762 N   0  0  0  0  0  0  0  0  0  0  0  0
  120.9587  104.8931  105.3533 N   0  0  0  0  0  0  0  0  0  0  0  0
  123.2920  104.7446  106.7294 S   0  0  0  0  0  0  0  0  0  0  0  0
  118.2329  105.2412  100.8358 H   0  0  0  0  0  0  0  0  0  0  0  0
  121.9909  105.2198  102.9232 H   0  0  0  0  0  0  0  0  0  0  0  0
  118.3124  104.7726  105.1083 H   0  0  0  0  0  0  0  0  0  0  0  0
  124.3597  107.8492  105.2752 H   0  0  0  0  0  0  0  0  0  0  0  0
  121.0333  106.5002  100.2358 H   0  0  0  0  0  0  0  0  0  0  0  0
  121.8973  104.9621  100.4797 H   0  0  0  0  0  0  0  0  0  0  0  0
  120.3566  104.9709   99.6232 H   0  0  0  0  0  0  0  0  0  0  0  0
  116.3069  103.8708  102.8851 H   0  0  0  0  0  0  0  0  0  0  0  0
  116.2213  105.3095  103.9312 H   0  0  0  0  0  0  0  0  0  0  0  0
  116.1882  105.5016  102.1793 H   0  0  0  0  0  0  0  0  0  0  0  0
  125.8057  108.1905  107.5443 H   0  0  0  0  0  0  0  0  0  0  0  0
  125.1625  107.2826  108.9250 H   0  0  0  0  0  0  0  0  0  0  0  0
  126.8912  107.2498  108.5827 H   0  0  0  0  0  0  0  0  0  0  0  0
  120.9959  102.9171  106.1020 H   0  0  0  0  0  0  0  0  0  0  0  0
  119.4095  103.7151  106.1815 H   0  0  0  0  0  0  0  0  0  0  0  0
  120.6917  104.1720  107.3237 H   0  0  0  0  0  0  0  0  0  0  0  0
  125.8103  105.1461  107.8388 H   0  0  0  0  0  0  0  0  0  0  0  0
  126.7390  105.3676  105.4701 H   0  0  0  0  0  0  0  0  0  0  0  0
  127.7163  106.2933  106.5844 H   0  0  0  0  0  0  0  0  0  0  0  0
  1  5  2  0  0  0  0
  1  6  1  0  0  0  0
  2  5  1  0  0  0  0
  2  7  2  0  0  0  0
  3  6  2  0  0  0  0
  3  7  1  0  0  0  0
  4  8  2  0  0  0  0
  4 15  1  0  0  0  0
  5 10  1  0  0  0  0
  6 11  1  0  0  0  0
  7 17  1  0  0  0  0
  8 14  1  0  0  0  0
  8 18  1  0  0  0  0
  9 15  2  0  0  0  0
  9 17  1  0  0  0  0
  9 18  1  0  0  0  0
 12 14  1  0  0  0  0
 13 17  1  0  0  0  0
 14 16  1  0  0  0  0
  1 19  1  0  0  0  0
  2 20  1  0  0  0  0
  3 21  1  0  0  0  0
  4 22  1  0  0  0  0
 10 23  1  0  0  0  0
 10 24  1  0  0  0  0
 10 25  1  0  0  0  0
 11 26  1  0  0  0  0
 11 27  1  0  0  0  0
 11 28  1  0  0  0  0
 12 29  1  0  0  0  0
 12 30  1  0  0  0  0
 12 31  1  0  0  0  0
 13 32  1  0  0  0  0
 13 33  1  0  0  0  0
 13 34  1  0  0  0  0
 14 35  1  0  0  0  0
 16 36  1  0  0  0  0
 16 37  1  0  0  0  0
M  END
> <FRED Chemgauss4 score>
-8.501552

$$$$
C89197721	P139498389
  -OEChem-05182014473D

 46 48  0     1  0  0  0  0  0999 V2000
  118.9028  103.0546  106.1793 C   0  0  0  0  0  0  0  0  0  0  0  0
  118.1614  104.2349  106.1268 C   0  0  0  0  0  0  0  0  0  0  0  0
  120.2963  103.1072  106.2118 C   0  0  0  0  0  0  0  0  0  0  0  0
  120.2070  105.5204  106.1391 C   0  0  0  0  0  0  0  0  0  0  0  0
  118.8134  105.4678  106.1067 C   0  0  0  0  0  0  0  0  0  0  0  0
  120.9484  104.3401  106.1917 C   0  0  0  0  0  0  0  0  0  0  0  0
  115.0205  107.9614  106.5094 C   0  0  0  0  0  0  0  0  0  0  0  0
  113.9138  107.2074  106.8392 C   0  0  0  0  0  0  0  0  0  0  0  0
  114.4532  108.9989  108.3565 C   0  0  0  0  0  0  0  0  0  0  0  0
  118.0392  106.6975  106.0520 C   0  0  0  0  0  0  0  0  0  0  0  0
  123.1659  105.5260  106.2124 C   0  0  0  0  0  0  0  0  0  0  0  0
  125.4255  105.6253  108.4266 C   0  0  0  0  0  0  0  0  0  0  0  0
  124.9996  104.4690  107.5539 C   0  0  0  0  0  0  0  0  0  0  0  0
  126.0655  106.5572  107.4227 C   0  0  0  0  0  0  0  0  0  0  0  0
  124.6161  105.1586  106.2585 C   0  0  2  0  0  0  0  0  0  0  0  0
  113.3068  106.0542  106.1444 C   0  0  0  0  0  0  0  0  0  0  0  0
  114.4611  109.9623  109.4789 C   0  0  0  0  0  0  0  0  0  0  0  0
  115.8967  107.7646  105.3062 C   0  0  0  0  0  0  0  0  0  0  0  0
  115.3310  108.9894  107.3780 N   0  0  0  0  0  0  0  0  0  0  0  0
  122.3621  104.3932  106.2249 N   0  0  0  0  0  0  0  0  0  0  0  0
  116.7743  106.6263  105.4566 N   0  0  0  0  0  0  0  0  0  0  0  0
  118.5072  107.7589  106.5011 O   0  0  0  0  0  0  0  0  0  0  0  0
  122.8166  106.7013  106.1735 O   0  0  0  0  0  0  0  0  0  0  0  0
  125.3463  106.3868  106.1940 O   0  0  0  0  0  0  0  0  0  0  0  0
  113.2275  107.7993  108.2952 S   0  0  0  0  0  0  0  0  0  0  0  0
  118.3952  102.0945  106.1954 H   0  0  0  0  0  0  0  0  0  0  0  0
  117.0761  104.1814  106.1008 H   0  0  0  0  0  0  0  0  0  0  0  0
  120.8642  102.1809  106.2522 H   0  0  0  0  0  0  0  0  0  0  0  0
  120.7157  106.4821  106.1223 H   0  0  0  0  0  0  0  0  0  0  0  0
  124.5437  106.1007  108.8723 H   0  0  0  0  0  0  0  0  0  0  0  0
  126.1031  105.3380  109.2348 H   0  0  0  0  0  0  0  0  0  0  0  0
  125.8584  103.8095  107.3808 H   0  0  0  0  0  0  0  0  0  0  0  0
  124.1961  103.8732  107.9968 H   0  0  0  0  0  0  0  0  0  0  0  0
  126.0227  107.6050  107.7330 H   0  0  0  0  0  0  0  0  0  0  0  0
  127.1114  106.2873  107.2402 H   0  0  0  0  0  0  0  0  0  0  0  0
  124.8457  104.5470  105.3788 H   0  0  0  0  0  0  0  0  0  0  0  0
  113.7407  105.1049  106.4981 H   0  0  0  0  0  0  0  0  0  0  0  0
  112.2162  106.0043  106.3022 H   0  0  0  0  0  0  0  0  0  0  0  0
  113.4552  106.1051  105.0524 H   0  0  0  0  0  0  0  0  0  0  0  0
  113.8654  110.8559  109.2355 H   0  0  0  0  0  0  0  0  0  0  0  0
  114.0480  109.5219  110.4010 H   0  0  0  0  0  0  0  0  0  0  0  0
  115.4823  110.2945  109.7277 H   0  0  0  0  0  0  0  0  0  0  0  0
  115.2896  107.6061  104.4082 H   0  0  0  0  0  0  0  0  0  0  0  0
  116.5202  108.6465  105.1256 H   0  0  0  0  0  0  0  0  0  0  0  0
  122.8314  103.4907  106.2629 H   0  0  0  0  0  0  0  0  0  0  0  0
  116.4665  105.7492  105.0495 H   0  0  0  0  0  0  0  0  0  0  0  0
  1  2  2  0  0  0  0
  1  3  1  0  0  0  0
  2  5  1  0  0  0  0
  3  6  2  0  0  0  0
  4  5  2  0  0  0  0
  4  6  1  0  0  0  0
  5 10  1  0  0  0  0
  6 20  1  0  0  0  0
  7  8  2  0  0  0  0
  7 18  1  0  0  0  0
  7 19  1  0  0  0  0
  8 16  1  0  0  0  0
  8 25  1  0  0  0  0
  9 17  1  0  0  0  0
  9 19  2  0  0  0  0
  9 25  1  0  0  0  0
 10 21  1  0  0  0  0
 10 22  2  0  0  0  0
 11 15  1  0  0  0  0
 11 20  1  0  0  0  0
 11 23  2  0  0  0  0
 12 13  1  0  0  0  0
 12 14  1  0  0  0  0
 13 15  1  0  0  0  0
 14 24  1  0  0  0  0
 15 24  1  0  0  0  0
 18 21  1  0  0  0  0
  1 26  1  0  0  0  0
  2 27  1  0  0  0  0
  3 28  1  0  0  0  0
  4 29  1  0  0  0  0
 12 30  1  0  0  0  0
 12 31  1  0  0  0  0
 13 32  1  0  0  0  0
 13 33  1  0  0  0  0
 14 34  1  0  0  0  0
 14 35  1  0  0  0  0
 15 36  1  0  0  0  0
 16 37  1  0  0  0  0
 16 38  1  0  0  0  0
 16 39  1  0  0  0  0
 17 40  1  0  0  0  0
 17 41  1  0  0  0  0
 17 42  1  0  0  0  0
 18 43  1  0  0  0  0
 18 44  1  0  0  0  0
 20 45  1  0  0  0  0
 21 46  1  0  0  0  0
M  END
> <FRED Chemgauss4 score>
-8.496192

$$$$
C36915741	P54887083
  -OEChem-05182014473D

 28 28  0     1  0  0  0  0  0999 V2000
  121.4429  106.0083  105.1047 C   0  0  0  0  0  0  0  0  0  0  0  0
  123.4185  106.3402  105.6207 C   0  0  0  0  0  0  0  0  0  0  0  0
  120.9102  105.2143  102.2050 C   0  0  0  0  0  0  0  0  0  0  0  0
  125.4529  105.9632  108.1879 C   0  0  0  0  0  0  0  0  0  0  0  0
  120.1397  106.1620  104.4487 C   0  0  0  0  0  0  0  0  0  0  0  0
  119.8987  105.1167  103.3360 C   0  0  0  0  0  0  0  0  0  0  0  0
  124.8579  106.7938  105.8221 C   0  0  2  0  0  0  0  0  0  0  0  0
  125.1318  107.1640  107.3003 C   0  0  2  0  0  0  0  0  0  0  0  0
  122.4965  106.8314  104.8319 N   0  0  0  0  0  0  0  0  0  0  0  0
  121.6721  105.0517  106.0092 N   0  0  0  0  0  0  0  0  0  0  0  0
  125.1732  107.9015  104.9133 N   0  0  0  0  0  0  0  0  0  0  0  0
  123.0096  105.2754  106.3592 O   0  0  0  0  0  0  0  0  0  0  0  0
  126.2574  108.0469  107.3595 O   0  0  0  0  0  0  0  0  0  0  0  0
  120.8959  106.2103  101.7509 H   0  0  0  0  0  0  0  0  0  0  0  0
  121.9239  105.0154  102.5672 H   0  0  0  0  0  0  0  0  0  0  0  0
  120.6785  104.4823  101.4250 H   0  0  0  0  0  0  0  0  0  0  0  0
  126.2965  105.3840  107.8022 H   0  0  0  0  0  0  0  0  0  0  0  0
  124.5845  105.3018  108.2814 H   0  0  0  0  0  0  0  0  0  0  0  0
  125.7041  106.2960  109.2013 H   0  0  0  0  0  0  0  0  0  0  0  0
  119.3016  106.0874  105.1760 H   0  0  0  0  0  0  0  0  0  0  0  0
  120.0212  107.1728  104.0002 H   0  0  0  0  0  0  0  0  0  0  0  0
  119.9390  104.1092  103.7676 H   0  0  0  0  0  0  0  0  0  0  0  0
  118.8893  105.2458  102.9268 H   0  0  0  0  0  0  0  0  0  0  0  0
  125.5174  105.9567  105.5568 H   0  0  0  0  0  0  0  0  0  0  0  0
  124.2823  107.7017  107.7367 H   0  0  0  0  0  0  0  0  0  0  0  0
  124.7452  107.8998  104.0164 H   0  0  0  0  0  0  0  0  0  0  0  0
  125.9430  108.4855  105.1460 H   0  0  0  0  0  0  0  0  0  0  0  0
  126.3553  108.2970  108.2894 H   0  0  0  0  0  0  0  0  0  0  0  0
  1  5  1  0  0  0  0
  1  9  1  0  0  0  0
  1 10  2  0  0  0  0
  2  7  1  0  0  0  0
  2  9  2  0  0  0  0
  2 12  1  0  0  0  0
  3  6  1  0  0  0  0
  4  8  1  0  0  0  0
  5  6  1  0  0  0  0
  7  8  1  0  0  0  0
  7 11  1  0  0  0  0
  8 13  1  0  0  0  0
 10 12  1  0  0  0  0
  3 14  1  0  0  0  0
  3 15  1  0  0  0  0
  3 16  1  0  0  0  0
  4 17  1  0  0  0  0
  4 18  1  0  0  0  0
  4 19  1  0  0  0  0
  5 20  1  0  0  0  0
  5 21  1  0  0  0  0
  6 22  1  0  0  0  0
  6 23  1  0  0  0  0
  7 24  1  0  0  0  0
  8 25  1  0  0  0  0
 11 26  1  0  0  0  0
 11 27  1  0  0  0  0
 13 28  1  0  0  0  0
M  END
> <FRED Chemgauss4 score>
-8.488799

$$$$
C41068534	P62332866
  -OEChem-05182014473D

 33 34  0     1  0  0  0  0  0999 V2000
  124.9167  106.7996  107.9931 C   0  0  0  0  0  0  0  0  0  0  0  0
  125.7459  104.7226  108.6264 C   0  0  0  0  0  0  0  0  0  0  0  0
  125.5901  106.0410  108.9938 C   0  0  0  0  0  0  0  0  0  0  0  0
  124.5838  106.0319  106.8987 C   0  0  0  0  0  0  0  0  0  0  0  0
  118.8500  104.7992  101.6782 C   0  0  0  0  0  0  0  0  0  0  0  0
  118.8102  104.3998  103.1319 C   0  0  0  0  0  0  0  0  0  0  0  0
  120.2296  104.3335  101.2634 C   0  0  0  0  0  0  0  0  0  0  0  0
  120.2355  104.6950  103.5659 C   0  0  1  0  0  0  0  0  0  0  0  0
  120.6914  103.8659  104.7508 C   0  0  0  0  0  0  0  0  0  0  0  0
  122.1188  104.1855  105.1863 C   0  0  0  0  0  0  0  0  0  0  0  0
  126.0257  106.5529  110.1680 N   0  0  0  0  0  0  0  0  0  0  0  0
  122.2710  105.5547  105.5940 N   0  0  0  0  0  0  0  0  0  0  0  0
  123.4923  107.8140  105.3357 O   0  0  0  0  0  0  0  0  0  0  0  0
  124.5336  105.7624  104.3203 O   0  0  0  0  0  0  0  0  0  0  0  0
  121.0669  104.4166  102.4264 O   0  0  0  0  0  0  0  0  0  0  0  0
  125.0821  104.4037  107.0804 S   0  0  0  0  0  0  0  0  0  0  0  0
  123.7608  106.3891  105.3756 S   0  0  0  0  0  0  0  0  0  0  0  0
  124.6860  107.8550  108.0675 H   0  0  0  0  0  0  0  0  0  0  0  0
  126.2165  103.9265  109.1873 H   0  0  0  0  0  0  0  0  0  0  0  0
  118.0512  104.3564  101.0775 H   0  0  0  0  0  0  0  0  0  0  0  0
  118.7807  105.8899  101.5899 H   0  0  0  0  0  0  0  0  0  0  0  0
  118.0658  104.9505  103.7136 H   0  0  0  0  0  0  0  0  0  0  0  0
  118.5871  103.3290  103.2130 H   0  0  0  0  0  0  0  0  0  0  0  0
  120.2136  103.2874  100.9395 H   0  0  0  0  0  0  0  0  0  0  0  0
  120.6538  104.9414  100.4593 H   0  0  0  0  0  0  0  0  0  0  0  0
  120.3487  105.7613  103.7958 H   0  0  0  0  0  0  0  0  0  0  0  0
  120.6371  102.8024  104.4831 H   0  0  0  0  0  0  0  0  0  0  0  0
  120.0022  104.0199  105.5920 H   0  0  0  0  0  0  0  0  0  0  0  0
  122.4012  103.5638  106.0417 H   0  0  0  0  0  0  0  0  0  0  0  0
  122.8310  103.9955  104.3772 H   0  0  0  0  0  0  0  0  0  0  0  0
  125.9358  107.5529  110.3938 H   0  0  0  0  0  0  0  0  0  0  0  0
  126.5506  105.9862  110.8483 H   0  0  0  0  0  0  0  0  0  0  0  0
  121.4125  106.1440  105.6404 H   0  0  0  0  0  0  0  0  0  0  0  0
  1  3  1  0  0  0  0
  1  4  2  0  0  0  0
  2  3  2  0  0  0  0
  2 16  1  0  0  0  0
  3 11  1  0  0  0  0
  4 16  1  0  0  0  0
  4 17  1  0  0  0  0
  5  6  1  0  0  0  0
  5  7  1  0  0  0  0
  6  8  1  0  0  0  0
  7 15  1  0  0  0  0
  8  9  1  0  0  0  0
  8 15  1  0  0  0  0
  9 10  1  0  0  0  0
 10 12  1  0  0  0  0
 12 17  1  0  0  0  0
 13 17  2  0  0  0  0
 14 17  2  0  0  0  0
  1 18  1  0  0  0  0
  2 19  1  0  0  0  0
  5 20  1  0  0  0  0
  5 21  1  0  0  0  0
  6 22  1  0  0  0  0
  6 23  1  0  0  0  0
  7 24  1  0  0  0  0
  7 25  1  0  0  0  0
  8 26  1  0  0  0  0
  9 27  1  0  0  0  0
  9 28  1  0  0  0  0
 10 29  1  0  0  0  0
 10 30  1  0  0  0  0
 11 31  1  0  0  0  0
 11 32  1  0  0  0  0
 12 33  1  0  0  0  0
M  END
> <FRED Chemgauss4 score>
-8.483634

$$$$
C95393957	P149847473
  -OEChem-05182014473D

 52 54  0     1  0  0  0  0  0999 V2000
  119.3311  105.8358  107.0460 C   0  0  0  0  0  0  0  0  0  0  0  0
  118.3395  105.3884  106.1802 C   0  0  0  0  0  0  0  0  0  0  0  0
  119.2725  107.9414  105.9417 C   0  0  0  0  0  0  0  0  0  0  0  0
  119.8120  107.1354  106.9312 C   0  0  0  0  0  0  0  0  0  0  0  0
  117.8658  106.2727  105.2244 C   0  0  0  0  0  0  0  0  0  0  0  0
  125.4519  106.6823  107.2924 C   0  0  0  0  0  0  0  0  0  0  0  0
  124.2181  106.2589  106.9769 C   0  0  0  0  0  0  0  0  0  0  0  0
  123.1073  107.1691  106.8734 C   0  0  0  0  0  0  0  0  0  0  0  0
  123.9531  104.8099  106.6802 C   0  0  0  0  0  0  0  0  0  0  0  0
  125.2620  104.0561  106.4500 C   0  0  0  0  0  0  0  0  0  0  0  0
  114.7785  104.8380  102.6074 C   0  0  0  0  0  0  0  0  0  0  0  0
  114.5692  106.0562  103.4954 C   0  0  0  0  0  0  0  0  0  0  0  0
  115.7744  103.8836  103.2563 C   0  0  0  0  0  0  0  0  0  0  0  0
  115.8865  106.7567  103.8188 C   0  0  0  0  0  0  0  0  0  0  0  0
  126.2985  104.4881  107.4790 C   0  0  0  0  0  0  0  0  0  0  0  0
  117.1088  104.5593  103.6071 C   0  0  1  0  0  0  0  0  0  0  0  0
  120.8728  107.6432  107.8419 C   0  0  0  0  0  0  0  0  0  0  0  0
  117.9544  104.8402  102.3603 C   0  0  0  0  0  0  0  0  0  0  0  0
  118.6456  103.5842  101.8683 C   0  0  0  0  0  0  0  0  0  0  0  0
  118.3084  107.5421  105.0823 N   0  0  0  0  0  0  0  0  0  0  0  0
  116.8669  105.8073  104.3605 N   0  0  1  0  0  0  0  0  0  0  0  0
  122.0881  106.8708  107.7581 N   0  0  0  0  0  0  0  0  0  0  0  0
  123.1287  108.0917  106.0661 O   0  0  0  0  0  0  0  0  0  0  0  0
  126.5669  105.8948  107.4289 O   0  0  0  0  0  0  0  0  0  0  0  0
  119.4763  103.0929  102.9110 O   0  0  0  0  0  0  0  0  0  0  0  0
  119.7233  105.1660  107.8064 H   0  0  0  0  0  0  0  0  0  0  0  0
  117.9587  104.3754  106.2626 H   0  0  0  0  0  0  0  0  0  0  0  0
  119.6082  108.9646  105.8036 H   0  0  0  0  0  0  0  0  0  0  0  0
  125.7042  107.7140  107.4998 H   0  0  0  0  0  0  0  0  0  0  0  0
  123.4063  104.3408  107.5060 H   0  0  0  0  0  0  0  0  0  0  0  0
  123.3218  104.7408  105.7862 H   0  0  0  0  0  0  0  0  0  0  0  0
  125.0769  102.9793  106.5548 H   0  0  0  0  0  0  0  0  0  0  0  0
  125.6276  104.2320  105.4328 H   0  0  0  0  0  0  0  0  0  0  0  0
  113.8224  104.3252  102.4530 H   0  0  0  0  0  0  0  0  0  0  0  0
  115.1359  105.1500  101.6196 H   0  0  0  0  0  0  0  0  0  0  0  0
  113.8868  106.7605  103.0066 H   0  0  0  0  0  0  0  0  0  0  0  0
  114.0878  105.7417  104.4302 H   0  0  0  0  0  0  0  0  0  0  0  0
  115.3271  103.4907  104.1791 H   0  0  0  0  0  0  0  0  0  0  0  0
  115.9437  103.0213  102.6008 H   0  0  0  0  0  0  0  0  0  0  0  0
  116.2895  107.2372  102.9188 H   0  0  0  0  0  0  0  0  0  0  0  0
  115.6857  107.5515  104.5485 H   0  0  0  0  0  0  0  0  0  0  0  0
  125.9393  104.2592  108.4877 H   0  0  0  0  0  0  0  0  0  0  0  0
  127.2423  103.9469  107.3373 H   0  0  0  0  0  0  0  0  0  0  0  0
  117.6698  103.8664  104.2436 H   0  0  0  0  0  0  0  0  0  0  0  0
  121.1323  108.6873  107.6107 H   0  0  0  0  0  0  0  0  0  0  0  0
  120.5491  107.6257  108.8932 H   0  0  0  0  0  0  0  0  0  0  0  0
  118.6919  105.6106  102.5942 H   0  0  0  0  0  0  0  0  0  0  0  0
  117.3130  105.2500  101.5775 H   0  0  0  0  0  0  0  0  0  0  0  0
  117.9181  102.8088  101.6077 H   0  0  0  0  0  0  0  0  0  0  0  0
  119.2708  103.7938  100.9944 H   0  0  0  0  0  0  0  0  0  0  0  0
  122.2000  106.0715  108.3773 H   0  0  0  0  0  0  0  0  0  0  0  0
  119.9067  102.2910  102.5726 H   0  0  0  0  0  0  0  0  0  0  0  0
  1  2  1  0  0  0  0
  1  4  2  0  0  0  0
  2  5  2  0  0  0  0
  3  4  1  0  0  0  0
  3 20  2  0  0  0  0
  4 17  1  0  0  0  0
  5 20  1  0  0  0  0
  5 21  1  0  0  0  0
  6  7  2  0  0  0  0
  6 24  1  0  0  0  0
  7  8  1  0  0  0  0
  7  9  1  0  0  0  0
  8 22  1  0  0  0  0
  8 23  2  0  0  0  0
  9 10  1  0  0  0  0
 10 15  1  0  0  0  0
 11 12  1  0  0  0  0
 11 13  1  0  0  0  0
 12 14  1  0  0  0  0
 13 16  1  0  0  0  0
 14 21  1  0  0  0  0
 15 24  1  0  0  0  0
 16 18  1  0  0  0  0
 16 21  1  0  0  0  0
 17 22  1  0  0  0  0
 18 19  1  0  0  0  0
 19 25  1  0  0  0  0
  1 26  1  0  0  0  0
  2 27  1  0  0  0  0
  3 28  1  0  0  0  0
  6 29  1  0  0  0  0
  9 30  1  0  0  0  0
  9 31  1  0  0  0  0
 10 32  1  0  0  0  0
 10 33  1  0  0  0  0
 11 34  1  0  0  0  0
 11 35  1  0  0  0  0
 12 36  1  0  0  0  0
 12 37  1  0  0  0  0
 13 38  1  0  0  0  0
 13 39  1  0  0  0  0
 14 40  1  0  0  0  0
 14 41  1  0  0  0  0
 15 42  1  0  0  0  0
 15 43  1  0  0  0  0
 16 44  1  0  0  0  0
 17 45  1  0  0  0  0
 17 46  1  0  0  0  0
 18 47  1  0  0  0  0
 18 48  1  0  0  0  0
 19 49  1  0  0  0  0
 19 50  1  0  0  0  0
 22 51  1  0  0  0  0
 25 52  1  0  0  0  0
M  END
> <FRED Chemgauss4 score>
-8.476232

$$$$
C49753446	P74337722
  -OEChem-05182014473D

 38 38  0     1  0  0  0  0  0999 V2000
  122.0692  105.9845  105.7229 C   0  0  0  0  0  0  0  0  0  0  0  0
  119.6707  105.5082  103.4562 C   0  0  0  0  0  0  0  0  0  0  0  0
  118.9514  104.1799  103.6761 C   0  0  0  0  0  0  0  0  0  0  0  0
  118.3536  106.1066  105.4263 C   0  0  0  0  0  0  0  0  0  0  0  0
  119.7548  106.2019  104.8205 C   0  0  1  0  0  0  0  0  0  0  0  0
  122.8618  105.1535  106.6992 C   0  0  0  0  0  0  0  0  0  0  0  0
  124.5376  105.3590  108.4087 C   0  0  0  0  0  0  0  0  0  0  0  0
  122.3783  106.3670  108.7156 C   0  0  0  0  0  0  0  0  0  0  0  0
  125.7928  105.5305  107.5729 C   0  0  0  0  0  0  0  0  0  0  0  0
  122.7742  107.6308  109.4570 C   0  0  0  0  0  0  0  0  0  0  0  0
  120.7422  105.5786  105.6701 N   0  0  0  0  0  0  0  0  0  0  0  0
  123.4160  106.0208  107.7491 N   0  0  0  0  0  0  0  0  0  0  0  0
  122.5542  106.9032  105.0678 O   0  0  0  0  0  0  0  0  0  0  0  0
  116.4375  104.7143  104.2662 O   0  0  0  0  0  0  0  0  0  0  0  0
  117.8867  103.5736  106.0077 O   0  0  0  0  0  0  0  0  0  0  0  0
  126.0588  106.9165  107.3991 O   0  0  0  0  0  0  0  0  0  0  0  0
  121.7445  107.9839  110.3718 O   0  0  0  0  0  0  0  0  0  0  0  0
  117.7142  104.5138  104.9199 S   0  0  0  0  0  0  0  0  0  0  0  0
  120.6552  105.3515  103.0032 H   0  0  0  0  0  0  0  0  0  0  0  0
  119.0817  106.1302  102.7707 H   0  0  0  0  0  0  0  0  0  0  0  0
  118.4716  103.8109  102.7673 H   0  0  0  0  0  0  0  0  0  0  0  0
  119.6320  103.4209  104.0723 H   0  0  0  0  0  0  0  0  0  0  0  0
  118.3410  106.1739  106.5169 H   0  0  0  0  0  0  0  0  0  0  0  0
  117.6953  106.8683  104.9965 H   0  0  0  0  0  0  0  0  0  0  0  0
  120.0578  107.2470  104.7145 H   0  0  0  0  0  0  0  0  0  0  0  0
  122.2109  104.4034  107.1581 H   0  0  0  0  0  0  0  0  0  0  0  0
  123.6821  104.6511  106.1782 H   0  0  0  0  0  0  0  0  0  0  0  0
  124.2859  104.3012  108.5343 H   0  0  0  0  0  0  0  0  0  0  0  0
  124.6710  105.8151  109.3943 H   0  0  0  0  0  0  0  0  0  0  0  0
  122.2561  105.5248  109.4041 H   0  0  0  0  0  0  0  0  0  0  0  0
  121.4425  106.5226  108.1704 H   0  0  0  0  0  0  0  0  0  0  0  0
  125.6471  105.0878  106.5826 H   0  0  0  0  0  0  0  0  0  0  0  0
  126.6605  105.0625  108.0490 H   0  0  0  0  0  0  0  0  0  0  0  0
  122.8961  108.4573  108.7501 H   0  0  0  0  0  0  0  0  0  0  0  0
  123.7079  107.4958  110.0127 H   0  0  0  0  0  0  0  0  0  0  0  0
  120.4510  104.8030  106.2597 H   0  0  0  0  0  0  0  0  0  0  0  0
  126.8649  106.9812  106.8623 H   0  0  0  0  0  0  0  0  0  0  0  0
  122.0362  108.7926  110.8224 H   0  0  0  0  0  0  0  0  0  0  0  0
  1  6  1  0  0  0  0
  1 11  1  0  0  0  0
  1 13  2  0  0  0  0
  2  3  1  0  0  0  0
  2  5  1  0  0  0  0
  3 18  1  0  0  0  0
  4  5  1  0  0  0  0
  4 18  1  0  0  0  0
  5 11  1  0  0  0  0
  6 12  1  0  0  0  0
  7  9  1  0  0  0  0
  7 12  1  0  0  0  0
  8 10  1  0  0  0  0
  8 12  1  0  0  0  0
  9 16  1  0  0  0  0
 10 17  1  0  0  0  0
 14 18  2  0  0  0  0
 15 18  2  0  0  0  0
  2 19  1  0  0  0  0
  2 20  1  0  0  0  0
  3 21  1  0  0  0  0
  3 22  1  0  0  0  0
  4 23  1  0  0  0  0
  4 24  1  0  0  0  0
  5 25  1  0  0  0  0
  6 26  1  0  0  0  0
  6 27  1  0  0  0  0
  7 28  1  0  0  0  0
  7 29  1  0  0  0  0
  8 30  1  0  0  0  0
  8 31  1  0  0  0  0
  9 32  1  0  0  0  0
  9 33  1  0  0  0  0
 10 34  1  0  0  0  0
 10 35  1  0  0  0  0
 11 36  1  0  0  0  0
 16 37  1  0  0  0  0
 17 38  1  0  0  0  0
M  END
> <FRED Chemgauss4 score>
-8.475994

$$$$
Schulte-2015	P10000001
  -OEChem-05182014473D

 46 47  0     1  0  0  0  0  0999 V2000
  116.4950  109.1342  108.9133 C   0  0  0  0  0  0  0  0  0  0  0  0
  117.5748  109.2411  109.7897 C   0  0  0  0  0  0  0  0  0  0  0  0
  116.6732  108.5623  107.6535 C   0  0  0  0  0  0  0  0  0  0  0  0
  118.8328  108.7762  109.4065 C   0  0  0  0  0  0  0  0  0  0  0  0
  117.9313  108.0975  107.2702 C   0  0  0  0  0  0  0  0  0  0  0  0
  119.0111  108.2044  108.1467 C   0  0  0  0  0  0  0  0  0  0  0  0
  121.5290  108.2295  108.1949 C   0  0  0  0  0  0  0  0  0  0  0  0
  124.8272  107.3551  105.1156 C   0  0  0  0  0  0  0  0  0  0  0  0
  119.1575  105.6969  104.7009 C   0  0  0  0  0  0  0  0  0  0  0  0
  117.4668  105.1991  106.3418 C   0  0  0  0  0  0  0  0  0  0  0  0
  119.6300  104.2486  104.7900 C   0  0  0  0  0  0  0  0  0  0  0  0
  117.9799  103.7629  106.3930 C   0  0  0  0  0  0  0  0  0  0  0  0
  118.0928  107.4895  105.9148 C   0  0  0  0  0  0  0  0  0  0  0  0
  122.6626  107.4390  107.5549 C   0  0  0  0  0  0  0  0  0  0  0  0
  123.9230  108.2822  107.3482 C   0  0  0  0  0  0  0  0  0  0  0  0
  125.0296  107.5021  106.6319 C   0  0  2  0  0  0  0  0  0  0  0  0
  118.5639  106.1077  105.9810 N   0  0  0  0  0  0  0  0  0  0  0  0
  120.2952  107.7389  107.7766 N   0  0  0  0  0  0  0  0  0  0  0  0
  126.3195  108.1975  106.9427 N   0  3  0  0  0  0  0  0  0  0  0  0
  125.8984  107.3274  104.4442 O   0  5  0  0  0  0  0  0  0  0  0  0
  121.7380  109.1589  108.9674 O   0  0  0  0  0  0  0  0  0  0  0  0
  123.6313  107.2640  104.7216 O   0  0  0  0  0  0  0  0  0  0  0  0
  118.5415  103.3904  105.1340 O   0  0  0  0  0  0  0  0  0  0  0  0
  115.5157  109.4966  109.2111 H   0  0  0  0  0  0  0  0  0  0  0  0
  117.4362  109.6871  110.7704 H   0  0  0  0  0  0  0  0  0  0  0  0
  115.8256  108.4841  106.9779 H   0  0  0  0  0  0  0  0  0  0  0  0
  119.6662  108.8649  110.0987 H   0  0  0  0  0  0  0  0  0  0  0  0
  120.0125  106.3346  104.4597 H   0  0  0  0  0  0  0  0  0  0  0  0
  118.4195  105.7888  103.8966 H   0  0  0  0  0  0  0  0  0  0  0  0
  116.6597  105.2705  105.6045 H   0  0  0  0  0  0  0  0  0  0  0  0
  117.0633  105.4654  107.3228 H   0  0  0  0  0  0  0  0  0  0  0  0
  120.0169  103.9233  103.8189 H   0  0  0  0  0  0  0  0  0  0  0  0
  120.4356  104.1309  105.5248 H   0  0  0  0  0  0  0  0  0  0  0  0
  118.7296  103.6279  107.1824 H   0  0  0  0  0  0  0  0  0  0  0  0
  117.1519  103.0783  106.6031 H   0  0  0  0  0  0  0  0  0  0  0  0
  117.1408  107.4900  105.3677 H   0  0  0  0  0  0  0  0  0  0  0  0
  118.8112  108.0538  105.3063 H   0  0  0  0  0  0  0  0  0  0  0  0
  122.3099  107.0576  106.5890 H   0  0  0  0  0  0  0  0  0  0  0  0
  122.8785  106.5790  108.1992 H   0  0  0  0  0  0  0  0  0  0  0  0
  124.2782  108.6554  108.3176 H   0  0  0  0  0  0  0  0  0  0  0  0
  123.6589  109.1699  106.7578 H   0  0  0  0  0  0  0  0  0  0  0  0
  125.1249  106.5067  107.0823 H   0  0  0  0  0  0  0  0  0  0  0  0
  120.3195  106.9539  107.1290 H   0  0  0  0  0  0  0  0  0  0  0  0
  127.1042  107.6771  106.5494 H   0  0  0  0  0  0  0  0  0  0  0  0
  126.4465  108.2683  107.9530 H   0  0  0  0  0  0  0  0  0  0  0  0
  126.3175  109.1377  106.5458 H   0  0  0  0  0  0  0  0  0  0  0  0
  1  2  1  0  0  0  0
  1  3  2  0  0  0  0
  2  4  2  0  0  0  0
  3  5  1  0  0  0  0
  4  6  1  0  0  0  0
  5  6  2  0  0  0  0
  5 13  1  0  0  0  0
  6 18  1  0  0  0  0
  7 14  1  0  0  0  0
  7 18  1  0  0  0  0
  7 21  2  0  0  0  0
  8 16  1  0  0  0  0
  8 20  1  0  0  0  0
  8 22  2  0  0  0  0
  9 11  1  0  0  0  0
  9 17  1  0  0  0  0
 10 12  1  0  0  0  0
 10 17  1  0  0  0  0
 11 23  1  0  0  0  0
 12 23  1  0  0  0  0
 13 17  1  0  0  0  0
 14 15  1  0  0  0  0
 15 16  1  0  0  0  0
 16 19  1  0  0  0  0
  1 24  1  0  0  0  0
  2 25  1  0  0  0  0
  3 26  1  0  0  0  0
  4 27  1  0  0  0  0
  9 28  1  0  0  0  0
  9 29  1  0  0  0  0
 10 30  1  0  0  0  0
 10 31  1  0  0  0  0
 11 32  1  0  0  0  0
 11 33  1  0  0  0  0
 12 34  1  0  0  0  0
 12 35  1  0  0  0  0
 13 36  1  0  0  0  0
 13 37  1  0  0  0  0
 14 38  1  0  0  0  0
 14 39  1  0  0  0  0
 15 40  1  0  0  0  0
 15 41  1  0  0  0  0
 16 42  1  0  0  0  0
 18 43  1  0  0  0  0
 19 44  1  0  0  0  0
 19 45  1  0  0  0  0
 19 46  1  0  0  0  0
M  CHG  2  19   1  20  -1
M  END
> <FRED Chemgauss4 score>
-8.472349

$$$$
C82263403	P128500246
  -OEChem-05182014473D

 31 31  0     1  0  0  0  0  0999 V2000
  122.7971  105.5544  106.1567 C   0  0  0  0  0  0  0  0  0  0  0  0
  117.2482  104.5641  105.4496 C   0  0  0  0  0  0  0  0  0  0  0  0
  118.1974  105.4329  106.2360 C   0  0  0  0  0  0  0  0  0  0  0  0
  118.1825  103.5215  104.8735 C   0  0  0  0  0  0  0  0  0  0  0  0
  119.1566  104.3992  106.8004 C   0  0  2  0  0  0  0  0  0  0  0  0
  121.4034  105.0294  105.8622 C   0  0  0  0  0  0  0  0  0  0  0  0
  120.5317  104.9566  107.1125 C   0  0  0  0  0  0  0  0  0  0  0  0
  124.9095  106.3868  108.1902 C   0  0  0  0  0  0  0  0  0  0  0  0
  124.8110  105.0337  107.5061 C   0  0  0  0  0  0  0  0  0  0  0  0
  126.2517  106.6846  108.6130 N   0  0  0  0  0  0  0  0  0  0  0  0
  123.4664  104.7473  107.0651 N   0  0  0  0  0  0  0  0  0  0  0  0
  123.2581  106.5700  105.6425 O   0  0  0  0  0  0  0  0  0  0  0  0
  119.2628  103.3664  105.8060 O   0  0  0  0  0  0  0  0  0  0  0  0
  116.5297  104.0890  106.1281 H   0  0  0  0  0  0  0  0  0  0  0  0
  116.6876  105.1054  104.6831 H   0  0  0  0  0  0  0  0  0  0  0  0
  118.7146  106.1211  105.5564 H   0  0  0  0  0  0  0  0  0  0  0  0
  117.7038  106.0237  107.0125 H   0  0  0  0  0  0  0  0  0  0  0  0
  117.6902  102.5578  104.7158 H   0  0  0  0  0  0  0  0  0  0  0  0
  118.6101  103.8554  103.9221 H   0  0  0  0  0  0  0  0  0  0  0  0
  118.7303  103.9385  107.7000 H   0  0  0  0  0  0  0  0  0  0  0  0
  120.9386  105.6892  105.1198 H   0  0  0  0  0  0  0  0  0  0  0  0
  121.5002  104.0331  105.4145 H   0  0  0  0  0  0  0  0  0  0  0  0
  120.4258  105.9553  107.5531 H   0  0  0  0  0  0  0  0  0  0  0  0
  121.0143  104.3262  107.8690 H   0  0  0  0  0  0  0  0  0  0  0  0
  124.2694  106.4336  109.0769 H   0  0  0  0  0  0  0  0  0  0  0  0
  124.6069  107.1801  107.4997 H   0  0  0  0  0  0  0  0  0  0  0  0
  125.4518  105.0099  106.6193 H   0  0  0  0  0  0  0  0  0  0  0  0
  125.1166  104.2244  108.1770 H   0  0  0  0  0  0  0  0  0  0  0  0
  126.8190  105.9483  109.0015 H   0  0  0  0  0  0  0  0  0  0  0  0
  126.5348  107.6471  108.7066 H   0  0  0  0  0  0  0  0  0  0  0  0
  122.9942  103.9265  107.4326 H   0  0  0  0  0  0  0  0  0  0  0  0
  1  6  1  0  0  0  0
  1 11  1  0  0  0  0
  1 12  2  0  0  0  0
  2  3  1  0  0  0  0
  2  4  1  0  0  0  0
  3  5  1  0  0  0  0
  4 13  1  0  0  0  0
  5  7  1  0  0  0  0
  5 13  1  0  0  0  0
  6  7  1  0  0  0  0
  8  9  1  0  0  0  0
  8 10  1  0  0  0  0
  9 11  1  0  0  0  0
  2 14  1  0  0  0  0
  2 15  1  0  0  0  0
  3 16  1  0  0  0  0
  3 17  1  0  0  0  0
  4 18  1  0  0  0  0
  4 19  1  0  0  0  0
  5 20  1  0  0  0  0
  6 21  1  0  0  0  0
  6 22  1  0  0  0  0
  7 23  1  0  0  0  0
  7 24  1  0  0  0  0
  8 25  1  0  0  0  0
  8 26  1  0  0  0  0
  9 27  1  0  0  0  0
  9 28  1  0  0  0  0
 10 29  1  0  0  0  0
 10 30  1  0  0  0  0
 11 31  1  0  0  0  0
M  END
> <FRED Chemgauss4 score>
-8.443135

$$$$
C64858422	P99657934
  -OEChem-05182014473D

 30 31  0     1  0  0  0  0  0999 V2000
  123.0370  106.0283  107.0411 C   0  0  0  0  0  0  0  0  0  0  0  0
  120.5346  106.2449  104.4985 C   0  0  0  0  0  0  0  0  0  0  0  0
  120.9921  104.4532  106.1630 C   0  0  0  0  0  0  0  0  0  0  0  0
  119.4409  104.2338  104.3428 C   0  0  0  0  0  0  0  0  0  0  0  0
  122.5734  104.9227  107.9461 C   0  0  0  0  0  0  0  0  0  0  0  0
  120.9869  105.9065  105.9118 C   0  0  1  0  0  0  0  0  0  0  0  0
  125.6151  104.4114  107.1524 C   0  0  0  0  0  0  0  0  0  0  0  0
  124.3899  106.6307  107.3045 C   0  0  2  0  0  0  0  0  0  0  0  0
  125.3360  105.6510  107.9922 C   0  0  2  0  0  0  0  0  0  0  0  0
  122.3176  106.5032  106.0807 N   0  0  0  0  0  0  0  0  0  0  0  0
  119.5652  105.4480  103.9227 N   0  0  0  0  0  0  0  0  0  0  0  0
  118.5798  103.3989  103.7862 N   0  5  0  0  0  0  0  0  0  0  0  0
  120.2112  103.6915  105.4122 N   0  0  0  0  0  0  0  0  0  0  0  0
  121.7530  104.0106  107.1568 N   0  3  0  0  0  0  0  0  0  0  0  0
  120.9658  107.2463  103.9270 O   0  0  0  0  0  0  0  0  0  0  0  0
  124.1694  107.7486  108.1473 O   0  0  0  0  0  0  0  0  0  0  0  0
  126.5690  106.3039  108.2921 O   0  0  0  0  0  0  0  0  0  0  0  0
  123.4301  104.3712  108.3419 H   0  0  0  0  0  0  0  0  0  0  0  0
  121.9828  105.3314  108.7703 H   0  0  0  0  0  0  0  0  0  0  0  0
  120.2800  106.3972  106.5930 H   0  0  0  0  0  0  0  0  0  0  0  0
  126.0549  104.6956  106.1901 H   0  0  0  0  0  0  0  0  0  0  0  0
  124.6979  103.8468  106.9597 H   0  0  0  0  0  0  0  0  0  0  0  0
  126.3405  103.7527  107.6418 H   0  0  0  0  0  0  0  0  0  0  0  0
  124.8095  106.9791  106.3577 H   0  0  0  0  0  0  0  0  0  0  0  0
  124.8966  105.3522  108.9513 H   0  0  0  0  0  0  0  0  0  0  0  0
  117.6523  103.5687  104.1849 H   0  0  0  0  0  0  0  0  0  0  0  0
  120.1633  102.7026  105.6389 H   0  0  0  0  0  0  0  0  0  0  0  0
  121.7420  103.0133  107.3482 H   0  0  0  0  0  0  0  0  0  0  0  0
  125.0383  108.1466  108.3246 H   0  0  0  0  0  0  0  0  0  0  0  0
  127.1059  105.6639  108.7835 H   0  0  0  0  0  0  0  0  0  0  0  0
  1  5  1  0  0  0  0
  1  8  1  0  0  0  0
  1 10  2  0  0  0  0
  2  6  1  0  0  0  0
  2 11  1  0  0  0  0
  2 15  2  0  0  0  0
  3  6  1  0  0  0  0
  3 13  1  0  0  0  0
  3 14  2  0  0  0  0
  4 11  2  0  0  0  0
  4 12  1  0  0  0  0
  4 13  1  0  0  0  0
  5 14  1  0  0  0  0
  6 10  1  0  0  0  0
  7  9  1  0  0  0  0
  8  9  1  0  0  0  0
  8 16  1  0  0  0  0
  9 17  1  0  0  0  0
  5 18  1  0  0  0  0
  5 19  1  0  0  0  0
  6 20  1  0  0  0  0
  7 21  1  0  0  0  0
  7 22  1  0  0  0  0
  7 23  1  0  0  0  0
  8 24  1  0  0  0  0
  9 25  1  0  0  0  0
 12 26  1  0  0  0  0
 13 27  1  0  0  0  0
 14 28  1  0  0  0  0
 16 29  1  0  0  0  0
 17 30  1  0  0  0  0
M  CHG  2  12  -1  14   1
M  END
> <FRED Chemgauss4 score>
-8.441469

$$$$
C54700285	P82325531
  -OEChem-05182014473D

 27 29  0     1  0  0  0  0  0999 V2000
  118.2818  106.5864  106.4842 C   0  0  0  0  0  0  0  0  0  0  0  0
  119.3681  107.4572  106.7870 C   0  0  0  0  0  0  0  0  0  0  0  0
  118.6914  105.2793  106.3388 C   0  0  0  0  0  0  0  0  0  0  0  0
  120.5668  106.7822  106.8619 C   0  0  0  0  0  0  0  0  0  0  0  0
  121.8630  107.4188  107.1590 C   0  0  0  0  0  0  0  0  0  0  0  0
  123.9204  107.7710  107.1623 C   0  0  0  0  0  0  0  0  0  0  0  0
  125.6454  105.1761  106.8881 C   0  0  0  0  0  0  0  0  0  0  0  0
  125.3513  105.5415  108.3162 C   0  0  0  0  0  0  0  0  0  0  0  0
  126.0932  106.5047  107.4314 C   0  0  0  0  0  0  0  0  0  0  0  0
  125.4372  107.7613  106.9744 C   0  0  1  0  0  0  0  0  0  0  0  0
  123.0404  106.9314  106.6683 N   0  0  0  0  0  0  0  0  0  0  0  0
  121.9592  108.5072  107.9256 N   0  0  0  0  0  0  0  0  0  0  0  0
  123.2852  108.7116  107.9116 N   0  0  0  0  0  0  0  0  0  0  0  0
  125.7672  108.0618  105.5856 N   0  0  0  0  0  0  0  0  0  0  0  0
  120.3796  105.1058  106.5674 S   0  0  0  0  0  0  0  0  0  0  0  0
  117.2522  106.9029  106.3790 H   0  0  0  0  0  0  0  0  0  0  0  0
  119.2664  108.5246  106.9410 H   0  0  0  0  0  0  0  0  0  0  0  0
  118.0803  104.4176  106.1100 H   0  0  0  0  0  0  0  0  0  0  0  0
  126.3907  104.4113  106.7076 H   0  0  0  0  0  0  0  0  0  0  0  0
  124.8185  105.1707  106.1886 H   0  0  0  0  0  0  0  0  0  0  0  0
  124.3269  105.7807  108.5742 H   0  0  0  0  0  0  0  0  0  0  0  0
  125.8997  105.0215  109.0919 H   0  0  0  0  0  0  0  0  0  0  0  0
  127.1521  106.6420  107.6146 H   0  0  0  0  0  0  0  0  0  0  0  0
  125.8478  108.6225  107.5399 H   0  0  0  0  0  0  0  0  0  0  0  0
  123.6712  109.4956  108.4246 H   0  0  0  0  0  0  0  0  0  0  0  0
  126.6789  107.8250  105.2566 H   0  0  0  0  0  0  0  0  0  0  0  0
  125.1584  108.6674  105.0777 H   0  0  0  0  0  0  0  0  0  0  0  0
  1  2  1  0  0  0  0
  1  3  2  0  0  0  0
  2  4  2  0  0  0  0
  3 15  1  0  0  0  0
  4  5  1  0  0  0  0
  4 15  1  0  0  0  0
  5 11  1  0  0  0  0
  5 12  2  0  0  0  0
  6 10  1  0  0  0  0
  6 11  2  0  0  0  0
  6 13  1  0  0  0  0
  7  8  1  0  0  0  0
  7  9  1  0  0  0  0
  8  9  1  0  0  0  0
  9 10  1  0  0  0  0
 10 14  1  0  0  0  0
 12 13  1  0  0  0  0
  1 16  1  0  0  0  0
  2 17  1  0  0  0  0
  3 18  1  0  0  0  0
  7 19  1  0  0  0  0
  7 20  1  0  0  0  0
  8 21  1  0  0  0  0
  8 22  1  0  0  0  0
  9 23  1  0  0  0  0
 10 24  1  0  0  0  0
 13 25  1  0  0  0  0
 14 26  1  0  0  0  0
 14 27  1  0  0  0  0
M  END
> <FRED Chemgauss4 score>
-8.436539

$$$$
C87886071	P137463365
  -OEChem-05182014473D

 36 36  0     1  0  0  0  0  0999 V2000
  125.3902  106.6233  106.7547 C   0  0  0  0  0  0  0  0  0  0  0  0
  122.4000  106.0737  105.4266 C   0  0  0  0  0  0  0  0  0  0  0  0
  120.0509  106.1377  106.2805 C   0  0  0  0  0  0  0  0  0  0  0  0
  124.6796  105.4553  106.0955 C   0  0  0  0  0  0  0  0  0  0  0  0
  123.6451  105.0609  108.7775 C   0  0  0  0  0  0  0  0  0  0  0  0
  123.9440  106.5493  108.8737 C   0  0  0  0  0  0  0  0  0  0  0  0
  122.7934  104.7424  107.5503 C   0  0  0  0  0  0  0  0  0  0  0  0
  120.9248  105.2269  101.3988 C   0  0  0  0  0  0  0  0  0  0  0  0
  121.4212  105.0066  102.8193 C   0  0  0  0  0  0  0  0  0  0  0  0
  120.5107  105.6924  103.8429 C   0  0  0  0  0  0  0  0  0  0  0  0
  121.0099  105.5064  105.2833 C   0  0  1  0  0  0  0  0  0  0  0  0
  125.0461  106.9985  108.0310 N   0  0  0  0  0  0  0  0  0  0  0  0
  123.2460  105.4418  106.3433 N   0  0  0  0  0  0  0  0  0  0  0  0
  120.2786  107.4510  106.5952 N   0  0  0  0  0  0  0  0  0  0  0  0
  126.3736  107.1233  106.1968 O   0  0  0  0  0  0  0  0  0  0  0  0
  122.7257  107.0509  104.7471 O   0  0  0  0  0  0  0  0  0  0  0  0
  118.7818  105.2818  106.9565 S   0  0  0  0  0  0  0  0  0  0  0  0
  124.8746  105.4669  105.0021 H   0  0  0  0  0  0  0  0  0  0  0  0
  125.1426  104.5173  106.4631 H   0  0  0  0  0  0  0  0  0  0  0  0
  124.5742  104.4881  108.7490 H   0  0  0  0  0  0  0  0  0  0  0  0
  123.0878  104.7561  109.6656 H   0  0  0  0  0  0  0  0  0  0  0  0
  123.0559  107.1549  108.6308 H   0  0  0  0  0  0  0  0  0  0  0  0
  124.2308  106.8002  109.9069 H   0  0  0  0  0  0  0  0  0  0  0  0
  122.8177  103.6586  107.3787 H   0  0  0  0  0  0  0  0  0  0  0  0
  121.7410  105.0053  107.7237 H   0  0  0  0  0  0  0  0  0  0  0  0
  120.8710  106.2947  101.1634 H   0  0  0  0  0  0  0  0  0  0  0  0
  121.6044  104.7550  100.6823 H   0  0  0  0  0  0  0  0  0  0  0  0
  119.9294  104.7934  101.2591 H   0  0  0  0  0  0  0  0  0  0  0  0
  121.4628  103.9299  103.0209 H   0  0  0  0  0  0  0  0  0  0  0  0
  122.4433  105.3930  102.9030 H   0  0  0  0  0  0  0  0  0  0  0  0
  119.4991  105.2757  103.7525 H   0  0  0  0  0  0  0  0  0  0  0  0
  120.4335  106.7590  103.5951 H   0  0  0  0  0  0  0  0  0  0  0  0
  121.0981  104.4354  105.4985 H   0  0  0  0  0  0  0  0  0  0  0  0
  125.6654  107.7117  108.4632 H   0  0  0  0  0  0  0  0  0  0  0  0
  121.0442  107.9829  106.1946 H   0  0  0  0  0  0  0  0  0  0  0  0
  119.6835  107.9402  107.2556 H   0  0  0  0  0  0  0  0  0  0  0  0
  1  4  1  0  0  0  0
  1 12  1  0  0  0  0
  1 15  2  0  0  0  0
  2 11  1  0  0  0  0
  2 13  1  0  0  0  0
  2 16  2  0  0  0  0
  3 11  1  0  0  0  0
  3 14  1  0  0  0  0
  3 17  2  0  0  0  0
  4 13  1  0  0  0  0
  5  6  1  0  0  0  0
  5  7  1  0  0  0  0
  6 12  1  0  0  0  0
  7 13  1  0  0  0  0
  8  9  1  0  0  0  0
  9 10  1  0  0  0  0
 10 11  1  0  0  0  0
  4 18  1  0  0  0  0
  4 19  1  0  0  0  0
  5 20  1  0  0  0  0
  5 21  1  0  0  0  0
  6 22  1  0  0  0  0
  6 23  1  0  0  0  0
  7 24  1  0  0  0  0
  7 25  1  0  0  0  0
  8 26  1  0  0  0  0
  8 27  1  0  0  0  0
  8 28  1  0  0  0  0
  9 29  1  0  0  0  0
  9 30  1  0  0  0  0
 10 31  1  0  0  0  0
 10 32  1  0  0  0  0
 11 33  1  0  0  0  0
 12 34  1  0  0  0  0
 14 35  1  0  0  0  0
 14 36  1  0  0  0  0
M  END
> <FRED Chemgauss4 score>
-8.435225

$$$$
C25629123	P37871821
  -OEChem-05182014473D

 17 17  0     1  0  0  0  0  0999 V2000
  120.7171  105.4661  105.6946 C   0  0  0  0  0  0  0  0  0  0  0  0
  121.2616  106.5031  104.9648 C   0  0  0  0  0  0  0  0  0  0  0  0
  121.5420  104.9126  106.6524 C   0  0  0  0  0  0  0  0  0  0  0  0
  123.2184  106.3493  106.1113 C   0  0  0  0  0  0  0  0  0  0  0  0
  122.5135  106.9719  105.1474 N   0  0  0  0  0  0  0  0  0  0  0  0
  122.8029  105.3309  106.8883 N   0  0  0  0  0  0  0  0  0  0  0  0
  120.4474  107.0994  103.9709 N   0  0  0  0  0  0  0  0  0  0  0  0
  121.0213  103.8450  107.4239 N   0  0  0  0  0  0  0  0  0  0  0  0
  125.1269  108.0622  105.4196 O   0  0  0  0  0  0  0  0  0  0  0  0
  124.5759  107.5613  107.8396 O   0  0  0  0  0  0  0  0  0  0  0  0
  124.8568  106.9277  106.3841 S   0  0  1  0  0  0  0  0  0  0  0  0
  119.7073  105.1096  105.5264 H   0  0  0  0  0  0  0  0  0  0  0  0
  119.5394  106.7237  103.8026 H   0  0  0  0  0  0  0  0  0  0  0  0
  120.8345  107.8185  103.3989 H   0  0  0  0  0  0  0  0  0  0  0  0
  120.0745  103.5659  107.2834 H   0  0  0  0  0  0  0  0  0  0  0  0
  121.5814  103.4602  108.1536 H   0  0  0  0  0  0  0  0  0  0  0  0
  125.3468  108.0831  108.1644 H   0  0  0  0  0  0  0  0  0  0  0  0
  1  2  2  0  0  0  0
  1  3  1  0  0  0  0
  2  5  1  0  0  0  0
  2  7  1  0  0  0  0
  3  6  2  0  0  0  0
  3  8  1  0  0  0  0
  4  5  2  0  0  0  0
  4  6  1  0  0  0  0
  4 11  1  0  0  0  0
  9 11  2  0  0  0  0
 10 11  1  0  0  0  0
  1 12  1  0  0  0  0
  7 13  1  0  0  0  0
  7 14  1  0  0  0  0
  8 15  1  0  0  0  0
  8 16  1  0  0  0  0
 10 17  1  0  0  0  0
M  END
> <FRED Chemgauss4 score>
-8.400694

$$$$
C33636969	P49840826
  -OEChem-05182014473D

 19 19  0     1  0  0  0  0  0999 V2000
  124.0715  106.7904  105.7990 C   0  0  0  0  0  0  0  0  0  0  0  0
  122.6233  105.2251  106.4125 C   0  0  0  0  0  0  0  0  0  0  0  0
  125.0477  105.8710  106.5247 C   0  0  1  0  0  0  0  0  0  0  0  0
  125.7522  106.5917  107.6627 C   0  0  0  0  0  0  0  0  0  0  0  0
  126.7529  105.6802  108.3551 C   0  0  0  0  0  0  0  0  0  0  0  0
  122.7653  106.3362  105.7750 N   0  0  0  0  0  0  0  0  0  0  0  0
  121.4866  104.5742  106.5480 N   0  5  0  0  0  0  0  0  0  0  0  0
  127.3782  106.4129  109.4821 N   0  3  0  0  0  0  0  0  0  0  0  0
  124.4402  107.8413  105.2819 O   0  0  0  0  0  0  0  0  0  0  0  0
  124.0151  104.5157  107.1549 S   0  0  0  0  0  0  0  0  0  0  0  0
  125.7615  105.4711  105.7982 H   0  0  0  0  0  0  0  0  0  0  0  0
  125.0039  106.9452  108.3821 H   0  0  0  0  0  0  0  0  0  0  0  0
  126.2614  107.4781  107.2662 H   0  0  0  0  0  0  0  0  0  0  0  0
  126.2740  104.7932  108.7800 H   0  0  0  0  0  0  0  0  0  0  0  0
  127.5628  105.3764  107.6856 H   0  0  0  0  0  0  0  0  0  0  0  0
  121.6103  103.8251  107.2374 H   0  0  0  0  0  0  0  0  0  0  0  0
  126.6784  106.6717  110.1862 H   0  0  0  0  0  0  0  0  0  0  0  0
  127.8295  107.2744  109.1547 H   0  0  0  0  0  0  0  0  0  0  0  0
  128.0923  105.8384  109.9433 H   0  0  0  0  0  0  0  0  0  0  0  0
  1  3  1  0  0  0  0
  1  6  1  0  0  0  0
  1  9  2  0  0  0  0
  2  6  2  0  0  0  0
  2  7  1  0  0  0  0
  2 10  1  0  0  0  0
  3  4  1  0  0  0  0
  3 10  1  0  0  0  0
  4  5  1  0  0  0  0
  5  8  1  0  0  0  0
  3 11  1  0  0  0  0
  4 12  1  0  0  0  0
  4 13  1  0  0  0  0
  5 14  1  0  0  0  0
  5 15  1  0  0  0  0
  7 16  1  0  0  0  0
  8 17  1  0  0  0  0
  8 18  1  0  0  0  0
  8 19  1  0  0  0  0
M  CHG  2   7  -1   8   1
M  END
> <FRED Chemgauss4 score>
-8.399745

$$$$
C87667525	P137128337
  -OEChem-05182014473D

 32 33  0     1  0  0  0  0  0999 V2000
  126.7010  106.4920  107.3692 C   0  0  0  0  0  0  0  0  0  0  0  0
  125.4314  104.9789  108.3355 C   0  0  0  0  0  0  0  0  0  0  0  0
  126.5000  105.8059  108.5819 C   0  0  0  0  0  0  0  0  0  0  0  0
  122.7655  105.4538  106.1703 C   0  0  0  0  0  0  0  0  0  0  0  0
  118.1454  103.3743  104.5754 C   0  0  0  0  0  0  0  0  0  0  0  0
  119.3325  103.5935  105.5014 C   0  0  0  0  0  0  0  0  0  0  0  0
  117.0379  104.2868  105.0737 C   0  0  0  0  0  0  0  0  0  0  0  0
  119.5568  105.1015  105.5634 C   0  0  2  0  0  0  0  0  0  0  0  0
  123.9821  104.5649  106.3148 C   0  0  0  0  0  0  0  0  0  0  0  0
  120.3559  105.5275  106.7828 C   0  0  0  0  0  0  0  0  0  0  0  0
  125.8301  106.1320  106.4227 N   0  0  0  0  0  0  0  0  0  0  0  0
  125.0715  105.2107  107.0405 N   0  0  0  0  0  0  0  0  0  0  0  0
  127.1945  105.9272  109.7288 N   0  0  0  0  0  0  0  0  0  0  0  0
  121.6360  104.8971  106.7751 N   0  0  0  0  0  0  0  0  0  0  0  0
  122.7818  106.5337  105.5857 O   0  0  0  0  0  0  0  0  0  0  0  0
  117.8783  105.8128  105.5807 S   0  0  0  0  0  0  0  0  0  0  0  0
  127.4441  107.2403  107.1323 H   0  0  0  0  0  0  0  0  0  0  0  0
  124.9089  104.2622  108.9547 H   0  0  0  0  0  0  0  0  0  0  0  0
  118.4165  103.6282  103.5427 H   0  0  0  0  0  0  0  0  0  0  0  0
  117.8234  102.3279  104.5797 H   0  0  0  0  0  0  0  0  0  0  0  0
  119.1127  103.1817  106.4952 H   0  0  0  0  0  0  0  0  0  0  0  0
  120.2249  103.0790  105.1287 H   0  0  0  0  0  0  0  0  0  0  0  0
  116.2919  104.4858  104.2998 H   0  0  0  0  0  0  0  0  0  0  0  0
  116.5356  103.8560  105.9455 H   0  0  0  0  0  0  0  0  0  0  0  0
  120.0570  105.4460  104.6513 H   0  0  0  0  0  0  0  0  0  0  0  0
  124.3540  104.2816  105.3237 H   0  0  0  0  0  0  0  0  0  0  0  0
  123.7119  103.6492  106.8529 H   0  0  0  0  0  0  0  0  0  0  0  0
  119.8216  105.2314  107.6791 H   0  0  0  0  0  0  0  0  0  0  0  0
  120.4923  106.6031  106.7661 H   0  0  0  0  0  0  0  0  0  0  0  0
  128.0190  106.5435  109.8123 H   0  0  0  0  0  0  0  0  0  0  0  0
  126.9989  105.3417  110.5568 H   0  0  0  0  0  0  0  0  0  0  0  0
  121.7305  103.9725  107.2052 H   0  0  0  0  0  0  0  0  0  0  0  0
  1  3  1  0  0  0  0
  1 11  2  0  0  0  0
  2  3  2  0  0  0  0
  2 12  1  0  0  0  0
  3 13  1  0  0  0  0
  4  9  1  0  0  0  0
  4 14  1  0  0  0  0
  4 15  2  0  0  0  0
  5  6  1  0  0  0  0
  5  7  1  0  0  0  0
  6  8  1  0  0  0  0
  7 16  1  0  0  0  0
  8 10  1  0  0  0  0
  8 16  1  0  0  0  0
  9 12  1  0  0  0  0
 10 14  1  0  0  0  0
 11 12  1  0  0  0  0
  1 17  1  0  0  0  0
  2 18  1  0  0  0  0
  5 19  1  0  0  0  0
  5 20  1  0  0  0  0
  6 21  1  0  0  0  0
  6 22  1  0  0  0  0
  7 23  1  0  0  0  0
  7 24  1  0  0  0  0
  8 25  1  0  0  0  0
  9 26  1  0  0  0  0
  9 27  1  0  0  0  0
 10 28  1  0  0  0  0
 10 29  1  0  0  0  0
 13 30  1  0  0  0  0
 13 31  1  0  0  0  0
 14 32  1  0  0  0  0
M  END
> <FRED Chemgauss4 score>
-8.390242

$$$$
C89021442	P139237345
  -OEChem-05182014473D

 40 41  0     1  0  0  0  0  0999 V2000
  120.2707  103.4282  104.0271 C   0  0  0  0  0  0  0  0  0  0  0  0
  120.8637  104.2268  105.0472 C   0  0  0  0  0  0  0  0  0  0  0  0
  120.1348  104.1185  102.8428 C   0  0  0  0  0  0  0  0  0  0  0  0
  121.1587  105.4973  104.6036 C   0  0  0  0  0  0  0  0  0  0  0  0
  125.9913  104.2843  107.4305 C   0  0  0  0  0  0  0  0  0  0  0  0
  125.8746  104.4673  108.9425 C   0  0  0  0  0  0  0  0  0  0  0  0
  125.8484  105.6126  106.6966 C   0  0  0  0  0  0  0  0  0  0  0  0
  124.4851  106.5375  108.5454 C   0  0  0  0  0  0  0  0  0  0  0  0
  124.6039  105.2317  109.3417 C   0  0  1  0  0  0  0  0  0  0  0  0
  119.5707  103.6445  101.5604 C   0  0  0  0  0  0  0  0  0  0  0  0
  121.7883  106.6354  105.3670 C   0  0  0  0  0  0  0  0  0  0  0  0
  123.3488  104.3675  109.1875 C   0  0  0  0  0  0  0  0  0  0  0  0
  123.1900  106.7481  104.9882 N   0  5  0  0  0  0  0  0  0  0  0  0
  124.5606  106.2604  107.0794 N   0  0  1  0  0  0  0  0  0  0  0  0
  122.1766  105.1515  109.6269 N   0  3  0  0  0  0  0  0  0  0  0  0
  125.2983  108.1283  105.5467 O   0  0  0  0  0  0  0  0  0  0  0  0
  123.2847  108.4358  106.9371 O   0  0  0  0  0  0  0  0  0  0  0  0
  120.7210  105.7230  102.9636 S   0  0  0  0  0  0  0  0  0  0  0  0
  124.0568  107.5464  106.0646 S   0  0  0  0  0  0  0  0  0  0  0  0
  119.9620  102.3989  104.1593 H   0  0  0  0  0  0  0  0  0  0  0  0
  121.0635  103.8823  106.0539 H   0  0  0  0  0  0  0  0  0  0  0  0
  126.9657  103.8374  107.1952 H   0  0  0  0  0  0  0  0  0  0  0  0
  125.2232  103.5842  107.0826 H   0  0  0  0  0  0  0  0  0  0  0  0
  125.8855  103.4766  109.4295 H   0  0  0  0  0  0  0  0  0  0  0  0
  126.7659  104.9999  109.3143 H   0  0  0  0  0  0  0  0  0  0  0  0
  126.6829  106.2654  106.9764 H   0  0  0  0  0  0  0  0  0  0  0  0
  125.8774  105.4610  105.6110 H   0  0  0  0  0  0  0  0  0  0  0  0
  123.5407  107.0537  108.7716 H   0  0  0  0  0  0  0  0  0  0  0  0
  125.3100  107.2076  108.8255 H   0  0  0  0  0  0  0  0  0  0  0  0
  124.6970  105.4975  110.4157 H   0  0  0  0  0  0  0  0  0  0  0  0
  118.4875  103.8365  101.5112 H   0  0  0  0  0  0  0  0  0  0  0  0
  120.0413  104.1409  100.6961 H   0  0  0  0  0  0  0  0  0  0  0  0
  119.7288  102.5629  101.4169 H   0  0  0  0  0  0  0  0  0  0  0  0
  121.2373  107.5628  105.1677 H   0  0  0  0  0  0  0  0  0  0  0  0
  121.6782  106.4536  106.4430 H   0  0  0  0  0  0  0  0  0  0  0  0
  123.4064  103.4796  109.8144 H   0  0  0  0  0  0  0  0  0  0  0  0
  123.1903  104.0913  108.1467 H   0  0  0  0  0  0  0  0  0  0  0  0
  121.3247  104.5763  109.6357 H   0  0  0  0  0  0  0  0  0  0  0  0
  122.0061  105.9495  109.0017 H   0  0  0  0  0  0  0  0  0  0  0  0
  122.3104  105.5232  110.5760 H   0  0  0  0  0  0  0  0  0  0  0  0
  1  2  1  0  0  0  0
  1  3  2  0  0  0  0
  2  4  2  0  0  0  0
  3 10  1  0  0  0  0
  3 18  1  0  0  0  0
  4 11  1  0  0  0  0
  4 18  1  0  0  0  0
  5  6  1  0  0  0  0
  5  7  1  0  0  0  0
  6  9  1  0  0  0  0
  7 14  1  0  0  0  0
  8  9  1  0  0  0  0
  8 14  1  0  0  0  0
  9 12  1  0  0  0  0
 11 13  1  0  0  0  0
 12 15  1  0  0  0  0
 13 19  1  0  0  0  0
 14 19  1  0  0  0  0
 16 19  2  0  0  0  0
 17 19  2  0  0  0  0
  1 20  1  0  0  0  0
  2 21  1  0  0  0  0
  5 22  1  0  0  0  0
  5 23  1  0  0  0  0
  6 24  1  0  0  0  0
  6 25  1  0  0  0  0
  7 26  1  0  0  0  0
  7 27  1  0  0  0  0
  8 28  1  0  0  0  0
  8 29  1  0  0  0  0
  9 30  1  0  0  0  0
 10 31  1  0  0  0  0
 10 32  1  0  0  0  0
 10 33  1  0  0  0  0
 11 34  1  0  0  0  0
 11 35  1  0  0  0  0
 12 36  1  0  0  0  0
 12 37  1  0  0  0  0
 15 38  1  0  0  0  0
 15 39  1  0  0  0  0
 15 40  1  0  0  0  0
M  CHG  2  13  -1  15   1
M  END
> <FRED Chemgauss4 score>
-8.388454

$$$$
C42443275	P64209734
  -OEChem-05182014473D

 37 38  0     1  0  0  0  0  0999 V2000
  126.9072  104.8424  107.0524 C   0  0  0  0  0  0  0  0  0  0  0  0
  124.9062  105.1146  107.9225 C   0  0  0  0  0  0  0  0  0  0  0  0
  126.0514  104.3698  108.0653 C   0  0  0  0  0  0  0  0  0  0  0  0
  118.6880  104.6000  106.4527 C   0  0  0  0  0  0  0  0  0  0  0  0
  120.1479  104.1333  106.3742 C   0  0  0  0  0  0  0  0  0  0  0  0
  121.1550  104.6833  104.1960 C   0  0  0  0  0  0  0  0  0  0  0  0
  117.8371  104.4147  105.1998 C   0  0  0  0  0  0  0  0  0  0  0  0
  119.9181  104.2414  103.4111 C   0  0  0  0  0  0  0  0  0  0  0  0
  124.2054  106.9471  106.3336 C   0  0  0  0  0  0  0  0  0  0  0  0
  122.2649  105.2960  106.2332 C   0  0  0  0  0  0  0  0  0  0  0  0
  123.1166  106.3098  105.4614 C   0  0  1  0  0  0  0  0  0  0  0  0
  126.3530  105.8122  106.3200 N   0  0  0  0  0  0  0  0  0  0  0  0
  125.1366  105.9550  106.8733 N   0  0  0  0  0  0  0  0  0  0  0  0
  120.9635  105.0732  105.5996 N   0  0  2  0  0  0  0  0  0  0  0  0
  126.2934  103.4054  108.9730 N   0  0  0  0  0  0  0  0  0  0  0  0
  122.2509  107.3486  104.9974 O   0  0  0  0  0  0  0  0  0  0  0  0
  118.4534  105.2684  103.7183 S   0  0  0  0  0  0  0  0  0  0  0  0
  127.9123  104.5235  106.8148 H   0  0  0  0  0  0  0  0  0  0  0  0
  123.9695  105.1186  108.4634 H   0  0  0  0  0  0  0  0  0  0  0  0
  118.2039  104.0380  107.2625 H   0  0  0  0  0  0  0  0  0  0  0  0
  118.6553  105.6522  106.7666 H   0  0  0  0  0  0  0  0  0  0  0  0
  120.5064  104.0966  107.4120 H   0  0  0  0  0  0  0  0  0  0  0  0
  120.2236  103.1043  106.0017 H   0  0  0  0  0  0  0  0  0  0  0  0
  121.8934  103.8728  104.1234 H   0  0  0  0  0  0  0  0  0  0  0  0
  121.5931  105.5413  103.6680 H   0  0  0  0  0  0  0  0  0  0  0  0
  117.7204  103.3493  104.9725 H   0  0  0  0  0  0  0  0  0  0  0  0
  116.8313  104.8008  105.3992 H   0  0  0  0  0  0  0  0  0  0  0  0
  120.1427  104.2975  102.3403 H   0  0  0  0  0  0  0  0  0  0  0  0
  119.6767  103.1936  103.6200 H   0  0  0  0  0  0  0  0  0  0  0  0
  123.7659  107.4788  107.1864 H   0  0  0  0  0  0  0  0  0  0  0  0
  124.8112  107.6665  105.7708 H   0  0  0  0  0  0  0  0  0  0  0  0
  122.8011  104.3422  106.3039 H   0  0  0  0  0  0  0  0  0  0  0  0
  122.1180  105.6388  107.2642 H   0  0  0  0  0  0  0  0  0  0  0  0
  123.5599  105.8345  104.5777 H   0  0  0  0  0  0  0  0  0  0  0  0
  127.1705  102.8603  108.9786 H   0  0  0  0  0  0  0  0  0  0  0  0
  125.5795  103.0947  109.6515 H   0  0  0  0  0  0  0  0  0  0  0  0
  122.8055  107.9571  104.4874 H   0  0  0  0  0  0  0  0  0  0  0  0
  1  3  1  0  0  0  0
  1 12  2  0  0  0  0
  2  3  2  0  0  0  0
  2 13  1  0  0  0  0
  3 15  1  0  0  0  0
  4  5  1  0  0  0  0
  4  7  1  0  0  0  0
  5 14  1  0  0  0  0
  6  8  1  0  0  0  0
  6 14  1  0  0  0  0
  7 17  1  0  0  0  0
  8 17  1  0  0  0  0
  9 11  1  0  0  0  0
  9 13  1  0  0  0  0
 10 11  1  0  0  0  0
 10 14  1  0  0  0  0
 11 16  1  0  0  0  0
 12 13  1  0  0  0  0
  1 18  1  0  0  0  0
  2 19  1  0  0  0  0
  4 20  1  0  0  0  0
  4 21  1  0  0  0  0
  5 22  1  0  0  0  0
  5 23  1  0  0  0  0
  6 24  1  0  0  0  0
  6 25  1  0  0  0  0
  7 26  1  0  0  0  0
  7 27  1  0  0  0  0
  8 28  1  0  0  0  0
  8 29  1  0  0  0  0
  9 30  1  0  0  0  0
  9 31  1  0  0  0  0
 10 32  1  0  0  0  0
 10 33  1  0  0  0  0
 11 34  1  0  0  0  0
 15 35  1  0  0  0  0
 15 36  1  0  0  0  0
 16 37  1  0  0  0  0
M  END
> <FRED Chemgauss4 score>
-8.372462

$$$$
C86456117	P135352603
  -OEChem-05182014473D

 32 32  0     0  0  0  0  0  0999 V2000
  125.7087  103.8838  109.3834 C   0  0  0  0  0  0  0  0  0  0  0  0
  125.5707  103.7645  108.0221 C   0  0  0  0  0  0  0  0  0  0  0  0
  125.5387  105.0917  107.5538 C   0  0  0  0  0  0  0  0  0  0  0  0
  118.8562  106.3136  105.8508 C   0  0  0  0  0  0  0  0  0  0  0  0
  125.4793  102.5135  107.2479 C   0  0  0  0  0  0  0  0  0  0  0  0
  122.3530  106.1983  106.9959 C   0  0  0  0  0  0  0  0  0  0  0  0
  120.9106  105.7418  106.8384 C   0  0  0  0  0  0  0  0  0  0  0  0
  123.0549  106.3103  105.6538 C   0  0  0  0  0  0  0  0  0  0  0  0
  125.6475  105.9883  108.5378 N   0  0  0  0  0  0  0  0  0  0  0  0
  125.4153  105.4958  106.2662 N   0  5  0  0  0  0  0  0  0  0  0  0
  125.7491  105.2232  109.6379 N   0  0  0  0  0  0  0  0  0  0  0  0
  126.8014  101.9823  106.7918 N   0  3  0  0  0  0  0  0  0  0  0  0
  125.0786  107.3661  104.5157 O   0  0  0  0  0  0  0  0  0  0  0  0
  124.6386  107.8789  106.8935 O   0  0  0  0  0  0  0  0  0  0  0  0
  120.2109  106.6947  106.0503 O   0  0  0  0  0  0  0  0  0  0  0  0
  124.7200  106.8625  105.8428 S   0  0  0  0  0  0  0  0  0  0  0  0
  125.7811  103.1548  110.1779 H   0  0  0  0  0  0  0  0  0  0  0  0
  118.3506  107.0675  105.2424 H   0  0  0  0  0  0  0  0  0  0  0  0
  118.3577  106.2167  106.8186 H   0  0  0  0  0  0  0  0  0  0  0  0
  118.8301  105.3525  105.3319 H   0  0  0  0  0  0  0  0  0  0  0  0
  125.0152  101.6930  107.8246 H   0  0  0  0  0  0  0  0  0  0  0  0
  124.8754  102.6288  106.3296 H   0  0  0  0  0  0  0  0  0  0  0  0
  122.3777  107.1620  107.5203 H   0  0  0  0  0  0  0  0  0  0  0  0
  122.8897  105.4990  107.6496 H   0  0  0  0  0  0  0  0  0  0  0  0
  120.4166  105.6653  107.8122 H   0  0  0  0  0  0  0  0  0  0  0  0
  120.8607  104.7704  106.3361 H   0  0  0  0  0  0  0  0  0  0  0  0
  122.5534  107.0312  105.0012 H   0  0  0  0  0  0  0  0  0  0  0  0
  123.0970  105.3429  105.1445 H   0  0  0  0  0  0  0  0  0  0  0  0
  125.8455  105.6833  110.5345 H   0  0  0  0  0  0  0  0  0  0  0  0
  127.4838  102.0316  107.5499 H   0  0  0  0  0  0  0  0  0  0  0  0
  127.1497  102.5299  106.0032 H   0  0  0  0  0  0  0  0  0  0  0  0
  126.7098  101.0085  106.4979 H   0  0  0  0  0  0  0  0  0  0  0  0
  1  2  2  0  0  0  0
  1 11  1  0  0  0  0
  2  3  1  0  0  0  0
  2  5  1  0  0  0  0
  3  9  2  0  0  0  0
  3 10  1  0  0  0  0
  4 15  1  0  0  0  0
  5 12  1  0  0  0  0
  6  7  1  0  0  0  0
  6  8  1  0  0  0  0
  7 15  1  0  0  0  0
  8 16  1  0  0  0  0
  9 11  1  0  0  0  0
 10 16  1  0  0  0  0
 13 16  2  0  0  0  0
 14 16  2  0  0  0  0
  1 17  1  0  0  0  0
  4 18  1  0  0  0  0
  4 19  1  0  0  0  0
  4 20  1  0  0  0  0
  5 21  1  0  0  0  0
  5 22  1  0  0  0  0
  6 23  1  0  0  0  0
  6 24  1  0  0  0  0
  7 25  1  0  0  0  0
  7 26  1  0  0  0  0
  8 27  1  0  0  0  0
  8 28  1  0  0  0  0
 11 29  1  0  0  0  0
 12 30  1  0  0  0  0
 12 31  1  0  0  0  0
 12 32  1  0  0  0  0
M  CHG  2  10  -1  12   1
M  END
> <FRED Chemgauss4 score>
-8.350423

$$$$
C37661522	P56014844
  -OEChem-05182014473D

 41 42  0     1  0  0  0  0  0999 V2000
  120.1718  104.2905  101.9418 C   0  0  0  0  0  0  0  0  0  0  0  0
  119.5843  103.4170  102.8501 C   0  0  0  0  0  0  0  0  0  0  0  0
  121.0138  105.2979  102.3995 C   0  0  0  0  0  0  0  0  0  0  0  0
  119.8687  103.5917  104.1948 C   0  0  0  0  0  0  0  0  0  0  0  0
  121.2341  105.3885  103.7645 C   0  0  0  0  0  0  0  0  0  0  0  0
  122.5988  106.9479  109.1050 C   0  0  0  0  0  0  0  0  0  0  0  0
  125.5244  104.3868  107.1781 C   0  0  0  0  0  0  0  0  0  0  0  0
  125.9391  103.6360  108.4316 C   0  0  0  0  0  0  0  0  0  0  0  0
  126.5446  105.8383  108.8318 C   0  0  0  0  0  0  0  0  0  0  0  0
  125.8003  105.8527  107.5011 C   0  0  2  0  0  0  0  0  0  0  0  0
  122.1425  106.4702  104.2971 C   0  0  0  0  0  0  0  0  0  0  0  0
  123.5775  105.9332  108.5604 C   0  0  0  0  0  0  0  0  0  0  0  0
  122.8609  106.0669  105.5791 C   0  0  0  0  0  0  0  0  0  0  0  0
  120.6813  104.5584  104.6772 N   0  0  0  0  0  0  0  0  0  0  0  0
  127.0182  104.4615  108.9668 N   0  0  0  0  0  0  0  0  0  0  0  0
  121.3661  106.3937  109.3756 N   0  0  0  0  0  0  0  0  0  0  0  0
  124.5313  106.6018  107.6379 N   0  0  2  0  0  0  0  0  0  0  0  0
  122.8810  108.1225  109.3257 O   0  0  0  0  0  0  0  0  0  0  0  0
  123.0113  108.4483  106.6410 O   0  0  0  0  0  0  0  0  0  0  0  0
  124.9521  107.6034  105.2816 O   0  0  0  0  0  0  0  0  0  0  0  0
  123.8870  107.3643  106.2372 S   0  0  0  0  0  0  0  0  0  0  0  0
  119.9738  104.1864  100.8792 H   0  0  0  0  0  0  0  0  0  0  0  0
  118.9247  102.6244  102.5159 H   0  0  0  0  0  0  0  0  0  0  0  0
  121.4784  105.9858  101.7013 H   0  0  0  0  0  0  0  0  0  0  0  0
  119.4357  102.9366  104.9436 H   0  0  0  0  0  0  0  0  0  0  0  0
  126.1595  104.0766  106.3387 H   0  0  0  0  0  0  0  0  0  0  0  0
  124.4847  104.1796  106.9045 H   0  0  0  0  0  0  0  0  0  0  0  0
  125.1085  103.5799  109.1451 H   0  0  0  0  0  0  0  0  0  0  0  0
  126.2775  102.6202  108.2092 H   0  0  0  0  0  0  0  0  0  0  0  0
  127.3847  106.5396  108.8307 H   0  0  0  0  0  0  0  0  0  0  0  0
  125.8906  106.0963  109.6739 H   0  0  0  0  0  0  0  0  0  0  0  0
  126.3974  106.3147  106.7072 H   0  0  0  0  0  0  0  0  0  0  0  0
  121.5387  107.3652  104.4971 H   0  0  0  0  0  0  0  0  0  0  0  0
  122.8746  106.7619  103.5334 H   0  0  0  0  0  0  0  0  0  0  0  0
  123.0579  105.1504  108.0013 H   0  0  0  0  0  0  0  0  0  0  0  0
  124.1422  105.4904  109.3854 H   0  0  0  0  0  0  0  0  0  0  0  0
  122.1284  105.8391  106.3601 H   0  0  0  0  0  0  0  0  0  0  0  0
  123.5005  105.1899  105.4407 H   0  0  0  0  0  0  0  0  0  0  0  0
  127.1980  104.2355  109.9434 H   0  0  0  0  0  0  0  0  0  0  0  0
  121.1897  105.4084  109.2098 H   0  0  0  0  0  0  0  0  0  0  0  0
  120.5948  106.9386  109.7479 H   0  0  0  0  0  0  0  0  0  0  0  0
  1  2  1  0  0  0  0
  1  3  2  0  0  0  0
  2  4  2  0  0  0  0
  3  5  1  0  0  0  0
  4 14  1  0  0  0  0
  5 11  1  0  0  0  0
  5 14  2  0  0  0  0
  6 12  1  0  0  0  0
  6 16  1  0  0  0  0
  6 18  2  0  0  0  0
  7  8  1  0  0  0  0
  7 10  1  0  0  0  0
  8 15  1  0  0  0  0
  9 10  1  0  0  0  0
  9 15  1  0  0  0  0
 10 17  1  0  0  0  0
 11 13  1  0  0  0  0
 12 17  1  0  0  0  0
 13 21  1  0  0  0  0
 17 21  1  0  0  0  0
 19 21  2  0  0  0  0
 20 21  2  0  0  0  0
  1 22  1  0  0  0  0
  2 23  1  0  0  0  0
  3 24  1  0  0  0  0
  4 25  1  0  0  0  0
  7 26  1  0  0  0  0
  7 27  1  0  0  0  0
  8 28  1  0  0  0  0
  8 29  1  0  0  0  0
  9 30  1  0  0  0  0
  9 31  1  0  0  0  0
 10 32  1  0  0  0  0
 11 33  1  0  0  0  0
 11 34  1  0  0  0  0
 12 35  1  0  0  0  0
 12 36  1  0  0  0  0
 13 37  1  0  0  0  0
 13 38  1  0  0  0  0
 15 39  1  0  0  0  0
 16 40  1  0  0  0  0
 16 41  1  0  0  0  0
M  END
> <FRED Chemgauss4 score>
-8.338538

$$$$
C35354185	P52456381
  -OEChem-05182014473D

 34 35  0     0  0  0  0  0  0999 V2000
  125.4858  104.2623  108.5428 C   0  0  0  0  0  0  0  0  0  0  0  0
  126.0128  104.5722  107.2891 C   0  0  0  0  0  0  0  0  0  0  0  0
  124.2107  104.7067  108.8926 C   0  0  0  0  0  0  0  0  0  0  0  0
  120.9689  105.5795  102.6348 C   0  0  0  0  0  0  0  0  0  0  0  0
  125.2649  105.3267  106.3852 C   0  0  0  0  0  0  0  0  0  0  0  0
  119.6397  105.4098  102.2475 C   0  0  0  0  0  0  0  0  0  0  0  0
  120.3815  104.9985  104.9052 C   0  0  0  0  0  0  0  0  0  0  0  0
  119.0523  104.8289  104.5179 C   0  0  0  0  0  0  0  0  0  0  0  0
  121.3398  105.3738  103.9637 C   0  0  0  0  0  0  0  0  0  0  0  0
  123.4627  105.4612  107.9887 C   0  0  0  0  0  0  0  0  0  0  0  0
  123.9898  105.7711  106.7350 C   0  0  0  0  0  0  0  0  0  0  0  0
  118.6814  105.0345  103.1890 C   0  0  0  0  0  0  0  0  0  0  0  0
  118.0603  104.4263  105.5608 C   0  0  0  0  0  0  0  0  0  0  0  0
  121.7498  105.8521  109.6726 N   0  0  0  0  0  0  0  0  0  0  0  0
  122.1743  105.8995  108.3665 N   0  0  0  0  0  0  0  0  0  0  0  0
  122.7008  105.5470  104.3596 N   0  0  0  0  0  0  0  0  0  0  0  0
  123.9924  107.6973  104.9984 O   0  0  0  0  0  0  0  0  0  0  0  0
  121.8560  107.1756  106.2080 O   0  0  0  0  0  0  0  0  0  0  0  0
  123.0728  106.7254  105.5598 S   0  0  0  0  0  0  0  0  0  0  0  0
  116.8874  104.8163  102.6143 Br  0  0  0  0  0  0  0  0  0  0  0  0
  126.0680  103.6744  109.2463 H   0  0  0  0  0  0  0  0  0  0  0  0
  127.0057  104.2262  107.0172 H   0  0  0  0  0  0  0  0  0  0  0  0
  123.8106  104.4583  109.8724 H   0  0  0  0  0  0  0  0  0  0  0  0
  121.7080  105.8716  101.8929 H   0  0  0  0  0  0  0  0  0  0  0  0
  125.6866  105.5609  105.4114 H   0  0  0  0  0  0  0  0  0  0  0  0
  119.3697  105.5742  101.2074 H   0  0  0  0  0  0  0  0  0  0  0  0
  120.6711  104.8381  105.9412 H   0  0  0  0  0  0  0  0  0  0  0  0
  117.6228  105.3145  106.0303 H   0  0  0  0  0  0  0  0  0  0  0  0
  117.2523  103.8252  105.1267 H   0  0  0  0  0  0  0  0  0  0  0  0
  118.5317  103.8144  106.3394 H   0  0  0  0  0  0  0  0  0  0  0  0
  120.7953  105.4957  109.6844 H   0  0  0  0  0  0  0  0  0  0  0  0
  121.6985  106.8047  110.0313 H   0  0  0  0  0  0  0  0  0  0  0  0
  121.6463  106.4442  107.7011 H   0  0  0  0  0  0  0  0  0  0  0  0
  123.3960  105.4509  103.6017 H   0  0  0  0  0  0  0  0  0  0  0  0
  1  2  1  0  0  0  0
  1  3  2  0  0  0  0
  2  5  2  0  0  0  0
  3 10  1  0  0  0  0
  4  6  2  0  0  0  0
  4  9  1  0  0  0  0
  5 11  1  0  0  0  0
  6 12  1  0  0  0  0
  7  8  1  0  0  0  0
  7  9  2  0  0  0  0
  8 12  2  0  0  0  0
  8 13  1  0  0  0  0
  9 16  1  0  0  0  0
 10 11  2  0  0  0  0
 10 15  1  0  0  0  0
 11 19  1  0  0  0  0
 12 20  1  0  0  0  0
 14 15  1  0  0  0  0
 16 19  1  0  0  0  0
 17 19  2  0  0  0  0
 18 19  2  0  0  0  0
  1 21  1  0  0  0  0
  2 22  1  0  0  0  0
  3 23  1  0  0  0  0
  4 24  1  0  0  0  0
  5 25  1  0  0  0  0
  6 26  1  0  0  0  0
  7 27  1  0  0  0  0
 13 28  1  0  0  0  0
 13 29  1  0  0  0  0
 13 30  1  0  0  0  0
 14 31  1  0  0  0  0
 14 32  1  0  0  0  0
 15 33  1  0  0  0  0
 16 34  1  0  0  0  0
M  END
> <FRED Chemgauss4 score>
-8.330201

$$$$
C70415977	P108563875
  -OEChem-05182014473D

 32 33  0     0  0  0  0  0  0999 V2000
  121.1824  105.5331  105.6384 C   0  0  0  0  0  0  0  0  0  0  0  0
  121.4566  105.2713  103.2523 C   0  0  0  0  0  0  0  0  0  0  0  0
  119.8448  105.1539  105.5264 C   0  0  0  0  0  0  0  0  0  0  0  0
  120.1190  104.8921  103.1403 C   0  0  0  0  0  0  0  0  0  0  0  0
  125.3114  105.0397  107.1908 C   0  0  0  0  0  0  0  0  0  0  0  0
  124.2182  104.9361  109.1130 C   0  0  0  0  0  0  0  0  0  0  0  0
  121.9883  105.5918  104.5014 C   0  0  0  0  0  0  0  0  0  0  0  0
  119.3131  104.8334  104.2773 C   0  0  0  0  0  0  0  0  0  0  0  0
  124.2579  105.9073  107.1241 C   0  0  0  0  0  0  0  0  0  0  0  0
  115.8798  104.9895  103.2319 C   0  0  0  0  0  0  0  0  0  0  0  0
  117.3449  104.7745  102.9436 C   0  0  0  0  0  0  0  0  0  0  0  0
  123.2799  105.9594  104.6094 N   0  5  0  0  0  0  0  0  0  0  0  0
  123.5986  105.8223  108.3267 N   0  0  0  0  0  0  0  0  0  0  0  0
  125.2626  104.4529  108.4323 N   0  3  0  0  0  0  0  0  0  0  0  0
  115.1054  103.8615  103.1886 N   0  0  0  0  0  0  0  0  0  0  0  0
  122.7931  107.8365  106.3140 O   0  0  0  0  0  0  0  0  0  0  0  0
  125.0721  107.6299  105.4250 O   0  0  0  0  0  0  0  0  0  0  0  0
  118.0079  104.4629  104.1680 O   0  0  0  0  0  0  0  0  0  0  0  0
  115.2521  106.4924  103.6035 S   0  0  0  0  0  0  0  0  0  0  0  0
  123.8091  106.9620  105.7320 S   0  0  0  0  0  0  0  0  0  0  0  0
  121.5792  105.7802  106.6208 H   0  0  0  0  0  0  0  0  0  0  0  0
  122.0694  105.3121  102.3545 H   0  0  0  0  0  0  0  0  0  0  0  0
  119.2213  105.1108  106.4156 H   0  0  0  0  0  0  0  0  0  0  0  0
  119.7102  104.6445  102.1645 H   0  0  0  0  0  0  0  0  0  0  0  0
  126.1050  104.7427  106.5345 H   0  0  0  0  0  0  0  0  0  0  0  0
  123.9282  104.6618  110.1135 H   0  0  0  0  0  0  0  0  0  0  0  0
  117.4811  103.9304  102.2606 H   0  0  0  0  0  0  0  0  0  0  0  0
  117.8069  105.6609  102.4978 H   0  0  0  0  0  0  0  0  0  0  0  0
  122.7692  106.3510  108.5822 H   0  0  0  0  0  0  0  0  0  0  0  0
  125.9179  103.7597  108.7826 H   0  0  0  0  0  0  0  0  0  0  0  0
  115.4900  102.9461  102.9788 H   0  0  0  0  0  0  0  0  0  0  0  0
  114.1079  103.9046  103.3697 H   0  0  0  0  0  0  0  0  0  0  0  0
  1  3  1  0  0  0  0
  1  7  2  0  0  0  0
  2  4  2  0  0  0  0
  2  7  1  0  0  0  0
  3  8  2  0  0  0  0
  4  8  1  0  0  0  0
  5  9  2  0  0  0  0
  5 14  1  0  0  0  0
  6 13  1  0  0  0  0
  6 14  2  0  0  0  0
  7 12  1  0  0  0  0
  8 18  1  0  0  0  0
  9 13  1  0  0  0  0
  9 20  1  0  0  0  0
 10 11  1  0  0  0  0
 10 15  1  0  0  0  0
 10 19  2  0  0  0  0
 11 18  1  0  0  0  0
 12 20  1  0  0  0  0
 16 20  2  0  0  0  0
 17 20  2  0  0  0  0
  1 21  1  0  0  0  0
  2 22  1  0  0  0  0
  3 23  1  0  0  0  0
  4 24  1  0  0  0  0
  5 25  1  0  0  0  0
  6 26  1  0  0  0  0
 11 27  1  0  0  0  0
 11 28  1  0  0  0  0
 13 29  1  0  0  0  0
 14 30  1  0  0  0  0
 15 31  1  0  0  0  0
 15 32  1  0  0  0  0
M  CHG  2  12  -1  14   1
M  END
> <FRED Chemgauss4 score>
-8.324375

$$$$
C88803396	P138914308
  -OEChem-05182014473D

 28 29  0     0  0  0  0  0  0999 V2000
  117.8006  103.6706  104.1110 C   0  0  0  0  0  0  0  0  0  0  0  0
  116.5542  104.1690  103.6332 C   0  0  0  0  0  0  0  0  0  0  0  0
  124.2794  105.0448  107.4294 C   0  0  0  0  0  0  0  0  0  0  0  0
  123.2921  104.1106  107.7091 C   0  0  0  0  0  0  0  0  0  0  0  0
  124.0012  106.0627  106.5222 C   0  0  0  0  0  0  0  0  0  0  0  0
  122.7505  106.1283  105.9155 C   0  0  0  0  0  0  0  0  0  0  0  0
  118.2622  104.3845  105.1949 C   0  0  0  0  0  0  0  0  0  0  0  0
  121.8020  105.1667  106.2334 C   0  0  0  0  0  0  0  0  0  0  0  0
  116.1105  105.2449  104.3704 C   0  0  0  0  0  0  0  0  0  0  0  0
  125.0479  107.0590  106.2263 C   0  0  0  0  0  0  0  0  0  0  0  0
  119.5249  104.1786  105.9806 C   0  0  0  0  0  0  0  0  0  0  0  0
  122.0964  104.1973  107.1105 N   0  3  0  0  0  0  0  0  0  0  0  0
  122.4526  107.1544  104.9935 N   0  0  0  0  0  0  0  0  0  0  0  0
  120.5197  105.1630  105.6657 N   0  0  0  0  0  0  0  0  0  0  0  0
  126.1861  106.9511  106.8157 O   0  5  0  0  0  0  0  0  0  0  0  0
  124.7846  108.0000  105.3896 O   0  0  0  0  0  0  0  0  0  0  0  0
  117.1947  105.6500  105.6324 S   0  0  0  0  0  0  0  0  0  0  0  0
  114.4906  106.1798  104.0396 Br  0  0  0  0  0  0  0  0  0  0  0  0
  118.3287  102.8304  103.6784 H   0  0  0  0  0  0  0  0  0  0  0  0
  116.0179  103.7519  102.7900 H   0  0  0  0  0  0  0  0  0  0  0  0
  125.2478  104.9723  107.9143 H   0  0  0  0  0  0  0  0  0  0  0  0
  123.4191  103.2882  108.3992 H   0  0  0  0  0  0  0  0  0  0  0  0
  119.3239  104.2342  107.0560 H   0  0  0  0  0  0  0  0  0  0  0  0
  119.9554  103.1917  105.7808 H   0  0  0  0  0  0  0  0  0  0  0  0
  121.3832  103.5023  107.3282 H   0  0  0  0  0  0  0  0  0  0  0  0
  123.1350  107.8627  104.8158 H   0  0  0  0  0  0  0  0  0  0  0  0
  121.5327  107.2088  104.6063 H   0  0  0  0  0  0  0  0  0  0  0  0
  120.3037  105.8921  105.0067 H   0  0  0  0  0  0  0  0  0  0  0  0
  1  2  1  0  0  0  0
  1  7  2  0  0  0  0
  2  9  2  0  0  0  0
  3  4  2  0  0  0  0
  3  5  1  0  0  0  0
  4 12  1  0  0  0  0
  5  6  2  0  0  0  0
  5 10  1  0  0  0  0
  6  8  1  0  0  0  0
  6 13  1  0  0  0  0
  7 11  1  0  0  0  0
  7 17  1  0  0  0  0
  8 12  2  0  0  0  0
  8 14  1  0  0  0  0
  9 17  1  0  0  0  0
  9 18  1  0  0  0  0
 10 15  1  0  0  0  0
 10 16  2  0  0  0  0
 11 14  1  0  0  0  0
  1 19  1  0  0  0  0
  2 20  1  0  0  0  0
  3 21  1  0  0  0  0
  4 22  1  0  0  0  0
 11 23  1  0  0  0  0
 11 24  1  0  0  0  0
 12 25  1  0  0  0  0
 13 26  1  0  0  0  0
 13 27  1  0  0  0  0
 14 28  1  0  0  0  0
M  CHG  2  12   1  15  -1
M  END
> <FRED Chemgauss4 score>
-8.308527

$$$$
C45109192	P68000615
  -OEChem-05182014473D

 37 37  0     0  0  0  0  0  0999 V2000
  121.4620  103.6997  101.8141 C   0  0  0  0  0  0  0  0  0  0  0  0
  120.2072  103.3625  102.2637 C   0  0  0  0  0  0  0  0  0  0  0  0
  120.5395  105.5391  102.3582 C   0  0  0  0  0  0  0  0  0  0  0  0
  123.3890  107.1435  106.0517 C   0  0  0  0  0  0  0  0  0  0  0  0
  121.1577  105.2026  107.4559 C   0  0  0  0  0  0  0  0  0  0  0  0
  124.8840  107.1645  105.8600 C   0  0  0  0  0  0  0  0  0  0  0  0
  121.6819  106.5787  107.7782 C   0  0  0  0  0  0  0  0  0  0  0  0
  118.2964  104.9796  104.6550 C   0  0  0  0  0  0  0  0  0  0  0  0
  118.9380  103.8059  105.3996 C   0  0  0  0  0  0  0  0  0  0  0  0
  118.2840  104.7336  103.1466 C   0  0  0  0  0  0  0  0  0  0  0  0
  119.0219  104.0417  106.9040 C   0  0  0  0  0  0  0  0  0  0  0  0
  121.6628  105.0559  101.8757 N   0  0  0  0  0  0  0  0  0  0  0  0
  119.6283  104.5511  102.6092 N   0  0  0  0  0  0  0  0  0  0  0  0
  125.2011  107.6450  104.5072 N   0  0  0  0  0  0  0  0  0  0  0  0
  123.0712  106.6989  107.3123 N   0  0  0  0  0  0  0  0  0  0  0  0
  119.7834  105.2146  107.2331 N   0  0  0  0  0  0  0  0  0  0  0  0
  122.5914  107.4854  105.1826 O   0  0  0  0  0  0  0  0  0  0  0  0
  121.8707  104.2042  107.3985 O   0  0  0  0  0  0  0  0  0  0  0  0
  122.2311  103.0347  101.4492 H   0  0  0  0  0  0  0  0  0  0  0  0
  119.6959  102.4153  102.3639 H   0  0  0  0  0  0  0  0  0  0  0  0
  120.3301  106.5834  102.5456 H   0  0  0  0  0  0  0  0  0  0  0  0
  125.3404  107.8331  106.5959 H   0  0  0  0  0  0  0  0  0  0  0  0
  125.2884  106.1560  105.9870 H   0  0  0  0  0  0  0  0  0  0  0  0
  121.0678  107.3334  107.2780 H   0  0  0  0  0  0  0  0  0  0  0  0
  121.6500  106.7440  108.8591 H   0  0  0  0  0  0  0  0  0  0  0  0
  118.8478  105.9020  104.8763 H   0  0  0  0  0  0  0  0  0  0  0  0
  117.2703  105.1342  105.0102 H   0  0  0  0  0  0  0  0  0  0  0  0
  118.3699  102.8893  105.1991 H   0  0  0  0  0  0  0  0  0  0  0  0
  119.9527  103.6486  105.0143 H   0  0  0  0  0  0  0  0  0  0  0  0
  117.8241  105.5753  102.6150 H   0  0  0  0  0  0  0  0  0  0  0  0
  117.7022  103.8378  102.8986 H   0  0  0  0  0  0  0  0  0  0  0  0
  118.0183  104.1867  107.3163 H   0  0  0  0  0  0  0  0  0  0  0  0
  119.4803  103.1893  107.4153 H   0  0  0  0  0  0  0  0  0  0  0  0
  126.0770  107.3838  104.1207 H   0  0  0  0  0  0  0  0  0  0  0  0
  124.6294  108.3627  104.1292 H   0  0  0  0  0  0  0  0  0  0  0  0
  123.8152  106.4467  107.9385 H   0  0  0  0  0  0  0  0  0  0  0  0
  119.2906  106.1044  107.3076 H   0  0  0  0  0  0  0  0  0  0  0  0
  1  2  2  0  0  0  0
  1 12  1  0  0  0  0
  2 13  1  0  0  0  0
  3 12  2  0  0  0  0
  3 13  1  0  0  0  0
  4  6  1  0  0  0  0
  4 15  1  0  0  0  0
  4 17  2  0  0  0  0
  5  7  1  0  0  0  0
  5 16  1  0  0  0  0
  5 18  2  0  0  0  0
  6 14  1  0  0  0  0
  7 15  1  0  0  0  0
  8  9  1  0  0  0  0
  8 10  1  0  0  0  0
  9 11  1  0  0  0  0
 10 13  1  0  0  0  0
 11 16  1  0  0  0  0
  1 19  1  0  0  0  0
  2 20  1  0  0  0  0
  3 21  1  0  0  0  0
  6 22  1  0  0  0  0
  6 23  1  0  0  0  0
  7 24  1  0  0  0  0
  7 25  1  0  0  0  0
  8 26  1  0  0  0  0
  8 27  1  0  0  0  0
  9 28  1  0  0  0  0
  9 29  1  0  0  0  0
 10 30  1  0  0  0  0
 10 31  1  0  0  0  0
 11 32  1  0  0  0  0
 11 33  1  0  0  0  0
 14 34  1  0  0  0  0
 14 35  1  0  0  0  0
 15 36  1  0  0  0  0
 16 37  1  0  0  0  0
M  END
> <FRED Chemgauss4 score>
-8.302017

$$$$
C84057466	P131528030
  -OEChem-05182014473D

 28 29  0     1  0  0  0  0  0999 V2000
  122.9172  105.0903  106.3974 C   0  0  0  0  0  0  0  0  0  0  0  0
  122.4906  106.1661  105.6545 C   0  0  0  0  0  0  0  0  0  0  0  0
  120.8301  104.8439  105.7563 C   0  0  0  0  0  0  0  0  0  0  0  0
  124.2273  104.9667  106.9506 C   0  0  0  0  0  0  0  0  0  0  0  0
  124.5354  107.1758  105.8650 C   0  0  0  0  0  0  0  0  0  0  0  0
  117.8173  103.1364  103.9330 C   0  0  0  0  0  0  0  0  0  0  0  0
  119.5120  104.1961  105.6196 C   0  0  2  0  0  0  0  0  0  0  0  0
  119.1365  103.8798  104.1323 C   0  0  1  0  0  0  0  0  0  0  0  0
  121.1892  106.0084  105.2568 N   0  0  0  0  0  0  0  0  0  0  0  0
  123.3229  107.2630  105.3673 N   0  0  0  0  0  0  0  0  0  0  0  0
  121.8460  104.2477  106.4573 N   0  0  0  0  0  0  0  0  0  0  0  0
  124.9929  106.0860  106.6270 N   0  0  0  0  0  0  0  0  0  0  0  0
  125.4598  108.1698  105.6682 N   0  0  0  0  0  0  0  0  0  0  0  0
  118.4332  104.9920  106.2565 N   0  0  0  0  0  0  0  0  0  0  0  0
  124.6313  104.0195  107.6161 O   0  0  0  0  0  0  0  0  0  0  0  0
  120.1710  103.0636  103.5723 O   0  0  0  0  0  0  0  0  0  0  0  0
  117.7862  102.2006  104.4979 H   0  0  0  0  0  0  0  0  0  0  0  0
  117.6488  102.9145  102.8734 H   0  0  0  0  0  0  0  0  0  0  0  0
  116.9769  103.7590  104.2602 H   0  0  0  0  0  0  0  0  0  0  0  0
  119.5061  103.2164  106.1496 H   0  0  0  0  0  0  0  0  0  0  0  0
  119.1070  104.8042  103.5442 H   0  0  0  0  0  0  0  0  0  0  0  0
  121.8081  103.3529  106.9281 H   0  0  0  0  0  0  0  0  0  0  0  0
  125.9501  106.1165  106.9661 H   0  0  0  0  0  0  0  0  0  0  0  0
  125.1898  108.9639  105.1363 H   0  0  0  0  0  0  0  0  0  0  0  0
  126.3632  108.0567  106.0651 H   0  0  0  0  0  0  0  0  0  0  0  0
  118.6616  105.4633  107.0918 H   0  0  0  0  0  0  0  0  0  0  0  0
  117.5157  104.8408  105.9285 H   0  0  0  0  0  0  0  0  0  0  0  0
  119.9517  102.9553  102.6358 H   0  0  0  0  0  0  0  0  0  0  0  0
  1  2  2  0  0  0  0
  1  4  1  0  0  0  0
  1 11  1  0  0  0  0
  2  9  1  0  0  0  0
  2 10  1  0  0  0  0
  3  7  1  0  0  0  0
  3  9  2  0  0  0  0
  3 11  1  0  0  0  0
  4 12  1  0  0  0  0
  4 15  2  0  0  0  0
  5 10  2  0  0  0  0
  5 12  1  0  0  0  0
  5 13  1  0  0  0  0
  6  8  1  0  0  0  0
  7  8  1  0  0  0  0
  7 14  1  0  0  0  0
  8 16  1  0  0  0  0
  6 17  1  0  0  0  0
  6 18  1  0  0  0  0
  6 19  1  0  0  0  0
  7 20  1  0  0  0  0
  8 21  1  0  0  0  0
 11 22  1  0  0  0  0
 12 23  1  0  0  0  0
 13 24  1  0  0  0  0
 13 25  1  0  0  0  0
 14 26  1  0  0  0  0
 14 27  1  0  0  0  0
 16 28  1  0  0  0  0
M  END
> <FRED Chemgauss4 score>
-8.288753

$$$$
C85133553	P133223209
  -OEChem-05182014473D

 34 34  0     1  0  0  0  0  0999 V2000
  123.5906  106.8869  106.3738 C   0  0  0  0  0  0  0  0  0  0  0  0
  125.4480  105.4764  108.1411 C   0  0  0  0  0  0  0  0  0  0  0  0
  125.9814  106.1146  106.8742 C   0  0  0  0  0  0  0  0  0  0  0  0
  124.0658  104.9150  107.8676 C   0  0  0  0  0  0  0  0  0  0  0  0
  125.0690  107.2620  106.4740 C   0  0  1  0  0  0  0  0  0  0  0  0
  121.6323  104.9776  104.7868 C   0  0  0  0  0  0  0  0  0  0  0  0
  119.8685  104.0139  106.3005 C   0  0  0  0  0  0  0  0  0  0  0  0
  121.7444  105.5083  107.2555 C   0  0  0  0  0  0  0  0  0  0  0  0
  118.8464  105.1278  106.0959 C   0  0  0  0  0  0  0  0  0  0  0  0
  121.3418  104.4649  106.2024 C   0  0  2  0  0  0  0  0  0  0  0  0
  123.1581  105.8586  107.2159 N   0  0  0  0  0  0  0  0  0  0  0  0
  125.4762  107.8202  105.2085 N   0  0  0  0  0  0  0  0  0  0  0  0
  122.8289  107.5473  105.6611 O   0  0  0  0  0  0  0  0  0  0  0  0
  117.5300  104.6037  106.1843 O   0  0  0  0  0  0  0  0  0  0  0  0
  126.1166  104.6769  108.4784 H   0  0  0  0  0  0  0  0  0  0  0  0
  125.3997  106.2219  108.9442 H   0  0  0  0  0  0  0  0  0  0  0  0
  127.0012  106.4798  107.0451 H   0  0  0  0  0  0  0  0  0  0  0  0
  126.0372  105.3596  106.0789 H   0  0  0  0  0  0  0  0  0  0  0  0
  124.1380  104.0389  107.2119 H   0  0  0  0  0  0  0  0  0  0  0  0
  123.6137  104.5909  108.8118 H   0  0  0  0  0  0  0  0  0  0  0  0
  125.1255  108.0519  107.2421 H   0  0  0  0  0  0  0  0  0  0  0  0
  121.0323  105.8613  104.5460 H   0  0  0  0  0  0  0  0  0  0  0  0
  122.6891  105.2431  104.6780 H   0  0  0  0  0  0  0  0  0  0  0  0
  121.4059  104.2062  104.0428 H   0  0  0  0  0  0  0  0  0  0  0  0
  119.6684  103.2095  105.5826 H   0  0  0  0  0  0  0  0  0  0  0  0
  119.7125  103.5899  107.3012 H   0  0  0  0  0  0  0  0  0  0  0  0
  121.5338  105.1345  108.2634 H   0  0  0  0  0  0  0  0  0  0  0  0
  121.1752  106.4344  107.1302 H   0  0  0  0  0  0  0  0  0  0  0  0
  118.9744  105.5686  105.1018 H   0  0  0  0  0  0  0  0  0  0  0  0
  118.9637  105.9229  106.8379 H   0  0  0  0  0  0  0  0  0  0  0  0
  121.9805  103.5856  106.3587 H   0  0  0  0  0  0  0  0  0  0  0  0
  126.4510  107.8691  105.0124 H   0  0  0  0  0  0  0  0  0  0  0  0
  124.7950  108.3144  104.6762 H   0  0  0  0  0  0  0  0  0  0  0  0
  116.9208  105.3479  106.0480 H   0  0  0  0  0  0  0  0  0  0  0  0
  1  5  1  0  0  0  0
  1 11  1  0  0  0  0
  1 13  2  0  0  0  0
  2  3  1  0  0  0  0
  2  4  1  0  0  0  0
  3  5  1  0  0  0  0
  4 11  1  0  0  0  0
  5 12  1  0  0  0  0
  6 10  1  0  0  0  0
  7  9  1  0  0  0  0
  7 10  1  0  0  0  0
  8 10  1  0  0  0  0
  8 11  1  0  0  0  0
  9 14  1  0  0  0  0
  2 15  1  0  0  0  0
  2 16  1  0  0  0  0
  3 17  1  0  0  0  0
  3 18  1  0  0  0  0
  4 19  1  0  0  0  0
  4 20  1  0  0  0  0
  5 21  1  0  0  0  0
  6 22  1  0  0  0  0
  6 23  1  0  0  0  0
  6 24  1  0  0  0  0
  7 25  1  0  0  0  0
  7 26  1  0  0  0  0
  8 27  1  0  0  0  0
  8 28  1  0  0  0  0
  9 29  1  0  0  0  0
  9 30  1  0  0  0  0
 10 31  1  0  0  0  0
 12 32  1  0  0  0  0
 12 33  1  0  0  0  0
 14 34  1  0  0  0  0
M  END
> <FRED Chemgauss4 score>
-8.279040

$$$$
C84057443	P131532065
  -OEChem-05182014473D

 25 26  0     1  0  0  0  0  0999 V2000
  122.9862  105.0924  106.5271 C   0  0  0  0  0  0  0  0  0  0  0  0
  122.5386  106.0411  105.6378 C   0  0  0  0  0  0  0  0  0  0  0  0
  120.8778  104.7663  106.0017 C   0  0  0  0  0  0  0  0  0  0  0  0
  124.3138  105.0462  107.0497 C   0  0  0  0  0  0  0  0  0  0  0  0
  124.5928  107.0533  105.6189 C   0  0  0  0  0  0  0  0  0  0  0  0
  118.4085  105.0429  106.4830 C   0  0  0  0  0  0  0  0  0  0  0  0
  119.5535  104.1166  106.0124 C   0  0  1  0  0  0  0  0  0  0  0  0
  121.2239  105.8341  105.3129 N   0  0  0  0  0  0  0  0  0  0  0  0
  123.3645  107.0714  105.1536 N   0  0  0  0  0  0  0  0  0  0  0  0
  121.9146  104.2793  106.7545 N   0  0  0  0  0  0  0  0  0  0  0  0
  125.0719  106.0935  106.5282 N   0  0  0  0  0  0  0  0  0  0  0  0
  125.5136  107.9955  105.2371 N   0  0  0  0  0  0  0  0  0  0  0  0
  119.2060  103.5509  104.7105 N   0  0  0  0  0  0  0  0  0  0  0  0
  124.7366  104.2124  107.8429 O   0  0  0  0  0  0  0  0  0  0  0  0
  117.1707  104.3390  106.4957 O   0  0  0  0  0  0  0  0  0  0  0  0
  118.6025  105.3902  107.5038 H   0  0  0  0  0  0  0  0  0  0  0  0
  118.3011  105.9156  105.8297 H   0  0  0  0  0  0  0  0  0  0  0  0
  119.5434  103.2323  106.6844 H   0  0  0  0  0  0  0  0  0  0  0  0
  121.8895  103.4705  107.3619 H   0  0  0  0  0  0  0  0  0  0  0  0
  126.0401  106.1688  106.8266 H   0  0  0  0  0  0  0  0  0  0  0  0
  125.2286  108.6980  104.5955 H   0  0  0  0  0  0  0  0  0  0  0  0
  126.4295  107.9386  105.6171 H   0  0  0  0  0  0  0  0  0  0  0  0
  118.2413  103.4127  104.5028 H   0  0  0  0  0  0  0  0  0  0  0  0
  119.9349  103.1401  104.1693 H   0  0  0  0  0  0  0  0  0  0  0  0
  116.4968  104.9684  106.7971 H   0  0  0  0  0  0  0  0  0  0  0  0
  1  2  2  0  0  0  0
  1  4  1  0  0  0  0
  1 10  1  0  0  0  0
  2  8  1  0  0  0  0
  2  9  1  0  0  0  0
  3  7  1  0  0  0  0
  3  8  2  0  0  0  0
  3 10  1  0  0  0  0
  4 11  1  0  0  0  0
  4 14  2  0  0  0  0
  5  9  2  0  0  0  0
  5 11  1  0  0  0  0
  5 12  1  0  0  0  0
  6  7  1  0  0  0  0
  6 15  1  0  0  0  0
  7 13  1  0  0  0  0
  6 16  1  0  0  0  0
  6 17  1  0  0  0  0
  7 18  1  0  0  0  0
 10 19  1  0  0  0  0
 11 20  1  0  0  0  0
 12 21  1  0  0  0  0
 12 22  1  0  0  0  0
 13 23  1  0  0  0  0
 13 24  1  0  0  0  0
 15 25  1  0  0  0  0
M  END
> <FRED Chemgauss4 score>
-8.277290

$$$$
C94567135	P148238501
  -OEChem-05182014473D

 42 43  0     1  0  0  0  0  0999 V2000
  118.6933  103.6190  106.5469 C   0  0  0  0  0  0  0  0  0  0  0  0
  117.4347  103.7088  106.1022 C   0  0  0  0  0  0  0  0  0  0  0  0
  119.1057  105.9334  106.1083 C   0  0  0  0  0  0  0  0  0  0  0  0
  119.5845  104.7624  106.5612 C   0  0  0  0  0  0  0  0  0  0  0  0
  116.9094  105.0109  105.6019 C   0  0  0  0  0  0  0  0  0  0  0  0
  121.9327  105.3637  106.5726 C   0  0  0  0  0  0  0  0  0  0  0  0
  123.2049  105.3326  108.7308 C   0  0  0  0  0  0  0  0  0  0  0  0
  123.7928  106.7244  108.7492 C   0  0  0  0  0  0  0  0  0  0  0  0
  123.2132  104.9920  107.2520 C   0  0  2  0  0  0  0  0  0  0  0  0
  124.8128  106.6412  107.6283 C   0  0  2  0  0  0  0  0  0  0  0  0
  114.4731  107.8093  107.3943 C   0  0  0  0  0  0  0  0  0  0  0  0
  125.1457  107.9856  107.0115 C   0  0  0  0  0  0  0  0  0  0  0  0
  117.3750  107.3875  105.1646 C   0  0  0  0  0  0  0  0  0  0  0  0
  116.4914  108.0392  106.2126 C   0  0  0  0  0  0  0  0  0  0  0  0
  117.8112  106.0789  105.6378 N   0  0  0  0  0  0  0  0  0  0  0  0
  126.1149  107.8262  105.9751 N   0  0  0  0  0  0  0  0  0  0  0  0
  120.8585  104.6133  107.0246 N   0  0  0  0  0  0  0  0  0  0  0  0
  115.7488  105.0674  105.1991 O   0  0  0  0  0  0  0  0  0  0  0  0
  121.8968  106.2265  105.6982 O   0  0  0  0  0  0  0  0  0  0  0  0
  124.2372  105.7780  106.6342 O   0  0  0  0  0  0  0  0  0  0  0  0
  115.3372  107.2359  106.4229 O   0  0  0  0  0  0  0  0  0  0  0  0
  119.0690  102.6671  106.9097 H   0  0  0  0  0  0  0  0  0  0  0  0
  116.7720  102.8514  106.0929 H   0  0  0  0  0  0  0  0  0  0  0  0
  119.7209  106.8279  106.0911 H   0  0  0  0  0  0  0  0  0  0  0  0
  123.8709  104.6488  109.2708 H   0  0  0  0  0  0  0  0  0  0  0  0
  122.2155  105.2810  109.1945 H   0  0  0  0  0  0  0  0  0  0  0  0
  123.0121  107.4594  108.5191 H   0  0  0  0  0  0  0  0  0  0  0  0
  124.2395  106.9917  109.7110 H   0  0  0  0  0  0  0  0  0  0  0  0
  123.4049  103.9286  107.0720 H   0  0  0  0  0  0  0  0  0  0  0  0
  125.7312  106.1597  107.9853 H   0  0  0  0  0  0  0  0  0  0  0  0
  113.5993  107.1674  107.5301 H   0  0  0  0  0  0  0  0  0  0  0  0
  114.1606  108.8032  107.0639 H   0  0  0  0  0  0  0  0  0  0  0  0
  115.0104  107.8947  108.3418 H   0  0  0  0  0  0  0  0  0  0  0  0
  125.5532  108.6395  107.7762 H   0  0  0  0  0  0  0  0  0  0  0  0
  124.2473  108.4226  106.5876 H   0  0  0  0  0  0  0  0  0  0  0  0
  116.8364  107.2493  104.2218 H   0  0  0  0  0  0  0  0  0  0  0  0
  118.2644  107.9985  104.9829 H   0  0  0  0  0  0  0  0  0  0  0  0
  116.1599  109.0224  105.8644 H   0  0  0  0  0  0  0  0  0  0  0  0
  117.0171  108.1567  107.1658 H   0  0  0  0  0  0  0  0  0  0  0  0
  126.8511  107.1386  106.0783 H   0  0  0  0  0  0  0  0  0  0  0  0
  126.1887  108.5249  105.2458 H   0  0  0  0  0  0  0  0  0  0  0  0
  121.0298  103.9132  107.7412 H   0  0  0  0  0  0  0  0  0  0  0  0
  1  2  2  0  0  0  0
  1  4  1  0  0  0  0
  2  5  1  0  0  0  0
  3  4  2  0  0  0  0
  3 15  1  0  0  0  0
  4 17  1  0  0  0  0
  5 15  1  0  0  0  0
  5 18  2  0  0  0  0
  6  9  1  0  0  0  0
  6 17  1  0  0  0  0
  6 19  2  0  0  0  0
  7  8  1  0  0  0  0
  7  9  1  0  0  0  0
  8 10  1  0  0  0  0
  9 20  1  0  0  0  0
 10 12  1  0  0  0  0
 10 20  1  0  0  0  0
 11 21  1  0  0  0  0
 12 16  1  0  0  0  0
 13 14  1  0  0  0  0
 13 15  1  0  0  0  0
 14 21  1  0  0  0  0
  1 22  1  0  0  0  0
  2 23  1  0  0  0  0
  3 24  1  0  0  0  0
  7 25  1  0  0  0  0
  7 26  1  0  0  0  0
  8 27  1  0  0  0  0
  8 28  1  0  0  0  0
  9 29  1  0  0  0  0
 10 30  1  0  0  0  0
 11 31  1  0  0  0  0
 11 32  1  0  0  0  0
 11 33  1  0  0  0  0
 12 34  1  0  0  0  0
 12 35  1  0  0  0  0
 13 36  1  0  0  0  0
 13 37  1  0  0  0  0
 14 38  1  0  0  0  0
 14 39  1  0  0  0  0
 16 40  1  0  0  0  0
 16 41  1  0  0  0  0
 17 42  1  0  0  0  0
M  END
> <FRED Chemgauss4 score>
-8.264583

$$$$
C51995896	P77859556
  -OEChem-05182014473D

 40 41  0     1  0  0  0  0  0999 V2000
  119.5100  104.3494  105.4838 C   0  0  0  0  0  0  0  0  0  0  0  0
  118.7012  103.3752  104.9412 C   0  0  0  0  0  0  0  0  0  0  0  0
  117.4023  105.1220  106.0863 C   0  0  0  0  0  0  0  0  0  0  0  0
  118.7577  105.3613  106.1473 C   0  0  0  0  0  0  0  0  0  0  0  0
  119.3280  106.5494  106.8330 C   0  0  0  0  0  0  0  0  0  0  0  0
  123.1033  107.5373  106.2727 C   0  0  0  0  0  0  0  0  0  0  0  0
  124.4960  104.0080  107.8572 C   0  0  0  0  0  0  0  0  0  0  0  0
  125.7193  104.1586  108.7586 C   0  0  0  0  0  0  0  0  0  0  0  0
  124.7028  104.6731  106.4942 C   0  0  0  0  0  0  0  0  0  0  0  0
  126.1544  105.6148  108.8919 C   0  0  0  0  0  0  0  0  0  0  0  0
  125.1319  106.1388  106.6228 C   0  0  2  0  0  0  0  0  0  0  0  0
  126.3707  106.2585  107.5215 C   0  0  1  0  0  0  0  0  0  0  0  0
  122.0703  108.3267  107.0567 C   0  0  0  0  0  0  0  0  0  0  0  0
  121.2962  107.4588  108.0394 C   0  0  0  0  0  0  0  0  0  0  0  0
  120.6157  106.4042  107.3283 N   0  0  0  0  0  0  0  0  0  0  0  0
  124.0368  106.9503  107.1117 N   0  0  0  0  0  0  0  0  0  0  0  0
  118.6450  107.5642  106.9427 O   0  0  0  0  0  0  0  0  0  0  0  0
  123.0907  107.4440  105.0484 O   0  0  0  0  0  0  0  0  0  0  0  0
  126.7256  107.6290  107.6724 O   0  0  0  0  0  0  0  0  0  0  0  0
  117.0419  103.6823  105.2322 S   0  0  0  0  0  0  0  0  0  0  0  0
  120.5899  104.3323  105.4052 H   0  0  0  0  0  0  0  0  0  0  0  0
  119.0061  102.4987  104.3871 H   0  0  0  0  0  0  0  0  0  0  0  0
  116.6014  105.7191  106.5002 H   0  0  0  0  0  0  0  0  0  0  0  0
  124.2744  102.9441  107.7151 H   0  0  0  0  0  0  0  0  0  0  0  0
  123.6224  104.4482  108.3532 H   0  0  0  0  0  0  0  0  0  0  0  0
  125.5003  103.7465  109.7499 H   0  0  0  0  0  0  0  0  0  0  0  0
  126.5475  103.5699  108.3453 H   0  0  0  0  0  0  0  0  0  0  0  0
  125.4755  104.1211  105.9440 H   0  0  0  0  0  0  0  0  0  0  0  0
  123.7786  104.5947  105.9091 H   0  0  0  0  0  0  0  0  0  0  0  0
  125.4059  106.1812  109.4607 H   0  0  0  0  0  0  0  0  0  0  0  0
  127.0785  105.6770  109.4796 H   0  0  0  0  0  0  0  0  0  0  0  0
  125.3630  106.5421  105.6304 H   0  0  0  0  0  0  0  0  0  0  0  0
  127.2146  105.7607  107.0268 H   0  0  0  0  0  0  0  0  0  0  0  0
  122.5859  109.1332  107.5928 H   0  0  0  0  0  0  0  0  0  0  0  0
  121.3798  108.7953  106.3443 H   0  0  0  0  0  0  0  0  0  0  0  0
  120.5613  108.0590  108.5867 H   0  0  0  0  0  0  0  0  0  0  0  0
  121.9728  107.0183  108.7796 H   0  0  0  0  0  0  0  0  0  0  0  0
  121.0942  105.5110  107.2533 H   0  0  0  0  0  0  0  0  0  0  0  0
  123.9492  107.0954  108.1118 H   0  0  0  0  0  0  0  0  0  0  0  0
  127.5457  107.6480  108.1905 H   0  0  0  0  0  0  0  0  0  0  0  0
  1  2  2  0  0  0  0
  1  4  1  0  0  0  0
  2 20  1  0  0  0  0
  3  4  2  0  0  0  0
  3 20  1  0  0  0  0
  4  5  1  0  0  0  0
  5 15  1  0  0  0  0
  5 17  2  0  0  0  0
  6 13  1  0  0  0  0
  6 16  1  0  0  0  0
  6 18  2  0  0  0  0
  7  8  1  0  0  0  0
  7  9  1  0  0  0  0
  8 10  1  0  0  0  0
  9 11  1  0  0  0  0
 10 12  1  0  0  0  0
 11 12  1  0  0  0  0
 11 16  1  0  0  0  0
 12 19  1  0  0  0  0
 13 14  1  0  0  0  0
 14 15  1  0  0  0  0
  1 21  1  0  0  0  0
  2 22  1  0  0  0  0
  3 23  1  0  0  0  0
  7 24  1  0  0  0  0
  7 25  1  0  0  0  0
  8 26  1  0  0  0  0
  8 27  1  0  0  0  0
  9 28  1  0  0  0  0
  9 29  1  0  0  0  0
 10 30  1  0  0  0  0
 10 31  1  0  0  0  0
 11 32  1  0  0  0  0
 12 33  1  0  0  0  0
 13 34  1  0  0  0  0
 13 35  1  0  0  0  0
 14 36  1  0  0  0  0
 14 37  1  0  0  0  0
 15 38  1  0  0  0  0
 16 39  1  0  0  0  0
 19 40  1  0  0  0  0
M  END
> <FRED Chemgauss4 score>
-8.257771

$$$$
C63135618	P96947687
  -OEChem-05182014473D

 39 41  0     1  0  0  0  0  0999 V2000
  120.8891  104.2598  106.0943 C   0  0  0  0  0  0  0  0  0  0  0  0
  119.7908  104.0188  105.2623 C   0  0  0  0  0  0  0  0  0  0  0  0
  120.4430  105.8183  103.7576 C   0  0  0  0  0  0  0  0  0  0  0  0
  121.7698  108.8438  110.1405 C   0  0  0  0  0  0  0  0  0  0  0  0
  121.5515  106.0744  104.5821 C   0  0  0  0  0  0  0  0  0  0  0  0
  121.7453  105.2958  105.7196 C   0  0  0  0  0  0  0  0  0  0  0  0
  119.5698  104.7830  104.1142 C   0  0  0  0  0  0  0  0  0  0  0  0
  120.9397  108.5689  109.0739 C   0  0  0  0  0  0  0  0  0  0  0  0
  123.3299  106.8234  105.4963 C   0  0  0  0  0  0  0  0  0  0  0  0
  122.0901  106.7017  109.0862 C   0  0  0  0  0  0  0  0  0  0  0  0
  119.8948  109.4654  108.5411 C   0  0  0  0  0  0  0  0  0  0  0  0
  124.2803  108.8478  106.6571 C   0  0  0  0  0  0  0  0  0  0  0  0
  122.5794  105.3247  108.7111 C   0  0  0  0  0  0  0  0  0  0  0  0
  123.5157  105.3217  107.4980 C   0  0  0  0  0  0  0  0  0  0  0  0
  124.5501  107.5928  105.8153 C   0  0  2  0  0  0  0  0  0  0  0  0
  122.5458  107.0178  104.4598 N   0  0  0  0  0  0  0  0  0  0  0  0
  121.1223  107.3412  108.4678 N   0  0  0  0  0  0  0  0  0  0  0  0
  122.8898  105.7970  106.2848 N   0  0  0  0  0  0  0  0  0  0  0  0
  118.4486  104.5087  103.2990 N   0  0  0  0  0  0  0  0  0  0  0  0
  125.1867  108.0135  104.5978 O   0  0  0  0  0  0  0  0  0  0  0  0
  122.8244  107.5175  110.4055 S   0  0  0  0  0  0  0  0  0  0  0  0
  121.0599  103.6661  106.9853 H   0  0  0  0  0  0  0  0  0  0  0  0
  119.1024  103.2180  105.5250 H   0  0  0  0  0  0  0  0  0  0  0  0
  120.2723  106.4131  102.8651 H   0  0  0  0  0  0  0  0  0  0  0  0
  121.8081  109.7294  110.7589 H   0  0  0  0  0  0  0  0  0  0  0  0
  120.2998  110.1248  107.7562 H   0  0  0  0  0  0  0  0  0  0  0  0
  119.0511  108.9040  108.1050 H   0  0  0  0  0  0  0  0  0  0  0  0
  119.4604  110.1069  109.3269 H   0  0  0  0  0  0  0  0  0  0  0  0
  123.5382  109.4902  106.1725 H   0  0  0  0  0  0  0  0  0  0  0  0
  125.1974  109.4292  106.8043 H   0  0  0  0  0  0  0  0  0  0  0  0
  123.9160  108.5866  107.6568 H   0  0  0  0  0  0  0  0  0  0  0  0
  121.7225  104.6627  108.5331 H   0  0  0  0  0  0  0  0  0  0  0  0
  123.1092  104.8997  109.5733 H   0  0  0  0  0  0  0  0  0  0  0  0
  124.4105  105.9287  107.6803 H   0  0  0  0  0  0  0  0  0  0  0  0
  123.8607  104.3001  107.2960 H   0  0  0  0  0  0  0  0  0  0  0  0
  125.3052  106.9892  106.3582 H   0  0  0  0  0  0  0  0  0  0  0  0
  117.8558  103.7396  103.5319 H   0  0  0  0  0  0  0  0  0  0  0  0
  118.3239  105.0283  102.4552 H   0  0  0  0  0  0  0  0  0  0  0  0
  125.9722  108.5079  104.8672 H   0  0  0  0  0  0  0  0  0  0  0  0
  1  2  2  0  0  0  0
  1  6  1  0  0  0  0
  2  7  1  0  0  0  0
  3  5  1  0  0  0  0
  3  7  2  0  0  0  0
  4  8  2  0  0  0  0
  4 21  1  0  0  0  0
  5  6  2  0  0  0  0
  5 16  1  0  0  0  0
  6 18  1  0  0  0  0
  7 19  1  0  0  0  0
  8 11  1  0  0  0  0
  8 17  1  0  0  0  0
  9 15  1  0  0  0  0
  9 16  2  0  0  0  0
  9 18  1  0  0  0  0
 10 13  1  0  0  0  0
 10 17  2  0  0  0  0
 10 21  1  0  0  0  0
 12 15  1  0  0  0  0
 13 14  1  0  0  0  0
 14 18  1  0  0  0  0
 15 20  1  0  0  0  0
  1 22  1  0  0  0  0
  2 23  1  0  0  0  0
  3 24  1  0  0  0  0
  4 25  1  0  0  0  0
 11 26  1  0  0  0  0
 11 27  1  0  0  0  0
 11 28  1  0  0  0  0
 12 29  1  0  0  0  0
 12 30  1  0  0  0  0
 12 31  1  0  0  0  0
 13 32  1  0  0  0  0
 13 33  1  0  0  0  0
 14 34  1  0  0  0  0
 14 35  1  0  0  0  0
 15 36  1  0  0  0  0
 19 37  1  0  0  0  0
 19 38  1  0  0  0  0
 20 39  1  0  0  0  0
M  END
> <FRED Chemgauss4 score>
-8.256254

$$$$
C90670312	P141810387
  -OEChem-05182014473D

 30 31  0     1  0  0  0  0  0999 V2000
  120.1546  103.5581  105.9534 C   0  0  0  0  0  0  0  0  0  0  0  0
  120.7910  104.7157  106.2450 C   0  0  0  0  0  0  0  0  0  0  0  0
  118.7049  103.5839  105.7311 C   0  0  0  0  0  0  0  0  0  0  0  0
  118.8276  105.9371  106.1397 C   0  0  0  0  0  0  0  0  0  0  0  0
  116.7464  104.5478  105.5855 C   0  0  0  0  0  0  0  0  0  0  0  0
  118.0628  107.2261  106.2337 C   0  0  0  0  0  0  0  0  0  0  0  0
  122.8752  105.8625  106.7624 C   0  0  0  0  0  0  0  0  0  0  0  0
  124.5069  107.5364  105.7413 C   0  0  0  0  0  0  0  0  0  0  0  0
  123.3545  106.5678  105.4936 C   0  0  2  0  0  0  0  0  0  0  0  0
  120.1103  105.9256  106.3388 N   0  0  0  0  0  0  0  0  0  0  0  0
  117.9210  102.5934  105.4447 N   0  0  0  0  0  0  0  0  0  0  0  0
  116.6839  103.1638  105.3462 N   0  0  0  0  0  0  0  0  0  0  0  0
  118.1020  104.7934  105.8373 N   0  0  0  0  0  0  0  0  0  0  0  0
  122.1523  104.6680  106.4512 N   0  0  0  0  0  0  0  0  0  0  0  0
  115.8103  105.3321  105.5703 O   0  0  0  0  0  0  0  0  0  0  0  0
  124.8946  108.1172  104.4998 O   0  0  0  0  0  0  0  0  0  0  0  0
  122.2713  107.2911  104.9079 O   0  0  0  0  0  0  0  0  0  0  0  0
  120.6668  102.6057  105.8772 H   0  0  0  0  0  0  0  0  0  0  0  0
  118.0356  107.7018  105.2567 H   0  0  0  0  0  0  0  0  0  0  0  0
  118.5508  107.8848  106.9481 H   0  0  0  0  0  0  0  0  0  0  0  0
  117.0492  107.0211  106.5696 H   0  0  0  0  0  0  0  0  0  0  0  0
  123.7334  105.5903  107.3859 H   0  0  0  0  0  0  0  0  0  0  0  0
  122.2332  106.5292  107.3475 H   0  0  0  0  0  0  0  0  0  0  0  0
  125.3750  107.0165  106.1582 H   0  0  0  0  0  0  0  0  0  0  0  0
  124.2102  108.3516  106.4089 H   0  0  0  0  0  0  0  0  0  0  0  0
  123.6640  105.8170  104.7569 H   0  0  0  0  0  0  0  0  0  0  0  0
  115.8348  102.6573  105.1297 H   0  0  0  0  0  0  0  0  0  0  0  0
  122.5737  103.7800  106.3712 H   0  0  0  0  0  0  0  0  0  0  0  0
  125.6257  108.7244  104.6944 H   0  0  0  0  0  0  0  0  0  0  0  0
  121.5858  106.6379  104.7025 H   0  0  0  0  0  0  0  0  0  0  0  0
  1  2  2  0  0  0  0
  1  3  1  0  0  0  0
  2 10  1  0  0  0  0
  2 14  1  0  0  0  0
  3 11  2  0  0  0  0
  3 13  1  0  0  0  0
  4  6  1  0  0  0  0
  4 10  2  0  0  0  0
  4 13  1  0  0  0  0
  5 12  1  0  0  0  0
  5 13  1  0  0  0  0
  5 15  2  0  0  0  0
  7  9  1  0  0  0  0
  7 14  1  0  0  0  0
  8  9  1  0  0  0  0
  8 16  1  0  0  0  0
  9 17  1  0  0  0  0
 11 12  1  0  0  0  0
  1 18  1  0  0  0  0
  6 19  1  0  0  0  0
  6 20  1  0  0  0  0
  6 21  1  0  0  0  0
  7 22  1  0  0  0  0
  7 23  1  0  0  0  0
  8 24  1  0  0  0  0
  8 25  1  0  0  0  0
  9 26  1  0  0  0  0
 12 27  1  0  0  0  0
 14 28  1  0  0  0  0
 16 29  1  0  0  0  0
 17 30  1  0  0  0  0
M  END
> <FRED Chemgauss4 score>
-8.251104

$$$$
C88067459	P137750760
  -OEChem-05182014473D

 29 29  0     1  0  0  0  0  0999 V2000
  119.8732  104.2843  106.5710 C   0  0  0  0  0  0  0  0  0  0  0  0
  120.6661  104.2908  104.2888 C   0  0  0  0  0  0  0  0  0  0  0  0
  118.5628  104.1407  106.1153 C   0  0  0  0  0  0  0  0  0  0  0  0
  119.3556  104.1471  103.8331 C   0  0  0  0  0  0  0  0  0  0  0  0
  120.9249  104.3594  105.6577 C   0  0  0  0  0  0  0  0  0  0  0  0
  118.3039  104.0720  104.7464 C   0  0  0  0  0  0  0  0  0  0  0  0
  125.5400  105.1375  106.4425 C   0  0  0  0  0  0  0  0  0  0  0  0
  122.3354  104.5134  106.1479 C   0  0  0  0  0  0  0  0  0  0  0  0
  124.9155  107.5498  106.9953 C   0  0  0  0  0  0  0  0  0  0  0  0
  124.4216  106.1108  106.8067 C   0  0  1  0  0  0  0  0  0  0  0  0
  125.5632  108.0591  105.7910 N   0  0  0  0  0  0  0  0  0  0  0  0
  122.1705  107.1827  105.8410 O   0  0  0  0  0  0  0  0  0  0  0  0
  117.0252  103.9306  104.3020 O   0  0  0  0  0  0  0  0  0  0  0  0
  123.1299  106.0930  105.4977 S   0  0  2  0  0  0  0  0  0  0  0  0
  120.0657  104.3370  107.6392 H   0  0  0  0  0  0  0  0  0  0  0  0
  121.4793  104.3486  103.5699 H   0  0  0  0  0  0  0  0  0  0  0  0
  117.7477  104.0825  106.8318 H   0  0  0  0  0  0  0  0  0  0  0  0
  119.1606  104.0939  102.7657 H   0  0  0  0  0  0  0  0  0  0  0  0
  126.0643  105.4514  105.5331 H   0  0  0  0  0  0  0  0  0  0  0  0
  126.2771  105.0609  107.2482 H   0  0  0  0  0  0  0  0  0  0  0  0
  125.1443  104.1313  106.2652 H   0  0  0  0  0  0  0  0  0  0  0  0
  122.3621  104.5500  107.2422 H   0  0  0  0  0  0  0  0  0  0  0  0
  122.9543  103.6655  105.8355 H   0  0  0  0  0  0  0  0  0  0  0  0
  124.0803  108.2109  107.2551 H   0  0  0  0  0  0  0  0  0  0  0  0
  125.6313  107.5981  107.8245 H   0  0  0  0  0  0  0  0  0  0  0  0
  123.9219  105.7642  107.7189 H   0  0  0  0  0  0  0  0  0  0  0  0
  126.2405  108.7843  105.8923 H   0  0  0  0  0  0  0  0  0  0  0  0
  125.1688  107.8175  104.9072 H   0  0  0  0  0  0  0  0  0  0  0  0
  117.0078  103.8985  103.3322 H   0  0  0  0  0  0  0  0  0  0  0  0
  1  3  2  0  0  0  0
  1  5  1  0  0  0  0
  2  4  1  0  0  0  0
  2  5  2  0  0  0  0
  3  6  1  0  0  0  0
  4  6  2  0  0  0  0
  5  8  1  0  0  0  0
  6 13  1  0  0  0  0
  7 10  1  0  0  0  0
  8 14  1  0  0  0  0
  9 10  1  0  0  0  0
  9 11  1  0  0  0  0
 10 14  1  0  0  0  0
 12 14  2  0  0  0  0
  1 15  1  0  0  0  0
  2 16  1  0  0  0  0
  3 17  1  0  0  0  0
  4 18  1  0  0  0  0
  7 19  1  0  0  0  0
  7 20  1  0  0  0  0
  7 21  1  0  0  0  0
  8 22  1  0  0  0  0
  8 23  1  0  0  0  0
  9 24  1  0  0  0  0
  9 25  1  0  0  0  0
 10 26  1  0  0  0  0
 11 27  1  0  0  0  0
 11 28  1  0  0  0  0
 13 29  1  0  0  0  0
M  END
> <FRED Chemgauss4 score>
-8.250463

$$$$
C98340352	P156414816
  -OEChem-05182014473D

 36 38  0     1  0  0  0  0  0999 V2000
  123.8348  103.2230  107.8125 C   0  0  0  0  0  0  0  0  0  0  0  0
  115.5617  105.0748  103.3831 C   0  0  0  0  0  0  0  0  0  0  0  0
  116.7003  106.0700  104.8706 C   0  0  0  0  0  0  0  0  0  0  0  0
  117.6181  105.5019  104.0181 C   0  0  0  0  0  0  0  0  0  0  0  0
  124.3639  104.4081  107.3459 C   0  0  0  0  0  0  0  0  0  0  0  0
  122.2797  104.7145  106.7356 C   0  0  0  0  0  0  0  0  0  0  0  0
  120.9029  106.4659  105.5690 C   0  0  0  0  0  0  0  0  0  0  0  0
  125.9834  106.3322  107.5452 C   0  0  0  0  0  0  0  0  0  0  0  0
  117.0769  106.8830  106.0497 C   0  0  0  0  0  0  0  0  0  0  0  0
  119.0924  105.5580  104.1362 C   0  0  0  0  0  0  0  0  0  0  0  0
  118.5626  106.6562  106.4051 C   0  0  0  0  0  0  0  0  0  0  0  0
  119.4766  106.6577  105.1549 C   0  0  1  0  0  0  0  0  0  0  0  0
  125.7767  104.8230  107.4531 C   0  0  0  0  0  0  0  0  0  0  0  0
  115.4193  105.8064  104.4701 N   0  0  0  0  0  0  0  0  0  0  0  0
  123.4737  105.2644  106.7277 N   0  0  0  0  0  0  0  0  0  0  0  0
  116.8802  104.8618  103.0682 N   0  0  0  0  0  0  0  0  0  0  0  0
  126.0628  106.7925  108.8426 N   0  0  0  0  0  0  0  0  0  0  0  0
  121.0785  105.2457  106.2090 N   0  0  0  0  0  0  0  0  0  0  0  0
  121.7466  107.3243  105.3319 O   0  0  0  0  0  0  0  0  0  0  0  0
  126.0673  107.0600  106.5599 O   0  0  0  0  0  0  0  0  0  0  0  0
  122.1551  103.1687  107.4705 S   0  0  0  0  0  0  0  0  0  0  0  0
  124.3349  102.4116  108.3223 H   0  0  0  0  0  0  0  0  0  0  0  0
  114.7602  104.6701  102.7813 H   0  0  0  0  0  0  0  0  0  0  0  0
  116.9012  107.9457  105.8555 H   0  0  0  0  0  0  0  0  0  0  0  0
  116.4465  106.5930  106.8973 H   0  0  0  0  0  0  0  0  0  0  0  0
  119.4953  104.5855  104.4254 H   0  0  0  0  0  0  0  0  0  0  0  0
  119.5089  105.8197  103.1597 H   0  0  0  0  0  0  0  0  0  0  0  0
  118.8909  107.4615  107.0651 H   0  0  0  0  0  0  0  0  0  0  0  0
  118.6605  105.7202  106.9543 H   0  0  0  0  0  0  0  0  0  0  0  0
  119.4291  107.6214  104.6663 H   0  0  0  0  0  0  0  0  0  0  0  0
  126.2605  104.3710  108.3410 H   0  0  0  0  0  0  0  0  0  0  0  0
  126.3649  104.4596  106.5878 H   0  0  0  0  0  0  0  0  0  0  0  0
  117.2311  104.3333  102.2806 H   0  0  0  0  0  0  0  0  0  0  0  0
  125.9832  106.1357  109.6123 H   0  0  0  0  0  0  0  0  0  0  0  0
  126.1996  107.7786  109.0389 H   0  0  0  0  0  0  0  0  0  0  0  0
  120.2563  104.6554  106.3178 H   0  0  0  0  0  0  0  0  0  0  0  0
  1  5  2  0  0  0  0
  1 21  1  0  0  0  0
  2 14  2  0  0  0  0
  2 16  1  0  0  0  0
  3  4  2  0  0  0  0
  3  9  1  0  0  0  0
  3 14  1  0  0  0  0
  4 10  1  0  0  0  0
  4 16  1  0  0  0  0
  5 13  1  0  0  0  0
  5 15  1  0  0  0  0
  6 15  2  0  0  0  0
  6 18  1  0  0  0  0
  6 21  1  0  0  0  0
  7 12  1  0  0  0  0
  7 18  1  0  0  0  0
  7 19  2  0  0  0  0
  8 13  1  0  0  0  0
  8 17  1  0  0  0  0
  8 20  2  0  0  0  0
  9 11  1  0  0  0  0
 10 12  1  0  0  0  0
 11 12  1  0  0  0  0
  1 22  1  0  0  0  0
  2 23  1  0  0  0  0
  9 24  1  0  0  0  0
  9 25  1  0  0  0  0
 10 26  1  0  0  0  0
 10 27  1  0  0  0  0
 11 28  1  0  0  0  0
 11 29  1  0  0  0  0
 12 30  1  0  0  0  0
 13 31  1  0  0  0  0
 13 32  1  0  0  0  0
 16 33  1  0  0  0  0
 17 34  1  0  0  0  0
 17 35  1  0  0  0  0
 18 36  1  0  0  0  0
M  END
> <FRED Chemgauss4 score>
-8.250380

$$$$
C67844972	P104163880
  -OEChem-05182014473D

 38 39  0     1  0  0  0  0  0999 V2000
  117.8943  103.6529  103.0622 C   0  0  0  0  0  0  0  0  0  0  0  0
  118.5677  103.9460  101.8783 C   0  0  0  0  0  0  0  0  0  0  0  0
  120.2127  105.1970  103.1288 C   0  0  0  0  0  0  0  0  0  0  0  0
  119.5593  104.8914  104.3334 C   0  0  0  0  0  0  0  0  0  0  0  0
  118.3756  104.1386  104.2818 C   0  0  0  0  0  0  0  0  0  0  0  0
  119.7222  104.7236  101.9106 C   0  0  0  0  0  0  0  0  0  0  0  0
  122.4080  106.2364  105.3393 C   0  0  0  0  0  0  0  0  0  0  0  0
  119.4028  104.6915  106.8182 C   0  0  0  0  0  0  0  0  0  0  0  0
  117.9116  104.6031  106.5459 C   0  0  0  0  0  0  0  0  0  0  0  0
  120.0885  105.4027  105.6527 C   0  0  1  0  0  0  0  0  0  0  0  0
  124.7984  106.9855  105.2262 C   0  0  0  0  0  0  0  0  0  0  0  0
  124.3175  103.9002  109.1115 C   0  0  0  0  0  0  0  0  0  0  0  0
  123.8556  105.8625  105.6295 C   0  0  1  0  0  0  0  0  0  0  0  0
  121.5208  105.2627  105.7751 N   0  0  0  0  0  0  0  0  0  0  0  0
  123.9654  105.5661  107.0336 N   0  0  0  0  0  0  0  0  0  0  0  0
  122.0820  107.2989  104.8141 O   0  0  0  0  0  0  0  0  0  0  0  0
  126.3460  105.0334  107.9069 O   0  0  0  0  0  0  0  0  0  0  0  0
  125.0576  103.2330  106.7006 O   0  0  0  0  0  0  0  0  0  0  0  0
  117.6363  103.8079  105.3896 O   0  0  0  0  0  0  0  0  0  0  0  0
  125.0914  104.3821  107.5848 S   0  0  0  0  0  0  0  0  0  0  0  0
  120.6231  105.1447  100.3031 Br  0  0  0  0  0  0  0  0  0  0  0  0
  116.9964  103.0415  103.0296 H   0  0  0  0  0  0  0  0  0  0  0  0
  118.1789  103.5619  100.9392 H   0  0  0  0  0  0  0  0  0  0  0  0
  121.1091  105.8149  103.1513 H   0  0  0  0  0  0  0  0  0  0  0  0
  119.5582  105.2781  107.7308 H   0  0  0  0  0  0  0  0  0  0  0  0
  119.8268  103.6965  106.9790 H   0  0  0  0  0  0  0  0  0  0  0  0
  117.3590  104.1965  107.3984 H   0  0  0  0  0  0  0  0  0  0  0  0
  117.5166  105.6032  106.3488 H   0  0  0  0  0  0  0  0  0  0  0  0
  119.8771  106.4794  105.7480 H   0  0  0  0  0  0  0  0  0  0  0  0
  124.5580  107.9148  105.7554 H   0  0  0  0  0  0  0  0  0  0  0  0
  125.8384  106.7329  105.4577 H   0  0  0  0  0  0  0  0  0  0  0  0
  124.7275  107.1871  104.1519 H   0  0  0  0  0  0  0  0  0  0  0  0
  124.9352  103.1349  109.5842 H   0  0  0  0  0  0  0  0  0  0  0  0
  124.2420  104.7802  109.7521 H   0  0  0  0  0  0  0  0  0  0  0  0
  123.3259  103.5054  108.8853 H   0  0  0  0  0  0  0  0  0  0  0  0
  124.1110  104.9433  105.0911 H   0  0  0  0  0  0  0  0  0  0  0  0
  121.8802  104.3957  106.1629 H   0  0  0  0  0  0  0  0  0  0  0  0
  123.8361  106.3758  107.6779 H   0  0  0  0  0  0  0  0  0  0  0  0
  1  2  1  0  0  0  0
  1  5  2  0  0  0  0
  2  6  2  0  0  0  0
  3  4  2  0  0  0  0
  3  6  1  0  0  0  0
  4  5  1  0  0  0  0
  4 10  1  0  0  0  0
  5 19  1  0  0  0  0
  6 21  1  0  0  0  0
  7 13  1  0  0  0  0
  7 14  1  0  0  0  0
  7 16  2  0  0  0  0
  8  9  1  0  0  0  0
  8 10  1  0  0  0  0
  9 19  1  0  0  0  0
 10 14  1  0  0  0  0
 11 13  1  0  0  0  0
 12 20  1  0  0  0  0
 13 15  1  0  0  0  0
 15 20  1  0  0  0  0
 17 20  2  0  0  0  0
 18 20  2  0  0  0  0
  1 22  1  0  0  0  0
  2 23  1  0  0  0  0
  3 24  1  0  0  0  0
  8 25  1  0  0  0  0
  8 26  1  0  0  0  0
  9 27  1  0  0  0  0
  9 28  1  0  0  0  0
 10 29  1  0  0  0  0
 11 30  1  0  0  0  0
 11 31  1  0  0  0  0
 11 32  1  0  0  0  0
 12 33  1  0  0  0  0
 12 34  1  0  0  0  0
 12 35  1  0  0  0  0
 13 36  1  0  0  0  0
 14 37  1  0  0  0  0
 15 38  1  0  0  0  0
M  END
> <FRED Chemgauss4 score>
-8.248092

$$$$
C97321337	P154123694
  -OEChem-05182014473D

 35 36  0     1  0  0  0  0  0999 V2000
  121.6809  105.5835  106.7738 C   0  0  0  0  0  0  0  0  0  0  0  0
  121.5154  106.5612  105.8153 C   0  0  0  0  0  0  0  0  0  0  0  0
  123.6543  106.8441  106.2090 C   0  0  0  0  0  0  0  0  0  0  0  0
  120.4584  105.0729  101.8745 C   0  0  0  0  0  0  0  0  0  0  0  0
  118.1910  104.7336  102.8038 C   0  0  0  0  0  0  0  0  0  0  0  0
  124.9699  107.3804  106.1136 C   0  0  0  0  0  0  0  0  0  0  0  0
  120.6739  106.1702  102.8843 C   0  0  0  0  0  0  0  0  0  0  0  0
  118.4498  105.8910  103.7670 C   0  0  1  0  0  0  0  0  0  0  0  0
  117.8573  104.4993  105.7572 C   0  0  0  0  0  0  0  0  0  0  0  0
  120.2302  106.8936  105.1139 C   0  0  0  0  0  0  0  0  0  0  0  0
  117.5377  105.7377  104.9908 C   0  0  0  0  0  0  0  0  0  0  0  0
  122.6458  107.2854  105.4904 N   0  0  0  0  0  0  0  0  0  0  0  0
  119.2195  104.4588  101.9151 N   0  0  0  0  0  0  0  0  0  0  0  0
  119.8882  105.8973  104.0942 N   0  0  2  0  0  0  0  0  0  0  0  0
  126.8072  108.4585  107.2781 N   0  0  0  0  0  0  0  0  0  0  0  0
  125.5253  107.9398  107.2840 N   0  0  0  0  0  0  0  0  0  0  0  0
  121.3179  104.7911  101.0396 O   0  0  0  0  0  0  0  0  0  0  0  0
  117.1235  104.1208  102.7696 O   0  0  0  0  0  0  0  0  0  0  0  0
  125.6615  107.3612  105.0625 O   0  0  0  0  0  0  0  0  0  0  0  0
  123.3146  105.5597  107.2951 S   0  0  0  0  0  0  0  0  0  0  0  0
  120.9477  104.9013  107.1802 H   0  0  0  0  0  0  0  0  0  0  0  0
  121.7442  106.1763  103.1242 H   0  0  0  0  0  0  0  0  0  0  0  0
  120.4133  107.1311  102.4242 H   0  0  0  0  0  0  0  0  0  0  0  0
  118.1677  106.8163  103.2460 H   0  0  0  0  0  0  0  0  0  0  0  0
  117.7316  103.6263  105.1059 H   0  0  0  0  0  0  0  0  0  0  0  0
  117.1853  104.3831  106.6141 H   0  0  0  0  0  0  0  0  0  0  0  0
  118.8936  104.5128  106.1109 H   0  0  0  0  0  0  0  0  0  0  0  0
  119.4016  106.9426  105.8288 H   0  0  0  0  0  0  0  0  0  0  0  0
  120.2925  107.8694  104.6208 H   0  0  0  0  0  0  0  0  0  0  0  0
  117.6599  106.6127  105.6309 H   0  0  0  0  0  0  0  0  0  0  0  0
  116.5006  105.7086  104.6535 H   0  0  0  0  0  0  0  0  0  0  0  0
  119.0457  103.7338  101.2246 H   0  0  0  0  0  0  0  0  0  0  0  0
  127.2009  108.2809  108.2012 H   0  0  0  0  0  0  0  0  0  0  0  0
  127.3507  107.8927  106.6276 H   0  0  0  0  0  0  0  0  0  0  0  0
  124.9787  107.9617  108.1382 H   0  0  0  0  0  0  0  0  0  0  0  0
  1  2  2  0  0  0  0
  1 20  1  0  0  0  0
  2 10  1  0  0  0  0
  2 12  1  0  0  0  0
  3  6  1  0  0  0  0
  3 12  2  0  0  0  0
  3 20  1  0  0  0  0
  4  7  1  0  0  0  0
  4 13  1  0  0  0  0
  4 17  2  0  0  0  0
  5  8  1  0  0  0  0
  5 13  1  0  0  0  0
  5 18  2  0  0  0  0
  6 16  1  0  0  0  0
  6 19  2  0  0  0  0
  7 14  1  0  0  0  0
  8 11  1  0  0  0  0
  8 14  1  0  0  0  0
  9 11  1  0  0  0  0
 10 14  1  0  0  0  0
 15 16  1  0  0  0  0
  1 21  1  0  0  0  0
  7 22  1  0  0  0  0
  7 23  1  0  0  0  0
  8 24  1  0  0  0  0
  9 25  1  0  0  0  0
  9 26  1  0  0  0  0
  9 27  1  0  0  0  0
 10 28  1  0  0  0  0
 10 29  1  0  0  0  0
 11 30  1  0  0  0  0
 11 31  1  0  0  0  0
 13 32  1  0  0  0  0
 15 33  1  0  0  0  0
 15 34  1  0  0  0  0
 16 35  1  0  0  0  0
M  END
> <FRED Chemgauss4 score>
-8.246792

$$$$
C85962559	P134593572
  -OEChem-05182014473D

 39 40  0     1  0  0  0  0  0999 V2000
  118.3751  104.4861  106.3937 C   0  0  0  0  0  0  0  0  0  0  0  0
  118.5116  103.3888  104.2456 C   0  0  0  0  0  0  0  0  0  0  0  0
  117.8991  103.5360  105.4901 C   0  0  0  0  0  0  0  0  0  0  0  0
  120.0760  105.1419  104.8081 C   0  0  0  0  0  0  0  0  0  0  0  0
  119.4636  105.2891  106.0526 C   0  0  0  0  0  0  0  0  0  0  0  0
  119.6001  104.1917  103.9046 C   0  0  0  0  0  0  0  0  0  0  0  0
  124.0847  104.6696  109.2660 C   0  0  0  0  0  0  0  0  0  0  0  0
  125.5793  104.6239  108.9653 C   0  0  0  0  0  0  0  0  0  0  0  0
  123.4061  105.8575  108.5864 C   0  0  0  0  0  0  0  0  0  0  0  0
  125.8587  104.6490  107.4630 C   0  0  0  0  0  0  0  0  0  0  0  0
  123.6734  105.9186  107.0721 C   0  0  1  0  0  0  0  0  0  0  0  0
  125.1798  105.8336  106.7697 C   0  0  1  0  0  0  0  0  0  0  0  0
  122.8879  104.8391  106.3227 C   0  0  0  0  0  0  0  0  0  0  0  0
  116.7985  102.7241  105.8349 N   0  0  0  0  0  0  0  0  0  0  0  0
  122.7715  105.1981  104.9510 N   0  0  0  0  0  0  0  0  0  0  0  0
  121.5305  106.2196  102.9284 O   0  0  0  0  0  0  0  0  0  0  0  0
  121.3398  107.3798  105.1514 O   0  0  0  0  0  0  0  0  0  0  0  0
  125.7923  107.0469  107.2124 O   0  0  0  0  0  0  0  0  0  0  0  0
  121.4551  106.1597  104.3757 S   0  0  0  0  0  0  0  0  0  0  0  0
  120.0062  106.4475  107.2152 Cl  0  0  0  0  0  0  0  0  0  0  0  0
  120.3156  103.9612  102.3481 Cl  0  0  0  0  0  0  0  0  0  0  0  0
  117.8926  104.5957  107.3628 H   0  0  0  0  0  0  0  0  0  0  0  0
  118.1353  102.6458  103.5454 H   0  0  0  0  0  0  0  0  0  0  0  0
  123.6134  103.7372  108.9333 H   0  0  0  0  0  0  0  0  0  0  0  0
  123.9316  104.7342  110.3508 H   0  0  0  0  0  0  0  0  0  0  0  0
  126.0793  105.4743  109.4458 H   0  0  0  0  0  0  0  0  0  0  0  0
  126.0138  103.7141  109.4009 H   0  0  0  0  0  0  0  0  0  0  0  0
  122.3200  105.8034  108.7682 H   0  0  0  0  0  0  0  0  0  0  0  0
  123.7509  106.7886  109.0632 H   0  0  0  0  0  0  0  0  0  0  0  0
  126.9423  104.6904  107.2886 H   0  0  0  0  0  0  0  0  0  0  0  0
  125.5229  103.7101  107.0052 H   0  0  0  0  0  0  0  0  0  0  0  0
  123.3076  106.8932  106.6929 H   0  0  0  0  0  0  0  0  0  0  0  0
  125.3385  105.7648  105.6842 H   0  0  0  0  0  0  0  0  0  0  0  0
  121.9032  104.7643  106.7617 H   0  0  0  0  0  0  0  0  0  0  0  0
  123.4182  103.9017  106.4070 H   0  0  0  0  0  0  0  0  0  0  0  0
  116.3983  102.8067  106.7475 H   0  0  0  0  0  0  0  0  0  0  0  0
  116.4970  102.0152  105.1974 H   0  0  0  0  0  0  0  0  0  0  0  0
  123.6445  105.2370  104.3708 H   0  0  0  0  0  0  0  0  0  0  0  0
  126.7288  106.9889  106.9674 H   0  0  0  0  0  0  0  0  0  0  0  0
  1  3  1  0  0  0  0
  1  5  2  0  0  0  0
  2  3  2  0  0  0  0
  2  6  1  0  0  0  0
  3 14  1  0  0  0  0
  4  5  1  0  0  0  0
  4  6  2  0  0  0  0
  4 19  1  0  0  0  0
  5 20  1  0  0  0  0
  6 21  1  0  0  0  0
  7  8  1  0  0  0  0
  7  9  1  0  0  0  0
  8 10  1  0  0  0  0
  9 11  1  0  0  0  0
 10 12  1  0  0  0  0
 11 12  1  0  0  0  0
 11 13  1  0  0  0  0
 12 18  1  0  0  0  0
 13 15  1  0  0  0  0
 15 19  1  0  0  0  0
 16 19  2  0  0  0  0
 17 19  2  0  0  0  0
  1 22  1  0  0  0  0
  2 23  1  0  0  0  0
  7 24  1  0  0  0  0
  7 25  1  0  0  0  0
  8 26  1  0  0  0  0
  8 27  1  0  0  0  0
  9 28  1  0  0  0  0
  9 29  1  0  0  0  0
 10 30  1  0  0  0  0
 10 31  1  0  0  0  0
 11 32  1  0  0  0  0
 12 33  1  0  0  0  0
 13 34  1  0  0  0  0
 13 35  1  0  0  0  0
 14 36  1  0  0  0  0
 14 37  1  0  0  0  0
 15 38  1  0  0  0  0
 18 39  1  0  0  0  0
M  END
> <FRED Chemgauss4 score>
-8.237935

$$$$
C61656861	P94432918
  -OEChem-05182014473D

 38 40  0     1  0  0  0  0  0999 V2000
  126.1315  104.3694  108.4324 C   0  0  0  0  0  0  0  0  0  0  0  0
  124.8197  104.7285  108.7213 C   0  0  0  0  0  0  0  0  0  0  0  0
  118.4248  106.9712  105.8048 C   0  0  0  0  0  0  0  0  0  0  0  0
  126.7615  105.0088  107.3769 C   0  0  0  0  0  0  0  0  0  0  0  0
  117.6740  106.2617  104.8917 C   0  0  0  0  0  0  0  0  0  0  0  0
  119.6234  106.2835  106.1833 C   0  0  0  0  0  0  0  0  0  0  0  0
  124.1869  105.7023  107.9567 C   0  0  0  0  0  0  0  0  0  0  0  0
  119.6890  105.0541  105.5587 C   0  0  0  0  0  0  0  0  0  0  0  0
  124.9040  106.2822  106.9226 C   0  0  0  0  0  0  0  0  0  0  0  0
  120.7901  104.0774  105.7751 C   0  0  0  0  0  0  0  0  0  0  0  0
  121.5195  104.4275  107.0802 C   0  0  0  0  0  0  0  0  0  0  0  0
  120.6752  106.7523  107.1759 C   0  0  2  0  0  0  0  0  0  0  0  0
  121.0781  108.2078  106.8888 C   0  0  0  0  0  0  0  0  0  0  0  0
  122.7706  106.0947  108.2639 C   0  0  0  0  0  0  0  0  0  0  0  0
  124.2743  107.3330  106.0679 C   0  0  0  0  0  0  0  0  0  0  0  0
  126.1795  105.9593  106.6118 N   0  0  0  0  0  0  0  0  0  0  0  0
  121.8765  105.8629  107.1227 N   0  0  1  0  0  0  0  0  0  0  0  0
  123.3353  106.7800  105.1266 N   0  0  0  0  0  0  0  0  0  0  0  0
  118.3912  104.7576  104.5046 S   0  0  0  0  0  0  0  0  0  0  0  0
  126.6461  103.6137  109.0146 H   0  0  0  0  0  0  0  0  0  0  0  0
  124.2998  104.2450  109.5438 H   0  0  0  0  0  0  0  0  0  0  0  0
  118.1242  107.9411  106.1799 H   0  0  0  0  0  0  0  0  0  0  0  0
  127.7846  104.7645  107.1106 H   0  0  0  0  0  0  0  0  0  0  0  0
  116.7365  106.5540  104.4402 H   0  0  0  0  0  0  0  0  0  0  0  0
  120.4069  103.0524  105.8361 H   0  0  0  0  0  0  0  0  0  0  0  0
  121.4900  104.1256  104.9317 H   0  0  0  0  0  0  0  0  0  0  0  0
  120.8975  104.1636  107.9465 H   0  0  0  0  0  0  0  0  0  0  0  0
  122.4232  103.8071  107.1292 H   0  0  0  0  0  0  0  0  0  0  0  0
  120.2196  106.6967  108.1747 H   0  0  0  0  0  0  0  0  0  0  0  0
  121.5287  108.2680  105.9032 H   0  0  0  0  0  0  0  0  0  0  0  0
  121.7925  108.5368  107.6368 H   0  0  0  0  0  0  0  0  0  0  0  0
  120.1955  108.8386  106.9252 H   0  0  0  0  0  0  0  0  0  0  0  0
  122.3870  105.5212  109.1148 H   0  0  0  0  0  0  0  0  0  0  0  0
  122.7055  107.1548  108.5303 H   0  0  0  0  0  0  0  0  0  0  0  0
  123.7358  108.0683  106.6806 H   0  0  0  0  0  0  0  0  0  0  0  0
  125.0283  107.8873  105.4938 H   0  0  0  0  0  0  0  0  0  0  0  0
  123.1469  107.2789  104.2728 H   0  0  0  0  0  0  0  0  0  0  0  0
  122.7374  106.0245  105.4184 H   0  0  0  0  0  0  0  0  0  0  0  0
  1  2  2  0  0  0  0
  1  4  1  0  0  0  0
  2  7  1  0  0  0  0
  3  5  2  0  0  0  0
  3  6  1  0  0  0  0
  4 16  2  0  0  0  0
  5 19  1  0  0  0  0
  6  8  2  0  0  0  0
  6 12  1  0  0  0  0
  7  9  2  0  0  0  0
  7 14  1  0  0  0  0
  8 10  1  0  0  0  0
  8 19  1  0  0  0  0
  9 15  1  0  0  0  0
  9 16  1  0  0  0  0
 10 11  1  0  0  0  0
 11 17  1  0  0  0  0
 12 13  1  0  0  0  0
 12 17  1  0  0  0  0
 14 17  1  0  0  0  0
 15 18  1  0  0  0  0
  1 20  1  0  0  0  0
  2 21  1  0  0  0  0
  3 22  1  0  0  0  0
  4 23  1  0  0  0  0
  5 24  1  0  0  0  0
 10 25  1  0  0  0  0
 10 26  1  0  0  0  0
 11 27  1  0  0  0  0
 11 28  1  0  0  0  0
 12 29  1  0  0  0  0
 13 30  1  0  0  0  0
 13 31  1  0  0  0  0
 13 32  1  0  0  0  0
 14 33  1  0  0  0  0
 14 34  1  0  0  0  0
 15 35  1  0  0  0  0
 15 36  1  0  0  0  0
 18 37  1  0  0  0  0
 18 38  1  0  0  0  0
M  END
> <FRED Chemgauss4 score>
-8.227889

$$$$
C86503752	P135438226
  -OEChem-05182014473D

 33 33  0     0  0  0  0  0  0999 V2000
  121.2577  105.2104  104.7685 C   0  0  0  0  0  0  0  0  0  0  0  0
  120.1375  105.3065  103.9589 C   0  0  0  0  0  0  0  0  0  0  0  0
  118.8710  104.0540  105.4099 C   0  0  0  0  0  0  0  0  0  0  0  0
  121.1447  104.4915  105.9533 C   0  0  0  0  0  0  0  0  0  0  0  0
  119.9320  103.8991  106.2875 C   0  0  0  0  0  0  0  0  0  0  0  0
  125.8086  105.6970  106.9577 C   0  0  0  0  0  0  0  0  0  0  0  0
  123.8654  105.8190  108.5480 C   0  0  0  0  0  0  0  0  0  0  0  0
  124.5620  108.5234  107.2314 C   0  0  0  0  0  0  0  0  0  0  0  0
  123.6078  104.5838  106.3409 C   0  0  0  0  0  0  0  0  0  0  0  0
  124.2797  105.7624  107.0715 C   0  0  0  0  0  0  0  0  0  0  0  0
  118.9428  104.7449  104.2501 N   0  0  0  0  0  0  0  0  0  0  0  0
  119.7662  103.1629  107.4746 N   0  0  0  0  0  0  0  0  0  0  0  0
  122.2484  104.3764  106.7827 N   0  0  0  0  0  0  0  0  0  0  0  0
  124.2765  107.2854  104.9470 O   0  0  0  0  0  0  0  0  0  0  0  0
  122.3118  107.3947  106.5280 O   0  0  0  0  0  0  0  0  0  0  0  0
  123.7286  107.2833  106.2814 S   0  0  0  0  0  0  0  0  0  0  0  0
  122.1888  105.6851  104.4780 H   0  0  0  0  0  0  0  0  0  0  0  0
  120.1731  105.8563  103.0241 H   0  0  0  0  0  0  0  0  0  0  0  0
  117.8992  103.6150  105.6146 H   0  0  0  0  0  0  0  0  0  0  0  0
  126.1247  105.6560  105.9092 H   0  0  0  0  0  0  0  0  0  0  0  0
  126.2757  106.5832  107.4029 H   0  0  0  0  0  0  0  0  0  0  0  0
  126.2156  104.8178  107.4683 H   0  0  0  0  0  0  0  0  0  0  0  0
  122.7774  105.8664  108.6621 H   0  0  0  0  0  0  0  0  0  0  0  0
  124.2160  104.9333  109.0902 H   0  0  0  0  0  0  0  0  0  0  0  0
  124.2963  106.6952  109.0452 H   0  0  0  0  0  0  0  0  0  0  0  0
  124.2940  109.5022  106.8306 H   0  0  0  0  0  0  0  0  0  0  0  0
  124.2411  108.4347  108.2704 H   0  0  0  0  0  0  0  0  0  0  0  0
  125.6369  108.3569  107.1473 H   0  0  0  0  0  0  0  0  0  0  0  0
  124.1755  103.6603  106.5047 H   0  0  0  0  0  0  0  0  0  0  0  0
  123.6030  104.7590  105.2587 H   0  0  0  0  0  0  0  0  0  0  0  0
  118.8634  102.7928  107.7015 H   0  0  0  0  0  0  0  0  0  0  0  0
  120.5272  103.0980  108.1229 H   0  0  0  0  0  0  0  0  0  0  0  0
  122.0949  104.1318  107.7543 H   0  0  0  0  0  0  0  0  0  0  0  0
  1  2  2  0  0  0  0
  1  4  1  0  0  0  0
  2 11  1  0  0  0  0
  3  5  1  0  0  0  0
  3 11  2  0  0  0  0
  4  5  2  0  0  0  0
  4 13  1  0  0  0  0
  5 12  1  0  0  0  0
  6 10  1  0  0  0  0
  7 10  1  0  0  0  0
  8 16  1  0  0  0  0
  9 10  1  0  0  0  0
  9 13  1  0  0  0  0
 10 16  1  0  0  0  0
 14 16  2  0  0  0  0
 15 16  2  0  0  0  0
  1 17  1  0  0  0  0
  2 18  1  0  0  0  0
  3 19  1  0  0  0  0
  6 20  1  0  0  0  0
  6 21  1  0  0  0  0
  6 22  1  0  0  0  0
  7 23  1  0  0  0  0
  7 24  1  0  0  0  0
  7 25  1  0  0  0  0
  8 26  1  0  0  0  0
  8 27  1  0  0  0  0
  8 28  1  0  0  0  0
  9 29  1  0  0  0  0
  9 30  1  0  0  0  0
 12 31  1  0  0  0  0
 12 32  1  0  0  0  0
 13 33  1  0  0  0  0
M  END
> <FRED Chemgauss4 score>
-8.220708

$$$$
C45073360	P67936567
  -OEChem-05182014473D

 35 36  0     1  0  0  0  0  0999 V2000
  117.7511  104.2635  105.3277 C   0  0  0  0  0  0  0  0  0  0  0  0
  119.2258  105.9544  104.7824 C   0  0  0  0  0  0  0  0  0  0  0  0
  118.8915  104.1134  106.2956 C   0  0  0  0  0  0  0  0  0  0  0  0
  115.5887  105.7397  103.7226 C   0  0  0  0  0  0  0  0  0  0  0  0
  116.2656  104.8682  102.7069 C   0  0  0  0  0  0  0  0  0  0  0  0
  119.9150  105.1479  105.8517 C   0  0  1  0  0  0  0  0  0  0  0  0
  117.0771  105.8339  103.5264 C   0  0  0  0  0  0  0  0  0  0  0  0
  122.8326  105.3715  106.8022 C   0  0  0  0  0  0  0  0  0  0  0  0
  122.0550  104.1805  106.2536 C   0  0  0  0  0  0  0  0  0  0  0  0
  123.6273  106.0944  105.7231 C   0  0  0  0  0  0  0  0  0  0  0  0
  117.9999  105.3694  104.5443 N   0  0  0  0  0  0  0  0  0  0  0  0
  125.2899  108.0272  104.9807 N   0  0  0  0  0  0  0  0  0  0  0  0
  121.0792  104.5678  105.2440 N   0  0  0  0  0  0  0  0  0  0  0  0
  116.7797  103.5207  105.2934 O   0  0  0  0  0  0  0  0  0  0  0  0
  119.7271  106.9077  104.2016 O   0  0  0  0  0  0  0  0  0  0  0  0
  123.5863  108.4457  106.8620 O   0  0  0  0  0  0  0  0  0  0  0  0
  125.5530  106.9168  107.2861 O   0  0  0  0  0  0  0  0  0  0  0  0
  124.5359  107.4499  106.3966 S   0  0  0  0  0  0  0  0  0  0  0  0
  118.5290  104.3312  107.3058 H   0  0  0  0  0  0  0  0  0  0  0  0
  119.2714  103.0871  106.2725 H   0  0  0  0  0  0  0  0  0  0  0  0
  114.9675  106.5487  103.3578 H   0  0  0  0  0  0  0  0  0  0  0  0
  115.2284  105.2709  104.6301 H   0  0  0  0  0  0  0  0  0  0  0  0
  116.3612  103.8129  102.9308 H   0  0  0  0  0  0  0  0  0  0  0  0
  116.0988  105.0921  101.6605 H   0  0  0  0  0  0  0  0  0  0  0  0
  120.1962  105.8070  106.6759 H   0  0  0  0  0  0  0  0  0  0  0  0
  117.4448  106.7166  103.0145 H   0  0  0  0  0  0  0  0  0  0  0  0
  123.5196  105.0160  107.5800 H   0  0  0  0  0  0  0  0  0  0  0  0
  122.1459  106.0755  107.2887 H   0  0  0  0  0  0  0  0  0  0  0  0
  122.7286  103.4447  105.8028 H   0  0  0  0  0  0  0  0  0  0  0  0
  121.5018  103.6892  107.0600 H   0  0  0  0  0  0  0  0  0  0  0  0
  124.3555  105.4277  105.2517 H   0  0  0  0  0  0  0  0  0  0  0  0
  122.9745  106.5083  104.9491 H   0  0  0  0  0  0  0  0  0  0  0  0
  124.9628  108.9216  104.5952 H   0  0  0  0  0  0  0  0  0  0  0  0
  126.3022  107.8801  104.8840 H   0  0  0  0  0  0  0  0  0  0  0  0
  120.8036  103.7440  104.7102 H   0  0  0  0  0  0  0  0  0  0  0  0
  1  3  1  0  0  0  0
  1 11  1  0  0  0  0
  1 14  2  0  0  0  0
  2  6  1  0  0  0  0
  2 11  1  0  0  0  0
  2 15  2  0  0  0  0
  3  6  1  0  0  0  0
  4  5  1  0  0  0  0
  4  7  1  0  0  0  0
  5  7  1  0  0  0  0
  6 13  1  0  0  0  0
  7 11  1  0  0  0  0
  8  9  1  0  0  0  0
  8 10  1  0  0  0  0
  9 13  1  0  0  0  0
 10 18  1  0  0  0  0
 12 18  1  0  0  0  0
 16 18  2  0  0  0  0
 17 18  2  0  0  0  0
  3 19  1  0  0  0  0
  3 20  1  0  0  0  0
  4 21  1  0  0  0  0
  4 22  1  0  0  0  0
  5 23  1  0  0  0  0
  5 24  1  0  0  0  0
  6 25  1  0  0  0  0
  7 26  1  0  0  0  0
  8 27  1  0  0  0  0
  8 28  1  0  0  0  0
  9 29  1  0  0  0  0
  9 30  1  0  0  0  0
 10 31  1  0  0  0  0
 10 32  1  0  0  0  0
 12 33  1  0  0  0  0
 12 34  1  0  0  0  0
 13 35  1  0  0  0  0
M  END
> <FRED Chemgauss4 score>
-8.210302

$$$$
GPNA	P10000029
  -OEChem-05182014473D

 32 32  0     1  0  0  0  0  0999 V2000
  118.9735  103.5142  105.7996 C   0  0  0  0  0  0  0  0  0  0  0  0
  119.9455  105.2855  104.4749 C   0  0  0  0  0  0  0  0  0  0  0  0
  117.8604  103.4965  104.9593 C   0  0  0  0  0  0  0  0  0  0  0  0
  118.8323  105.2677  103.6345 C   0  0  0  0  0  0  0  0  0  0  0  0
  120.0161  104.4087  105.5574 C   0  0  0  0  0  0  0  0  0  0  0  0
  117.7898  104.3732  103.8767 C   0  0  0  0  0  0  0  0  0  0  0  0
  122.2666  105.2465  106.3164 C   0  0  0  0  0  0  0  0  0  0  0  0
  126.9643  105.8622  108.1524 C   0  0  0  0  0  0  0  0  0  0  0  0
  123.2489  104.9377  107.4385 C   0  0  0  0  0  0  0  0  0  0  0  0
  124.5020  105.8144  107.3801 C   0  0  0  0  0  0  0  0  0  0  0  0
  125.5190  105.4426  108.4634 C   0  0  2  0  0  0  0  0  0  0  0  0
  121.1454  104.4267  106.4101 N   0  0  0  0  0  0  0  0  0  0  0  0
  116.6566  104.3551  103.0211 N   0  3  0  0  0  0  0  0  0  0  0  0
  125.0367  106.0611  109.7397 N   0  3  0  0  0  0  0  0  0  0  0  0
  127.6521  106.1661  109.1691 O   0  5  0  0  0  0  0  0  0  0  0  0
  115.7299  103.5425  103.2567 O   0  5  0  0  0  0  0  0  0  0  0  0
  122.4881  106.1127  105.4767 O   0  0  0  0  0  0  0  0  0  0  0  0
  127.2988  105.8401  106.9353 O   0  0  0  0  0  0  0  0  0  0  0  0
  116.6129  105.1521  102.0530 O   0  0  0  0  0  0  0  0  0  0  0  0
  119.0179  102.8264  106.6403 H   0  0  0  0  0  0  0  0  0  0  0  0
  120.7520  105.9868  104.2767 H   0  0  0  0  0  0  0  0  0  0  0  0
  117.0548  102.7942  105.1594 H   0  0  0  0  0  0  0  0  0  0  0  0
  118.7900  105.9565  102.7942 H   0  0  0  0  0  0  0  0  0  0  0  0
  123.5327  103.8809  107.3625 H   0  0  0  0  0  0  0  0  0  0  0  0
  122.7264  105.0795  108.3914 H   0  0  0  0  0  0  0  0  0  0  0  0
  124.2154  106.8708  107.4648 H   0  0  0  0  0  0  0  0  0  0  0  0
  124.9634  105.7021  106.3896 H   0  0  0  0  0  0  0  0  0  0  0  0
  125.4863  104.3606  108.6391 H   0  0  0  0  0  0  0  0  0  0  0  0
  121.1369  103.7629  107.1817 H   0  0  0  0  0  0  0  0  0  0  0  0
  125.6396  105.7846  110.5153 H   0  0  0  0  0  0  0  0  0  0  0  0
  124.0836  105.7559  109.9405 H   0  0  0  0  0  0  0  0  0  0  0  0
  125.0460  107.0788  109.6637 H   0  0  0  0  0  0  0  0  0  0  0  0
  1  3  1  0  0  0  0
  1  5  2  0  0  0  0
  2  4  2  0  0  0  0
  2  5  1  0  0  0  0
  3  6  2  0  0  0  0
  4  6  1  0  0  0  0
  5 12  1  0  0  0  0
  6 13  1  0  0  0  0
  7  9  1  0  0  0  0
  7 12  1  0  0  0  0
  7 17  2  0  0  0  0
  8 11  1  0  0  0  0
  8 15  1  0  0  0  0
  8 18  2  0  0  0  0
  9 10  1  0  0  0  0
 10 11  1  0  0  0  0
 11 14  1  0  0  0  0
 13 16  1  0  0  0  0
 13 19  2  0  0  0  0
  1 20  1  0  0  0  0
  2 21  1  0  0  0  0
  3 22  1  0  0  0  0
  4 23  1  0  0  0  0
  9 24  1  0  0  0  0
  9 25  1  0  0  0  0
 10 26  1  0  0  0  0
 10 27  1  0  0  0  0
 11 28  1  0  0  0  0
 12 29  1  0  0  0  0
 14 30  1  0  0  0  0
 14 31  1  0  0  0  0
 14 32  1  0  0  0  0
M  CHG  4  13   1  14   1  15  -1  16  -1
M  END
> <FRED Chemgauss4 score>
-8.197434

$$$$
C35798415	P53128470
  -OEChem-05182014473D

 38 38  0     0  0  0  0  0  0999 V2000
  119.2156  104.5508  101.5389 C   0  0  0  0  0  0  0  0  0  0  0  0
  117.1439  105.4486  102.3986 C   0  0  0  0  0  0  0  0  0  0  0  0
  119.7700  104.6055  102.8176 C   0  0  0  0  0  0  0  0  0  0  0  0
  117.6983  105.5033  103.6774 C   0  0  0  0  0  0  0  0  0  0  0  0
  117.9025  104.9724  101.3293 C   0  0  0  0  0  0  0  0  0  0  0  0
  119.0113  105.0817  103.8869 C   0  0  0  0  0  0  0  0  0  0  0  0
  117.3233  104.9153   99.9965 C   0  0  0  0  0  0  0  0  0  0  0  0
  126.2783  105.0846  108.9480 C   0  0  0  0  0  0  0  0  0  0  0  0
  119.6067  105.1392  105.2599 C   0  0  0  0  0  0  0  0  0  0  0  0
  122.8857  105.3775  108.5161 C   0  0  0  0  0  0  0  0  0  0  0  0
  121.8613  105.1456  107.4182 C   0  0  0  0  0  0  0  0  0  0  0  0
  117.9429  105.6459   99.0081 N   0  0  0  0  0  0  0  0  0  0  0  0
  124.0129  106.2097  108.0583 N   0  0  0  0  0  0  0  0  0  0  0  0
  121.3127  106.3795  106.9240 N   0  0  0  0  0  0  0  0  0  0  0  0
  126.2011  106.4096  106.6922 O   0  0  0  0  0  0  0  0  0  0  0  0
  125.0232  104.1857  106.8452 O   0  0  0  0  0  0  0  0  0  0  0  0
  121.8522  106.1712  104.3981 O   0  0  0  0  0  0  0  0  0  0  0  0
  119.9963  107.7151  105.1250 O   0  0  0  0  0  0  0  0  0  0  0  0
  115.9740  103.9789   99.6670 S   0  0  0  0  0  0  0  0  0  0  0  0
  125.4112  105.4505  107.4394 S   0  0  0  0  0  0  0  0  0  0  0  0
  120.7589  106.4931  105.2942 S   0  0  0  0  0  0  0  0  0  0  0  0
  119.8151  104.1780  100.7125 H   0  0  0  0  0  0  0  0  0  0  0  0
  116.1198  105.7798  102.2471 H   0  0  0  0  0  0  0  0  0  0  0  0
  120.7936  104.2747  102.9718 H   0  0  0  0  0  0  0  0  0  0  0  0
  117.0998  105.8753  104.5049 H   0  0  0  0  0  0  0  0  0  0  0  0
  127.2148  104.5851  108.6946 H   0  0  0  0  0  0  0  0  0  0  0  0
  126.4743  106.0231  109.4689 H   0  0  0  0  0  0  0  0  0  0  0  0
  125.6499  104.4330  109.5570 H   0  0  0  0  0  0  0  0  0  0  0  0
  120.1495  104.2233  105.5099 H   0  0  0  0  0  0  0  0  0  0  0  0
  118.8488  105.3173  106.0280 H   0  0  0  0  0  0  0  0  0  0  0  0
  123.3029  104.4329  108.8791 H   0  0  0  0  0  0  0  0  0  0  0  0
  122.4221  105.9002  109.3585 H   0  0  0  0  0  0  0  0  0  0  0  0
  122.3260  104.6373  106.5677 H   0  0  0  0  0  0  0  0  0  0  0  0
  121.0265  104.5336  107.7745 H   0  0  0  0  0  0  0  0  0  0  0  0
  118.7672  106.2123   99.1816 H   0  0  0  0  0  0  0  0  0  0  0  0
  117.5829  105.6507   98.0595 H   0  0  0  0  0  0  0  0  0  0  0  0
  124.1547  107.0628  108.6147 H   0  0  0  0  0  0  0  0  0  0  0  0
  120.7568  106.9353  107.6102 H   0  0  0  0  0  0  0  0  0  0  0  0
  1  3  2  0  0  0  0
  1  5  1  0  0  0  0
  2  4  1  0  0  0  0
  2  5  2  0  0  0  0
  3  6  1  0  0  0  0
  4  6  2  0  0  0  0
  5  7  1  0  0  0  0
  6  9  1  0  0  0  0
  7 12  1  0  0  0  0
  7 19  2  0  0  0  0
  8 20  1  0  0  0  0
  9 21  1  0  0  0  0
 10 11  1  0  0  0  0
 10 13  1  0  0  0  0
 11 14  1  0  0  0  0
 13 20  1  0  0  0  0
 14 21  1  0  0  0  0
 15 20  2  0  0  0  0
 16 20  2  0  0  0  0
 17 21  2  0  0  0  0
 18 21  2  0  0  0  0
  1 22  1  0  0  0  0
  2 23  1  0  0  0  0
  3 24  1  0  0  0  0
  4 25  1  0  0  0  0
  8 26  1  0  0  0  0
  8 27  1  0  0  0  0
  8 28  1  0  0  0  0
  9 29  1  0  0  0  0
  9 30  1  0  0  0  0
 10 31  1  0  0  0  0
 10 32  1  0  0  0  0
 11 33  1  0  0  0  0
 11 34  1  0  0  0  0
 12 35  1  0  0  0  0
 12 36  1  0  0  0  0
 13 37  1  0  0  0  0
 14 38  1  0  0  0  0
M  END
> <FRED Chemgauss4 score>
-8.183124

$$$$
C82515853	P128952133
  -OEChem-05182014473D

 28 29  0     1  0  0  0  0  0999 V2000
  122.5315  106.4572  105.3574 C   0  0  0  0  0  0  0  0  0  0  0  0
  124.4352  107.2779  105.6020 C   0  0  0  0  0  0  0  0  0  0  0  0
  116.2321  104.4146  105.1401 C   0  0  0  0  0  0  0  0  0  0  0  0
  121.1569  106.2375  104.8386 C   0  0  0  0  0  0  0  0  0  0  0  0
  117.2061  103.2643  105.3009 C   0  0  0  0  0  0  0  0  0  0  0  0
  118.5791  103.6664  105.8157 C   0  0  0  0  0  0  0  0  0  0  0  0
  118.1636  106.0217  105.1795 C   0  0  0  0  0  0  0  0  0  0  0  0
  119.1131  104.8450  105.0095 C   0  0  1  0  0  0  0  0  0  0  0  0
  123.3495  107.4421  104.8824 N   0  0  0  0  0  0  0  0  0  0  0  0
  123.0428  105.6940  106.3257 N   0  0  0  0  0  0  0  0  0  0  0  0
  124.2607  106.2398  106.4632 N   0  0  0  0  0  0  0  0  0  0  0  0
  116.7734  105.6680  104.9615 N   0  0  0  0  0  0  0  0  0  0  0  0
  125.6063  107.9479  105.6012 N   0  0  0  0  0  0  0  0  0  0  0  0
  120.4488  105.1978  105.4215 N   0  0  0  0  0  0  0  0  0  0  0  0
  115.0184  104.2063  105.0923 O   0  0  0  0  0  0  0  0  0  0  0  0
  120.7361  106.9524  103.9328 O   0  0  0  0  0  0  0  0  0  0  0  0
  116.7437  102.5467  105.9871 H   0  0  0  0  0  0  0  0  0  0  0  0
  117.3147  102.7700  104.3302 H   0  0  0  0  0  0  0  0  0  0  0  0
  118.5134  103.9202  106.8739 H   0  0  0  0  0  0  0  0  0  0  0  0
  119.2640  102.8225  105.7160 H   0  0  0  0  0  0  0  0  0  0  0  0
  118.2393  106.4611  106.1783 H   0  0  0  0  0  0  0  0  0  0  0  0
  118.3983  106.8017  104.4482 H   0  0  0  0  0  0  0  0  0  0  0  0
  119.1792  104.5797  103.9577 H   0  0  0  0  0  0  0  0  0  0  0  0
  124.9017  105.8586  107.1489 H   0  0  0  0  0  0  0  0  0  0  0  0
  116.1484  106.4042  104.6521 H   0  0  0  0  0  0  0  0  0  0  0  0
  125.8021  108.7104  104.9352 H   0  0  0  0  0  0  0  0  0  0  0  0
  126.3977  107.6705  106.2013 H   0  0  0  0  0  0  0  0  0  0  0  0
  120.8872  104.6094  106.1233 H   0  0  0  0  0  0  0  0  0  0  0  0
  1  4  1  0  0  0  0
  1  9  1  0  0  0  0
  1 10  2  0  0  0  0
  2  9  2  0  0  0  0
  2 11  1  0  0  0  0
  2 13  1  0  0  0  0
  3  5  1  0  0  0  0
  3 12  1  0  0  0  0
  3 15  2  0  0  0  0
  4 14  1  0  0  0  0
  4 16  2  0  0  0  0
  5  6  1  0  0  0  0
  6  8  1  0  0  0  0
  7  8  1  0  0  0  0
  7 12  1  0  0  0  0
  8 14  1  0  0  0  0
 10 11  1  0  0  0  0
  5 17  1  0  0  0  0
  5 18  1  0  0  0  0
  6 19  1  0  0  0  0
  6 20  1  0  0  0  0
  7 21  1  0  0  0  0
  7 22  1  0  0  0  0
  8 23  1  0  0  0  0
 11 24  1  0  0  0  0
 12 25  1  0  0  0  0
 13 26  1  0  0  0  0
 13 27  1  0  0  0  0
 14 28  1  0  0  0  0
M  END
> <FRED Chemgauss4 score>
-8.177215

$$$$
C85275828	P133443055
  -OEChem-05182014473D

 23 23  0     1  0  0  0  0  0999 V2000
  123.0806  105.2944  106.6839 C   0  0  0  0  0  0  0  0  0  0  0  0
  121.7548  104.9136  106.6477 C   0  0  0  0  0  0  0  0  0  0  0  0
  121.2320  106.6784  105.3139 C   0  0  0  0  0  0  0  0  0  0  0  0
  123.3945  106.4329  105.9699 C   0  0  0  0  0  0  0  0  0  0  0  0
  125.8541  106.2173  108.2084 C   0  0  0  0  0  0  0  0  0  0  0  0
  124.8225  106.9290  105.9496 C   0  0  2  0  0  0  0  0  0  0  0  0
  125.3516  107.3701  107.3312 C   0  0  2  0  0  0  0  0  0  0  0  0
  120.8003  105.5847  105.9703 N   0  0  0  0  0  0  0  0  0  0  0  0
  122.4919  107.1520  105.2709 N   0  0  0  0  0  0  0  0  0  0  0  0
  126.4151  108.3414  107.1576 N   0  0  0  0  0  0  0  0  0  0  0  0
  126.3343  106.6843  109.4626 O   0  0  0  0  0  0  0  0  0  0  0  0
  124.8680  108.0387  105.0466 O   0  0  0  0  0  0  0  0  0  0  0  0
  123.8190  104.7301  107.2388 H   0  0  0  0  0  0  0  0  0  0  0  0
  121.4125  104.0316  107.1786 H   0  0  0  0  0  0  0  0  0  0  0  0
  120.4859  107.2362  104.7613 H   0  0  0  0  0  0  0  0  0  0  0  0
  126.6767  105.6877  107.7177 H   0  0  0  0  0  0  0  0  0  0  0  0
  125.0599  105.4862  108.3964 H   0  0  0  0  0  0  0  0  0  0  0  0
  125.4790  106.1596  105.5240 H   0  0  0  0  0  0  0  0  0  0  0  0
  124.5699  107.9101  107.8791 H   0  0  0  0  0  0  0  0  0  0  0  0
  127.0652  108.4786  107.9069 H   0  0  0  0  0  0  0  0  0  0  0  0
  126.3546  108.9858  106.3931 H   0  0  0  0  0  0  0  0  0  0  0  0
  126.6320  105.9033  109.9563 H   0  0  0  0  0  0  0  0  0  0  0  0
  124.5875  107.6976  104.1853 H   0  0  0  0  0  0  0  0  0  0  0  0
  1  2  1  0  0  0  0
  1  4  2  0  0  0  0
  2  8  2  0  0  0  0
  3  8  1  0  0  0  0
  3  9  2  0  0  0  0
  4  6  1  0  0  0  0
  4  9  1  0  0  0  0
  5  7  1  0  0  0  0
  5 11  1  0  0  0  0
  6  7  1  0  0  0  0
  6 12  1  0  0  0  0
  7 10  1  0  0  0  0
  1 13  1  0  0  0  0
  2 14  1  0  0  0  0
  3 15  1  0  0  0  0
  5 16  1  0  0  0  0
  5 17  1  0  0  0  0
  6 18  1  0  0  0  0
  7 19  1  0  0  0  0
 10 20  1  0  0  0  0
 10 21  1  0  0  0  0
 11 22  1  0  0  0  0
 12 23  1  0  0  0  0
M  END
> <FRED Chemgauss4 score>
-8.161356

$$$$
C51924279	P77771538
  -OEChem-05182014473D

 25 26  0     0  0  0  0  0  0999 V2000
  120.4802  104.9378  100.6209 C   0  0  0  0  0  0  0  0  0  0  0  0
  119.3490  104.5784  101.3151 C   0  0  0  0  0  0  0  0  0  0  0  0
  123.4198  106.3810  106.1031 C   0  0  0  0  0  0  0  0  0  0  0  0
  120.7995  105.6087  102.6155 C   0  0  0  0  0  0  0  0  0  0  0  0
  118.6547  104.8664  103.6996 C   0  0  0  0  0  0  0  0  0  0  0  0
  122.0439  105.7978  106.2365 C   0  0  0  0  0  0  0  0  0  0  0  0
  121.3736  106.2078  103.8655 C   0  0  0  0  0  0  0  0  0  0  0  0
  124.4754  105.9474  106.8179 N   0  5  0  0  0  0  0  0  0  0  0  0
  121.3794  105.5785  101.4361 N   0  0  0  0  0  0  0  0  0  0  0  0
  123.7142  107.3866  105.2574 N   0  0  0  0  0  0  0  0  0  0  0  0
  125.4972  106.7321  106.3927 N   0  0  0  0  0  0  0  0  0  0  0  0
  125.0399  107.5968  105.4552 N   0  0  0  0  0  0  0  0  0  0  0  0
  119.5685  105.0144  102.5914 N   0  0  0  0  0  0  0  0  0  0  0  0
  121.5302  105.2203  104.9662 N   0  3  0  0  0  0  0  0  0  0  0  0
  120.6929  104.7677   99.5756 H   0  0  0  0  0  0  0  0  0  0  0  0
  118.4418  104.0691  101.0214 H   0  0  0  0  0  0  0  0  0  0  0  0
  118.8769  103.9180  104.1957 H   0  0  0  0  0  0  0  0  0  0  0  0
  118.7862  105.7011  104.3938 H   0  0  0  0  0  0  0  0  0  0  0  0
  117.6276  104.8713  103.3241 H   0  0  0  0  0  0  0  0  0  0  0  0
  122.0255  104.9922  106.9783 H   0  0  0  0  0  0  0  0  0  0  0  0
  121.3209  106.5580  106.5514 H   0  0  0  0  0  0  0  0  0  0  0  0
  122.3658  106.6333  103.6812 H   0  0  0  0  0  0  0  0  0  0  0  0
  120.7332  107.0088  104.2504 H   0  0  0  0  0  0  0  0  0  0  0  0
  122.1624  104.4691  104.6574 H   0  0  0  0  0  0  0  0  0  0  0  0
  120.6233  104.7673  105.1443 H   0  0  0  0  0  0  0  0  0  0  0  0
  1  2  2  0  0  0  0
  1  9  1  0  0  0  0
  2 13  1  0  0  0  0
  3  6  1  0  0  0  0
  3  8  1  0  0  0  0
  3 10  2  0  0  0  0
  4  7  1  0  0  0  0
  4  9  2  0  0  0  0
  4 13  1  0  0  0  0
  5 13  1  0  0  0  0
  6 14  1  0  0  0  0
  7 14  1  0  0  0  0
  8 11  1  0  0  0  0
 10 12  1  0  0  0  0
 11 12  2  0  0  0  0
  1 15  1  0  0  0  0
  2 16  1  0  0  0  0
  5 17  1  0  0  0  0
  5 18  1  0  0  0  0
  5 19  1  0  0  0  0
  6 20  1  0  0  0  0
  6 21  1  0  0  0  0
  7 22  1  0  0  0  0
  7 23  1  0  0  0  0
 14 24  1  0  0  0  0
 14 25  1  0  0  0  0
M  CHG  2   8  -1  14   1
M  END
> <FRED Chemgauss4 score>
-8.159302

$$$$
C40509678	P61509681
  -OEChem-05182014473D

 40 42  0     0  0  0  0  0  0999 V2000
  119.4902  104.2517  106.1253 C   0  0  0  0  0  0  0  0  0  0  0  0
  120.6582  104.9340  106.4726 C   0  0  0  0  0  0  0  0  0  0  0  0
  120.9386  105.7129  104.1842 C   0  0  0  0  0  0  0  0  0  0  0  0
  125.1605  104.2359  108.2401 C   0  0  0  0  0  0  0  0  0  0  0  0
  119.0561  104.3209  104.8122 C   0  0  0  0  0  0  0  0  0  0  0  0
  119.7731  105.0438  103.8515 C   0  0  0  0  0  0  0  0  0  0  0  0
  125.4764  105.5358  107.8611 C   0  0  0  0  0  0  0  0  0  0  0  0
  124.5956  106.2539  107.0600 C   0  0  0  0  0  0  0  0  0  0  0  0
  121.3771  105.6595  105.5092 C   0  0  0  0  0  0  0  0  0  0  0  0
  123.9610  103.7039  107.7951 C   0  0  0  0  0  0  0  0  0  0  0  0
  123.4214  105.6316  106.6676 C   0  0  0  0  0  0  0  0  0  0  0  0
  117.8680  103.6509  104.1977 C   0  0  0  0  0  0  0  0  0  0  0  0
  119.1317  104.9231  102.5054 C   0  0  0  0  0  0  0  0  0  0  0  0
  117.7240  104.4427  102.8891 C   0  0  0  0  0  0  0  0  0  0  0  0
  126.7620  106.1369  108.3241 C   0  0  0  0  0  0  0  0  0  0  0  0
  123.5893  102.3114  108.1816 C   0  0  0  0  0  0  0  0  0  0  0  0
  124.9047  107.6498  106.6346 C   0  0  0  0  0  0  0  0  0  0  0  0
  123.0802  104.3707  107.0158 N   0  0  0  0  0  0  0  0  0  0  0  0
  125.3189  107.7233  105.2566 N   0  0  0  0  0  0  0  0  0  0  0  0
  122.5178  106.3117  105.8698 O   0  0  0  0  0  0  0  0  0  0  0  0
  118.9426  103.6828  106.8689 H   0  0  0  0  0  0  0  0  0  0  0  0
  121.0141  104.8955  107.4992 H   0  0  0  0  0  0  0  0  0  0  0  0
  121.4976  106.2629  103.4341 H   0  0  0  0  0  0  0  0  0  0  0  0
  125.8333  103.6568  108.8645 H   0  0  0  0  0  0  0  0  0  0  0  0
  118.0893  102.5970  104.0005 H   0  0  0  0  0  0  0  0  0  0  0  0
  116.9702  103.7366  104.8161 H   0  0  0  0  0  0  0  0  0  0  0  0
  119.0965  105.8762  101.9705 H   0  0  0  0  0  0  0  0  0  0  0  0
  119.6567  104.1737  101.9042 H   0  0  0  0  0  0  0  0  0  0  0  0
  117.2523  103.8553  102.0951 H   0  0  0  0  0  0  0  0  0  0  0  0
  117.0829  105.3175  103.0674 H   0  0  0  0  0  0  0  0  0  0  0  0
  127.5604  105.9306  107.6016 H   0  0  0  0  0  0  0  0  0  0  0  0
  126.6718  107.2238  108.4438 H   0  0  0  0  0  0  0  0  0  0  0  0
  127.0607  105.7325  109.2995 H   0  0  0  0  0  0  0  0  0  0  0  0
  123.0233  102.3148  109.1208 H   0  0  0  0  0  0  0  0  0  0  0  0
  122.9761  101.8339  107.4068 H   0  0  0  0  0  0  0  0  0  0  0  0
  124.4803  101.6842  108.3137 H   0  0  0  0  0  0  0  0  0  0  0  0
  124.0282  108.3024  106.7510 H   0  0  0  0  0  0  0  0  0  0  0  0
  125.7088  108.0872  107.2421 H   0  0  0  0  0  0  0  0  0  0  0  0
  125.9079  108.4846  104.9633 H   0  0  0  0  0  0  0  0  0  0  0  0
  124.8575  107.1428  104.5762 H   0  0  0  0  0  0  0  0  0  0  0  0
  1  2  2  0  0  0  0
  1  5  1  0  0  0  0
  2  9  1  0  0  0  0
  3  6  1  0  0  0  0
  3  9  2  0  0  0  0
  4  7  1  0  0  0  0
  4 10  2  0  0  0  0
  5  6  2  0  0  0  0
  5 12  1  0  0  0  0
  6 13  1  0  0  0  0
  7  8  2  0  0  0  0
  7 15  1  0  0  0  0
  8 11  1  0  0  0  0
  8 17  1  0  0  0  0
  9 20  1  0  0  0  0
 10 16  1  0  0  0  0
 10 18  1  0  0  0  0
 11 18  2  0  0  0  0
 11 20  1  0  0  0  0
 12 14  1  0  0  0  0
 13 14  1  0  0  0  0
 17 19  1  0  0  0  0
  1 21  1  0  0  0  0
  2 22  1  0  0  0  0
  3 23  1  0  0  0  0
  4 24  1  0  0  0  0
 12 25  1  0  0  0  0
 12 26  1  0  0  0  0
 13 27  1  0  0  0  0
 13 28  1  0  0  0  0
 14 29  1  0  0  0  0
 14 30  1  0  0  0  0
 15 31  1  0  0  0  0
 15 32  1  0  0  0  0
 15 33  1  0  0  0  0
 16 34  1  0  0  0  0
 16 35  1  0  0  0  0
 16 36  1  0  0  0  0
 17 37  1  0  0  0  0
 17 38  1  0  0  0  0
 19 39  1  0  0  0  0
 19 40  1  0  0  0  0
M  END
> <FRED Chemgauss4 score>
-8.155812

$$$$
C67822127	P104135382
  -OEChem-05182014473D

 48 50  0     1  0  0  0  0  0999 V2000
  120.7403  105.8918  103.9402 C   0  0  0  0  0  0  0  0  0  0  0  0
  121.5040  106.6981  105.8178 C   0  0  0  0  0  0  0  0  0  0  0  0
  124.3435  106.7798  106.7661 C   0  0  0  0  0  0  0  0  0  0  0  0
  120.1534  104.9406  102.9640 C   0  0  0  0  0  0  0  0  0  0  0  0
  125.7467  105.4553  108.4546 C   0  0  0  0  0  0  0  0  0  0  0  0
  125.5773  104.5858  107.2439 C   0  0  0  0  0  0  0  0  0  0  0  0
  120.6900  104.3248  105.9015 C   0  0  0  0  0  0  0  0  0  0  0  0
  118.7962  104.3952  103.4113 C   0  0  0  0  0  0  0  0  0  0  0  0
  119.2309  103.8889  105.7746 C   0  0  0  0  0  0  0  0  0  0  0  0
  125.6169  106.0751  107.0982 C   0  0  0  0  0  0  0  0  0  0  0  0
  121.4323  107.4731  110.1834 C   0  0  0  0  0  0  0  0  0  0  0  0
  122.2972  109.7896  109.8061 C   0  0  0  0  0  0  0  0  0  0  0  0
  121.8495  108.2402  107.8266 C   0  0  0  0  0  0  0  0  0  0  0  0
  121.9016  106.8026  107.2340 C   0  0  2  0  0  0  0  0  0  0  0  0
  122.3183  108.3492  109.2927 C   0  0  0  0  0  0  0  0  0  0  0  0
  121.1203  107.1354  103.7235 N   0  0  0  0  0  0  0  0  0  0  0  0
  121.6035  107.6444  104.9120 N   0  0  0  0  0  0  0  0  0  0  0  0
  120.9700  105.5838  105.2519 N   0  0  0  0  0  0  0  0  0  0  0  0
  118.8880  103.3638  104.4496 N   0  0  0  0  0  0  0  0  0  0  0  0
  126.7442  106.7453  106.4573 N   0  0  0  0  0  0  0  0  0  0  0  0
  123.2469  106.2632  107.4123 N   0  0  0  0  0  0  0  0  0  0  0  0
  124.3610  107.7220  105.9828 O   0  0  0  0  0  0  0  0  0  0  0  0
  120.0195  105.4638  102.0091 H   0  0  0  0  0  0  0  0  0  0  0  0
  120.8559  104.1206  102.7707 H   0  0  0  0  0  0  0  0  0  0  0  0
  124.9068  105.5393  109.1341 H   0  0  0  0  0  0  0  0  0  0  0  0
  126.7126  105.4495  108.9460 H   0  0  0  0  0  0  0  0  0  0  0  0
  126.4299  103.9972  106.9260 H   0  0  0  0  0  0  0  0  0  0  0  0
  124.6242  104.0867  107.1139 H   0  0  0  0  0  0  0  0  0  0  0  0
  120.9402  104.4192  106.9634 H   0  0  0  0  0  0  0  0  0  0  0  0
  121.3715  103.5787  105.4754 H   0  0  0  0  0  0  0  0  0  0  0  0
  118.1214  105.2023  103.7230 H   0  0  0  0  0  0  0  0  0  0  0  0
  118.3311  103.9223  102.5378 H   0  0  0  0  0  0  0  0  0  0  0  0
  119.0695  103.0736  106.4901 H   0  0  0  0  0  0  0  0  0  0  0  0
  118.5455  104.6959  106.0621 H   0  0  0  0  0  0  0  0  0  0  0  0
  120.3896  107.8054  110.1425 H   0  0  0  0  0  0  0  0  0  0  0  0
  121.7571  107.5262  111.2279 H   0  0  0  0  0  0  0  0  0  0  0  0
  121.4663  106.4241  109.8700 H   0  0  0  0  0  0  0  0  0  0  0  0
  121.2910  110.2180  109.7448 H   0  0  0  0  0  0  0  0  0  0  0  0
  122.9753  110.4289  109.2336 H   0  0  0  0  0  0  0  0  0  0  0  0
  122.6189  109.8331  110.8523 H   0  0  0  0  0  0  0  0  0  0  0  0
  120.8207  108.6185  107.7537 H   0  0  0  0  0  0  0  0  0  0  0  0
  122.4534  108.9204  107.2095 H   0  0  0  0  0  0  0  0  0  0  0  0
  121.2836  106.1561  107.8923 H   0  0  0  0  0  0  0  0  0  0  0  0
  123.3435  107.9690  109.3755 H   0  0  0  0  0  0  0  0  0  0  0  0
  117.9802  102.9023  104.5182 H   0  0  0  0  0  0  0  0  0  0  0  0
  127.1405  107.5383  106.9138 H   0  0  0  0  0  0  0  0  0  0  0  0
  126.9447  106.5213  105.5063 H   0  0  0  0  0  0  0  0  0  0  0  0
  123.3760  105.4800  108.0348 H   0  0  0  0  0  0  0  0  0  0  0  0
  1  4  1  0  0  0  0
  1 16  2  0  0  0  0
  1 18  1  0  0  0  0
  2 14  1  0  0  0  0
  2 17  2  0  0  0  0
  2 18  1  0  0  0  0
  3 10  1  0  0  0  0
  3 21  1  0  0  0  0
  3 22  2  0  0  0  0
  4  8  1  0  0  0  0
  5  6  1  0  0  0  0
  5 10  1  0  0  0  0
  6 10  1  0  0  0  0
  7  9  1  0  0  0  0
  7 18  1  0  0  0  0
  8 19  1  0  0  0  0
  9 19  1  0  0  0  0
 10 20  1  0  0  0  0
 11 15  1  0  0  0  0
 12 15  1  0  0  0  0
 13 14  1  0  0  0  0
 13 15  1  0  0  0  0
 14 21  1  0  0  0  0
 16 17  1  0  0  0  0
  4 23  1  0  0  0  0
  4 24  1  0  0  0  0
  5 25  1  0  0  0  0
  5 26  1  0  0  0  0
  6 27  1  0  0  0  0
  6 28  1  0  0  0  0
  7 29  1  0  0  0  0
  7 30  1  0  0  0  0
  8 31  1  0  0  0  0
  8 32  1  0  0  0  0
  9 33  1  0  0  0  0
  9 34  1  0  0  0  0
 11 35  1  0  0  0  0
 11 36  1  0  0  0  0
 11 37  1  0  0  0  0
 12 38  1  0  0  0  0
 12 39  1  0  0  0  0
 12 40  1  0  0  0  0
 13 41  1  0  0  0  0
 13 42  1  0  0  0  0
 14 43  1  0  0  0  0
 15 44  1  0  0  0  0
 19 45  1  0  0  0  0
 20 46  1  0  0  0  0
 20 47  1  0  0  0  0
 21 48  1  0  0  0  0
M  END
> <FRED Chemgauss4 score>
-8.151364

$$$$
C83804931	P131109815
  -OEChem-05182014473D

 29 30  0     1  0  0  0  0  0999 V2000
  121.6592  105.6916  104.4914 C   0  0  0  0  0  0  0  0  0  0  0  0
  123.0406  106.7964  105.5641 C   0  0  0  0  0  0  0  0  0  0  0  0
  120.4102  103.8656  103.0841 C   0  0  0  0  0  0  0  0  0  0  0  0
  120.6399  105.3184  103.4405 C   0  0  2  0  0  0  0  0  0  0  0  0
  121.0967  104.7702  102.1046 C   0  0  2  0  0  0  0  0  0  0  0  0
  120.4039  105.1823  100.8517 C   0  0  0  0  0  0  0  0  0  0  0  0
  125.2264  107.1623  106.8358 C   0  0  0  0  0  0  0  0  0  0  0  0
  124.9452  106.6530  108.2457 C   0  0  0  0  0  0  0  0  0  0  0  0
  123.9997  107.8020  106.1658 C   0  0  1  0  0  0  0  0  0  0  0  0
  122.2591  106.9168  104.5209 N   0  0  0  0  0  0  0  0  0  0  0  0
  122.0300  104.8400  105.4522 N   0  0  0  0  0  0  0  0  0  0  0  0
  124.4297  108.7530  105.1632 N   0  0  0  0  0  0  0  0  0  0  0  0
  122.9655  105.5870  106.1791 O   0  0  0  0  0  0  0  0  0  0  0  0
  126.1426  106.1022  108.7792 O   0  0  0  0  0  0  0  0  0  0  0  0
  121.0121  103.1100  103.5759 H   0  0  0  0  0  0  0  0  0  0  0  0
  119.3942  103.5509  102.8742 H   0  0  0  0  0  0  0  0  0  0  0  0
  119.7409  105.9594  103.4251 H   0  0  0  0  0  0  0  0  0  0  0  0
  122.1582  104.6207  101.9448 H   0  0  0  0  0  0  0  0  0  0  0  0
  119.3247  105.3340  101.0152 H   0  0  0  0  0  0  0  0  0  0  0  0
  120.5102  104.4232  100.0601 H   0  0  0  0  0  0  0  0  0  0  0  0
  120.8097  106.1268  100.4548 H   0  0  0  0  0  0  0  0  0  0  0  0
  125.5775  106.3192  106.2247 H   0  0  0  0  0  0  0  0  0  0  0  0
  126.0747  107.8589  106.8623 H   0  0  0  0  0  0  0  0  0  0  0  0
  124.6184  107.4621  108.9055 H   0  0  0  0  0  0  0  0  0  0  0  0
  124.1797  105.8707  108.2321 H   0  0  0  0  0  0  0  0  0  0  0  0
  123.4734  108.4018  106.9190 H   0  0  0  0  0  0  0  0  0  0  0  0
  125.2805  109.2622  105.3150 H   0  0  0  0  0  0  0  0  0  0  0  0
  123.7794  109.0298  104.4511 H   0  0  0  0  0  0  0  0  0  0  0  0
  125.9318  105.7882  109.6732 H   0  0  0  0  0  0  0  0  0  0  0  0
  1  4  1  0  0  0  0
  1 10  1  0  0  0  0
  1 11  2  0  0  0  0
  2  9  1  0  0  0  0
  2 10  2  0  0  0  0
  2 13  1  0  0  0  0
  3  4  1  0  0  0  0
  3  5  1  0  0  0  0
  4  5  1  0  0  0  0
  5  6  1  0  0  0  0
  7  8  1  0  0  0  0
  7  9  1  0  0  0  0
  8 14  1  0  0  0  0
  9 12  1  0  0  0  0
 11 13  1  0  0  0  0
  3 15  1  0  0  0  0
  3 16  1  0  0  0  0
  4 17  1  0  0  0  0
  5 18  1  0  0  0  0
  6 19  1  0  0  0  0
  6 20  1  0  0  0  0
  6 21  1  0  0  0  0
  7 22  1  0  0  0  0
  7 23  1  0  0  0  0
  8 24  1  0  0  0  0
  8 25  1  0  0  0  0
  9 26  1  0  0  0  0
 12 27  1  0  0  0  0
 12 28  1  0  0  0  0
 14 29  1  0  0  0  0
M  END
> <FRED Chemgauss4 score>
-8.150052

$$$$
C54435940	P81924864
  -OEChem-05182014473D

 31 31  0     1  0  0  0  0  0999 V2000
  121.5856  105.1360  106.1313 C   0  0  0  0  0  0  0  0  0  0  0  0
  123.2464  106.3952  105.8628 C   0  0  0  0  0  0  0  0  0  0  0  0
  115.5005  105.1212  103.8182 C   0  0  0  0  0  0  0  0  0  0  0  0
  125.5923  105.8702  106.6574 C   0  0  0  0  0  0  0  0  0  0  0  0
  120.7883  104.0257  106.7540 C   0  0  0  0  0  0  0  0  0  0  0  0
  116.9845  104.8243  103.9371 C   0  0  0  0  0  0  0  0  0  0  0  0
  119.2885  104.3063  106.7613 C   0  0  0  0  0  0  0  0  0  0  0  0
  117.4217  104.6979  105.3884 C   0  0  0  0  0  0  0  0  0  0  0  0
  124.5921  106.9207  106.1249 C   0  0  1  0  0  0  0  0  0  0  0  0
  121.2634  105.9528  105.1557 N   0  0  0  0  0  0  0  0  0  0  0  0
  122.3561  106.7810  104.9789 N   0  0  0  0  0  0  0  0  0  0  0  0
  125.2035  107.5548  104.9580 N   0  0  0  0  0  0  0  0  0  0  0  0
  122.8316  105.3534  106.6343 O   0  0  0  0  0  0  0  0  0  0  0  0
  118.8176  104.4354  105.4264 O   0  0  0  0  0  0  0  0  0  0  0  0
  114.9046  104.3413  104.3028 H   0  0  0  0  0  0  0  0  0  0  0  0
  115.2646  106.0761  104.2982 H   0  0  0  0  0  0  0  0  0  0  0  0
  115.1960  105.1843  102.7687 H   0  0  0  0  0  0  0  0  0  0  0  0
  125.6706  105.0321  105.9563 H   0  0  0  0  0  0  0  0  0  0  0  0
  126.5948  106.2904  106.7972 H   0  0  0  0  0  0  0  0  0  0  0  0
  125.2727  105.4713  107.6266 H   0  0  0  0  0  0  0  0  0  0  0  0
  120.9849  103.0877  106.2191 H   0  0  0  0  0  0  0  0  0  0  0  0
  121.1286  103.8755  107.7864 H   0  0  0  0  0  0  0  0  0  0  0  0
  117.5630  105.6160  103.4462 H   0  0  0  0  0  0  0  0  0  0  0  0
  117.2235  103.8992  103.3990 H   0  0  0  0  0  0  0  0  0  0  0  0
  118.7573  103.4684  107.2243 H   0  0  0  0  0  0  0  0  0  0  0  0
  119.0479  105.2224  107.3107 H   0  0  0  0  0  0  0  0  0  0  0  0
  117.2264  105.6246  105.9377 H   0  0  0  0  0  0  0  0  0  0  0  0
  116.8986  103.8736  105.8837 H   0  0  0  0  0  0  0  0  0  0  0  0
  124.5686  107.7324  106.8855 H   0  0  0  0  0  0  0  0  0  0  0  0
  126.1977  107.6036  104.9198 H   0  0  0  0  0  0  0  0  0  0  0  0
  124.6166  108.0876  104.3545 H   0  0  0  0  0  0  0  0  0  0  0  0
  1  5  1  0  0  0  0
  1 10  2  0  0  0  0
  1 13  1  0  0  0  0
  2  9  1  0  0  0  0
  2 11  2  0  0  0  0
  2 13  1  0  0  0  0
  3  6  1  0  0  0  0
  4  9  1  0  0  0  0
  5  7  1  0  0  0  0
  6  8  1  0  0  0  0
  7 14  1  0  0  0  0
  8 14  1  0  0  0  0
  9 12  1  0  0  0  0
 10 11  1  0  0  0  0
  3 15  1  0  0  0  0
  3 16  1  0  0  0  0
  3 17  1  0  0  0  0
  4 18  1  0  0  0  0
  4 19  1  0  0  0  0
  4 20  1  0  0  0  0
  5 21  1  0  0  0  0
  5 22  1  0  0  0  0
  6 23  1  0  0  0  0
  6 24  1  0  0  0  0
  7 25  1  0  0  0  0
  7 26  1  0  0  0  0
  8 27  1  0  0  0  0
  8 28  1  0  0  0  0
  9 29  1  0  0  0  0
 12 30  1  0  0  0  0
 12 31  1  0  0  0  0
M  END
> <FRED Chemgauss4 score>
-8.146042

$$$$
C95836526	P150813888
  -OEChem-05182014473D

 27 27  0     1  0  0  0  0  0999 V2000
  122.9581  104.5238  106.7446 C   0  0  0  0  0  0  0  0  0  0  0  0
  121.8632  104.5748  105.8890 C   0  0  0  0  0  0  0  0  0  0  0  0
  123.5824  106.6913  105.9904 C   0  0  0  0  0  0  0  0  0  0  0  0
  123.8389  105.5982  106.8022 C   0  0  0  0  0  0  0  0  0  0  0  0
  121.6951  105.7138  105.1183 C   0  0  0  0  0  0  0  0  0  0  0  0
  119.5388  104.8213  102.3680 C   0  0  0  0  0  0  0  0  0  0  0  0
  120.1478  104.5598  103.7290 C   0  0  0  0  0  0  0  0  0  0  0  0
  125.1400  104.2700  108.5193 C   0  0  0  0  0  0  0  0  0  0  0  0
  125.0190  105.5742  107.7070 C   0  0  1  0  0  0  0  0  0  0  0  0
  122.5294  106.7772  105.1469 N   0  0  0  0  0  0  0  0  0  0  0  0
  126.2596  105.8151  106.9822 N   0  0  0  0  0  0  0  0  0  0  0  0
  126.2706  104.3340  109.3826 O   0  0  0  0  0  0  0  0  0  0  0  0
  120.6235  105.7877  104.2674 O   0  0  0  0  0  0  0  0  0  0  0  0
  123.1173  103.6442  107.3621 H   0  0  0  0  0  0  0  0  0  0  0  0
  121.1671  103.7450  105.8326 H   0  0  0  0  0  0  0  0  0  0  0  0
  124.2349  107.5590  105.9925 H   0  0  0  0  0  0  0  0  0  0  0  0
  118.6991  105.5177  102.4435 H   0  0  0  0  0  0  0  0  0  0  0  0
  120.2852  105.2401  101.6850 H   0  0  0  0  0  0  0  0  0  0  0  0
  119.1842  103.8879  101.9182 H   0  0  0  0  0  0  0  0  0  0  0  0
  120.9869  103.8626  103.6464 H   0  0  0  0  0  0  0  0  0  0  0  0
  119.4005  104.1422  104.4103 H   0  0  0  0  0  0  0  0  0  0  0  0
  124.2525  104.1285  109.1458 H   0  0  0  0  0  0  0  0  0  0  0  0
  125.2533  103.3960  107.8686 H   0  0  0  0  0  0  0  0  0  0  0  0
  124.9726  106.4081  108.4326 H   0  0  0  0  0  0  0  0  0  0  0  0
  127.1137  105.4936  107.3874 H   0  0  0  0  0  0  0  0  0  0  0  0
  126.2439  106.4607  106.2204 H   0  0  0  0  0  0  0  0  0  0  0  0
  126.2984  103.4935  109.8662 H   0  0  0  0  0  0  0  0  0  0  0  0
  1  2  2  0  0  0  0
  1  4  1  0  0  0  0
  2  5  1  0  0  0  0
  3  4  2  0  0  0  0
  3 10  1  0  0  0  0
  4  9  1  0  0  0  0
  5 10  2  0  0  0  0
  5 13  1  0  0  0  0
  6  7  1  0  0  0  0
  7 13  1  0  0  0  0
  8  9  1  0  0  0  0
  8 12  1  0  0  0  0
  9 11  1  0  0  0  0
  1 14  1  0  0  0  0
  2 15  1  0  0  0  0
  3 16  1  0  0  0  0
  6 17  1  0  0  0  0
  6 18  1  0  0  0  0
  6 19  1  0  0  0  0
  7 20  1  0  0  0  0
  7 21  1  0  0  0  0
  8 22  1  0  0  0  0
  8 23  1  0  0  0  0
  9 24  1  0  0  0  0
 11 25  1  0  0  0  0
 11 26  1  0  0  0  0
 12 27  1  0  0  0  0
M  END
> <FRED Chemgauss4 score>
-8.133632

$$$$
C01596463	P139535506
  -OEChem-05182014473D

 16 17  0     0  0  0  0  0  0999 V2000
  124.9041  104.7528  107.8223 C   0  0  0  0  0  0  0  0  0  0  0  0
  126.0174  105.5888  107.7111 C   0  0  0  0  0  0  0  0  0  0  0  0
  124.8778  107.0543  106.1943 C   0  0  0  0  0  0  0  0  0  0  0  0
  123.7845  106.2264  106.3089 C   0  0  0  0  0  0  0  0  0  0  0  0
  123.7730  105.0985  107.1188 C   0  0  0  0  0  0  0  0  0  0  0  0
  122.4538  106.2938  105.7070 C   0  0  0  0  0  0  0  0  0  0  0  0
  126.0131  106.7321  106.9075 N   0  3  0  0  0  0  0  0  0  0  0  0
  122.5698  104.4119  107.0103 N   0  0  0  0  0  0  0  0  0  0  0  0
  121.7686  105.1913  106.1943 N   0  0  0  0  0  0  0  0  0  0  0  0
  127.0522  107.4672  106.8343 O   0  5  0  0  0  0  0  0  0  0  0  0
  122.0763  107.1641  104.9462 O   0  0  0  0  0  0  0  0  0  0  0  0
  124.9406  103.8641  108.4421 H   0  0  0  0  0  0  0  0  0  0  0  0
  126.9513  105.4097  108.2254 H   0  0  0  0  0  0  0  0  0  0  0  0
  124.9371  107.9460  105.5919 H   0  0  0  0  0  0  0  0  0  0  0  0
  122.1630  103.9067  107.7844 H   0  0  0  0  0  0  0  0  0  0  0  0
  120.8018  104.9823  105.9797 H   0  0  0  0  0  0  0  0  0  0  0  0
  1  2  1  0  0  0  0
  1  5  2  0  0  0  0
  2  7  2  0  0  0  0
  3  4  2  0  0  0  0
  3  7  1  0  0  0  0
  4  5  1  0  0  0  0
  4  6  1  0  0  0  0
  5  8  1  0  0  0  0
  6  9  1  0  0  0  0
  6 11  2  0  0  0  0
  7 10  1  0  0  0  0
  8  9  1  0  0  0  0
  1 12  1  0  0  0  0
  2 13  1  0  0  0  0
  3 14  1  0  0  0  0
  8 15  1  0  0  0  0
  9 16  1  0  0  0  0
M  CHG  2   7   1  10  -1
M  END
> <FRED Chemgauss4 score>
-8.133381

$$$$
C03872997	P04549451
  -OEChem-05182014473D

 28 29  0     1  0  0  0  0  0999 V2000
  122.1538  104.5094  106.4541 C   0  0  0  0  0  0  0  0  0  0  0  0
  122.8767  105.7496  105.9676 C   0  0  0  0  0  0  0  0  0  0  0  0
  126.0726  105.7345  108.7441 C   0  0  1  0  0  0  0  0  0  0  0  0
  126.3392  106.4317  107.3892 C   0  0  2  0  0  0  0  0  0  0  0  0
  124.7867  104.8729  108.7861 C   0  0  1  0  0  0  0  0  0  0  0  0
  125.0527  106.8618  106.6629 C   0  0  2  0  0  0  0  0  0  0  0  0
  124.2863  104.5427  107.3889 C   0  0  1  0  0  0  0  0  0  0  0  0
  124.4264  108.0820  107.3445 C   0  0  0  0  0  0  0  0  0  0  0  0
  123.0036  103.8914  107.3469 N   0  0  0  0  0  0  0  0  0  0  0  0
  124.0949  105.7513  106.6127 N   0  0  0  0  0  0  0  0  0  0  0  0
  121.0385  104.2141  106.0811 O   0  0  0  0  0  0  0  0  0  0  0  0
  122.3624  106.5384  105.2035 O   0  0  0  0  0  0  0  0  0  0  0  0
  127.2147  104.9689  109.1213 O   0  0  0  0  0  0  0  0  0  0  0  0
  127.1051  105.5802  106.5295 O   0  0  0  0  0  0  0  0  0  0  0  0
  124.9929  103.6716  109.5195 O   0  0  0  0  0  0  0  0  0  0  0  0
  124.1075  107.7345  108.6784 O   0  0  0  0  0  0  0  0  0  0  0  0
  126.0039  106.5346  109.5527 H   0  0  0  0  0  0  0  0  0  0  0  0
  126.9631  107.3324  107.5804 H   0  0  0  0  0  0  0  0  0  0  0  0
  124.0026  105.4526  109.3340 H   0  0  0  0  0  0  0  0  0  0  0  0
  125.2619  107.1489  105.6440 H   0  0  0  0  0  0  0  0  0  0  0  0
  124.9966  103.8867  106.8407 H   0  0  0  0  0  0  0  0  0  0  0  0
  123.5184  108.3723  106.8184 H   0  0  0  0  0  0  0  0  0  0  0  0
  125.1352  108.9085  107.3446 H   0  0  0  0  0  0  0  0  0  0  0  0
  122.7551  103.0819  107.9020 H   0  0  0  0  0  0  0  0  0  0  0  0
  127.9488  105.5959  109.1921 H   0  0  0  0  0  0  0  0  0  0  0  0
  127.2386  106.0692  105.7025 H   0  0  0  0  0  0  0  0  0  0  0  0
  125.2456  103.9355  110.4182 H   0  0  0  0  0  0  0  0  0  0  0  0
  123.7121  108.5208  109.0927 H   0  0  0  0  0  0  0  0  0  0  0  0
  1  2  1  0  0  0  0
  1  9  1  0  0  0  0
  1 11  2  0  0  0  0
  2 10  1  0  0  0  0
  2 12  2  0  0  0  0
  3  4  1  0  0  0  0
  3  5  1  0  0  0  0
  3 13  1  0  0  0  0
  4  6  1  0  0  0  0
  4 14  1  0  0  0  0
  5  7  1  0  0  0  0
  5 15  1  0  0  0  0
  6  8  1  0  0  0  0
  6 10  1  0  0  0  0
  7  9  1  0  0  0  0
  7 10  1  0  0  0  0
  8 16  1  0  0  0  0
  3 17  1  0  0  0  0
  4 18  1  0  0  0  0
  5 19  1  0  0  0  0
  6 20  1  0  0  0  0
  7 21  1  0  0  0  0
  8 22  1  0  0  0  0
  8 23  1  0  0  0  0
  9 24  1  0  0  0  0
 13 25  1  0  0  0  0
 14 26  1  0  0  0  0
 15 27  1  0  0  0  0
 16 28  1  0  0  0  0
M  END
> <FRED Chemgauss4 score>
-8.125184

$$$$
C34516107	P59205293
  -OEChem-05182014473D

 24 23  0     1  0  0  0  0  0999 V2000
  119.0669  107.4104  105.5152 C   0  0  0  0  0  0  0  0  0  0  0  0
  120.2223  107.4025  105.8413 C   0  0  0  0  0  0  0  0  0  0  0  0
  121.8351  105.7985  104.4599 C   0  0  0  0  0  0  0  0  0  0  0  0
  121.6308  107.3942  106.2443 C   0  0  0  0  0  0  0  0  0  0  0  0
  123.7891  106.5149  105.6602 C   0  0  0  0  0  0  0  0  0  0  0  0
  125.7840  107.4167  107.0752 C   0  0  0  0  0  0  0  0  0  0  0  0
  124.6629  107.7360  106.0551 C   0  0  1  0  0  0  0  0  0  0  0  0
  122.4773  106.9151  105.1523 N   0  0  1  0  0  0  0  0  0  0  0  0
  125.2785  107.3222  108.4703 N   0  3  0  0  0  0  0  0  0  0  0  0
  125.2654  108.1709  104.9576 O   0  5  0  0  0  0  0  0  0  0  0  0
  118.0420  107.4168  105.2258 H   0  0  0  0  0  0  0  0  0  0  0  0
  122.4725  105.4450  103.6452 H   0  0  0  0  0  0  0  0  0  0  0  0
  120.8745  106.1140  104.0436 H   0  0  0  0  0  0  0  0  0  0  0  0
  121.6615  104.9724  105.1547 H   0  0  0  0  0  0  0  0  0  0  0  0
  121.7730  106.7491  107.1168 H   0  0  0  0  0  0  0  0  0  0  0  0
  121.9462  108.4035  106.5275 H   0  0  0  0  0  0  0  0  0  0  0  0
  124.2798  105.8822  104.9087 H   0  0  0  0  0  0  0  0  0  0  0  0
  123.6216  105.8791  106.5403 H   0  0  0  0  0  0  0  0  0  0  0  0
  126.2564  106.4526  106.8594 H   0  0  0  0  0  0  0  0  0  0  0  0
  126.5695  108.1826  107.0794 H   0  0  0  0  0  0  0  0  0  0  0  0
  123.9858  108.4215  106.5891 H   0  0  0  0  0  0  0  0  0  0  0  0
  124.4003  107.8391  108.5747 H   0  0  0  0  0  0  0  0  0  0  0  0
  125.9584  107.7123  109.1301 H   0  0  0  0  0  0  0  0  0  0  0  0
  125.1067  106.3460  108.7294 H   0  0  0  0  0  0  0  0  0  0  0  0
  1  2  3  0  0  0  0
  2  4  1  0  0  0  0
  3  8  1  0  0  0  0
  4  8  1  0  0  0  0
  5  7  1  0  0  0  0
  5  8  1  0  0  0  0
  6  7  1  0  0  0  0
  6  9  1  0  0  0  0
  7 10  1  0  0  0  0
  1 11  1  0  0  0  0
  3 12  1  0  0  0  0
  3 13  1  0  0  0  0
  3 14  1  0  0  0  0
  4 15  1  0  0  0  0
  4 16  1  0  0  0  0
  5 17  1  0  0  0  0
  5 18  1  0  0  0  0
  6 19  1  0  0  0  0
  6 20  1  0  0  0  0
  7 21  1  0  0  0  0
  9 22  1  0  0  0  0
  9 23  1  0  0  0  0
  9 24  1  0  0  0  0
M  CHG  2   9   1  10  -1
M  END
> <FRED Chemgauss4 score>
-8.123080

$$$$
C49350690	P84543526
  -OEChem-05182014473D

 29 29  0     1  0  0  0  0  0999 V2000
  123.4289  107.3040  106.4569 C   0  0  0  0  0  0  0  0  0  0  0  0
  125.5432  107.7529  106.4421 C   0  0  0  0  0  0  0  0  0  0  0  0
  122.1261  106.8600  105.9284 C   0  0  0  0  0  0  0  0  0  0  0  0
  120.4443  104.6122  104.8823 C   0  0  0  0  0  0  0  0  0  0  0  0
  119.2014  106.1785  106.3955 C   0  0  0  0  0  0  0  0  0  0  0  0
  119.1157  103.3778  103.1830 C   0  0  0  0  0  0  0  0  0  0  0  0
  120.3406  105.1763  106.2931 C   0  0  2  0  0  0  0  0  0  0  0  0
  118.5323  104.3651  102.2038 C   0  0  0  0  0  0  0  0  0  0  0  0
  123.6190  107.7219  107.6685 N   0  0  0  0  0  0  0  0  0  0  0  0
  124.5148  107.2867  105.6532 N   0  0  0  0  0  0  0  0  0  0  0  0
  124.9552  108.0156  107.6908 N   0  0  0  0  0  0  0  0  0  0  0  0
  121.6032  105.7833  106.6230 N   0  0  0  0  0  0  0  0  0  0  0  0
  119.2815  103.9617  104.4936 N   0  0  0  0  0  0  0  0  0  0  0  0
  126.7145  107.9068  106.1311 O   0  0  0  0  0  0  0  0  0  0  0  0
  121.6128  107.4301  104.9718 O   0  0  0  0  0  0  0  0  0  0  0  0
  121.4367  104.7596  104.1721 O   0  0  0  0  0  0  0  0  0  0  0  0
  118.3900  103.7955  100.9865 F   0  0  0  0  0  0  0  0  0  0  0  0
  117.3145  104.7921  102.6005 F   0  0  0  0  0  0  0  0  0  0  0  0
  119.3290  105.4453  102.0592 F   0  0  0  0  0  0  0  0  0  0  0  0
  119.3368  107.0066  105.6902 H   0  0  0  0  0  0  0  0  0  0  0  0
  118.2380  105.7083  106.1720 H   0  0  0  0  0  0  0  0  0  0  0  0
  119.1471  106.6053  107.4028 H   0  0  0  0  0  0  0  0  0  0  0  0
  120.0984  103.0346  102.8464 H   0  0  0  0  0  0  0  0  0  0  0  0
  118.4623  102.5069  103.2888 H   0  0  0  0  0  0  0  0  0  0  0  0
  120.1881  104.3572  107.0043 H   0  0  0  0  0  0  0  0  0  0  0  0
  124.5716  106.9971  104.6843 H   0  0  0  0  0  0  0  0  0  0  0  0
  125.3913  108.3709  108.5321 H   0  0  0  0  0  0  0  0  0  0  0  0
  122.1364  105.4029  107.4033 H   0  0  0  0  0  0  0  0  0  0  0  0
  118.5236  103.8518  105.1608 H   0  0  0  0  0  0  0  0  0  0  0  0
  1  3  1  0  0  0  0
  1  9  2  0  0  0  0
  1 10  1  0  0  0  0
  2 10  1  0  0  0  0
  2 11  1  0  0  0  0
  2 14  2  0  0  0  0
  3 12  1  0  0  0  0
  3 15  2  0  0  0  0
  4  7  1  0  0  0  0
  4 13  1  0  0  0  0
  4 16  2  0  0  0  0
  5  7  1  0  0  0  0
  6  8  1  0  0  0  0
  6 13  1  0  0  0  0
  7 12  1  0  0  0  0
  8 17  1  0  0  0  0
  8 18  1  0  0  0  0
  8 19  1  0  0  0  0
  9 11  1  0  0  0  0
  5 20  1  0  0  0  0
  5 21  1  0  0  0  0
  5 22  1  0  0  0  0
  6 23  1  0  0  0  0
  6 24  1  0  0  0  0
  7 25  1  0  0  0  0
 10 26  1  0  0  0  0
 11 27  1  0  0  0  0
 12 28  1  0  0  0  0
 13 29  1  0  0  0  0
M  END
> <FRED Chemgauss4 score>
-8.122814

$$$$
C85418703	P133700532
  -OEChem-05182014473D

 27 27  0     0  0  0  0  0  0999 V2000
  121.3225  105.0993  105.1003 C   0  0  0  0  0  0  0  0  0  0  0  0
  122.1493  106.0059  105.7149 C   0  0  0  0  0  0  0  0  0  0  0  0
  125.9222  105.6865  107.8675 C   0  0  0  0  0  0  0  0  0  0  0  0
  123.0135  105.8254  106.9292 C   0  0  0  0  0  0  0  0  0  0  0  0
  124.8524  104.6192  107.8906 C   0  0  0  0  0  0  0  0  0  0  0  0
  119.8594  105.3372  103.0685 C   0  0  0  0  0  0  0  0  0  0  0  0
  120.5171  104.4746  101.9998 C   0  0  0  0  0  0  0  0  0  0  0  0
  122.1036  107.1970  105.0451 N   0  0  0  0  0  0  0  0  0  0  0  0
  121.2655  107.0591  104.0236 N   0  0  0  0  0  0  0  0  0  0  0  0
  120.7981  105.8007  104.0585 N   0  0  0  0  0  0  0  0  0  0  0  0
  126.3154  106.0614  109.1343 N   0  0  0  0  0  0  0  0  0  0  0  0
  124.0031  104.7609  106.7446 N   0  0  0  0  0  0  0  0  0  0  0  0
  126.4191  106.1367  106.8387 O   0  0  0  0  0  0  0  0  0  0  0  0
  121.5474  105.2127  101.3556 O   0  0  0  0  0  0  0  0  0  0  0  0
  121.0742  104.0668  105.3018 H   0  0  0  0  0  0  0  0  0  0  0  0
  123.5525  106.7506  107.1605 H   0  0  0  0  0  0  0  0  0  0  0  0
  122.4098  105.5726  107.8072 H   0  0  0  0  0  0  0  0  0  0  0  0
  124.2310  104.7085  108.7858 H   0  0  0  0  0  0  0  0  0  0  0  0
  125.3204  103.6316  107.8581 H   0  0  0  0  0  0  0  0  0  0  0  0
  119.0716  104.7845  103.5934 H   0  0  0  0  0  0  0  0  0  0  0  0
  119.4031  106.2257  102.6171 H   0  0  0  0  0  0  0  0  0  0  0  0
  120.9746  103.5951  102.4636 H   0  0  0  0  0  0  0  0  0  0  0  0
  119.7976  104.1422  101.2445 H   0  0  0  0  0  0  0  0  0  0  0  0
  125.9005  105.6356  109.9564 H   0  0  0  0  0  0  0  0  0  0  0  0
  127.0265  106.7674  109.2962 H   0  0  0  0  0  0  0  0  0  0  0  0
  123.4994  103.8844  106.5609 H   0  0  0  0  0  0  0  0  0  0  0  0
  121.9355  104.6259  100.6867 H   0  0  0  0  0  0  0  0  0  0  0  0
  1  2  2  0  0  0  0
  1 10  1  0  0  0  0
  2  4  1  0  0  0  0
  2  8  1  0  0  0  0
  3  5  1  0  0  0  0
  3 11  1  0  0  0  0
  3 13  2  0  0  0  0
  4 12  1  0  0  0  0
  5 12  1  0  0  0  0
  6  7  1  0  0  0  0
  6 10  1  0  0  0  0
  7 14  1  0  0  0  0
  8  9  2  0  0  0  0
  9 10  1  0  0  0  0
  1 15  1  0  0  0  0
  4 16  1  0  0  0  0
  4 17  1  0  0  0  0
  5 18  1  0  0  0  0
  5 19  1  0  0  0  0
  6 20  1  0  0  0  0
  6 21  1  0  0  0  0
  7 22  1  0  0  0  0
  7 23  1  0  0  0  0
 11 24  1  0  0  0  0
 11 25  1  0  0  0  0
 12 26  1  0  0  0  0
 14 27  1  0  0  0  0
M  END
> <FRED Chemgauss4 score>
-8.120165

$$$$
C36993915	P54988732
  -OEChem-05182014473D

 32 33  0     1  0  0  0  0  0999 V2000
  118.1221  104.7320  102.7098 C   0  0  0  0  0  0  0  0  0  0  0  0
  118.9289  104.9455  101.5956 C   0  0  0  0  0  0  0  0  0  0  0  0
  120.8246  105.3104  103.0499 C   0  0  0  0  0  0  0  0  0  0  0  0
  118.6589  104.8217  104.0023 C   0  0  0  0  0  0  0  0  0  0  0  0
  120.0228  105.1115  104.1855 C   0  0  0  0  0  0  0  0  0  0  0  0
  120.2787  105.2336  101.7660 C   0  0  0  0  0  0  0  0  0  0  0  0
  119.7344  105.1709  106.6476 C   0  0  0  0  0  0  0  0  0  0  0  0
  117.7966  104.5173  105.1916 C   0  0  0  0  0  0  0  0  0  0  0  0
  118.2541  105.3386  106.3781 C   0  0  0  0  0  0  0  0  0  0  0  0
  122.0071  105.2147  105.6924 C   0  0  0  0  0  0  0  0  0  0  0  0
  124.0828  106.6265  105.2519 C   0  0  0  0  0  0  0  0  0  0  0  0
  122.5810  106.6239  105.5387 C   0  0  2  0  0  0  0  0  0  0  0  0
  120.5586  105.1685  105.5147 N   0  0  0  0  0  0  0  0  0  0  0  0
  124.5574  107.9857  105.1131 N   0  0  0  0  0  0  0  0  0  0  0  0
  120.1413  105.1355  107.8109 O   0  0  0  0  0  0  0  0  0  0  0  0
  122.3423  107.3654  106.7350 O   0  0  0  0  0  0  0  0  0  0  0  0
  121.0595  105.4337  100.6961 F   0  0  0  0  0  0  0  0  0  0  0  0
  117.0723  104.4890  102.5664 H   0  0  0  0  0  0  0  0  0  0  0  0
  118.5073  104.8788  100.5973 H   0  0  0  0  0  0  0  0  0  0  0  0
  121.8838  105.5372  103.1312 H   0  0  0  0  0  0  0  0  0  0  0  0
  116.7458  104.7452  104.9792 H   0  0  0  0  0  0  0  0  0  0  0  0
  117.8722  103.4459  105.4134 H   0  0  0  0  0  0  0  0  0  0  0  0
  117.6952  105.0375  107.2712 H   0  0  0  0  0  0  0  0  0  0  0  0
  118.0675  106.4066  106.2103 H   0  0  0  0  0  0  0  0  0  0  0  0
  122.4490  104.5321  104.9598 H   0  0  0  0  0  0  0  0  0  0  0  0
  122.2091  104.8259  106.6956 H   0  0  0  0  0  0  0  0  0  0  0  0
  124.3083  106.0894  104.3247 H   0  0  0  0  0  0  0  0  0  0  0  0
  124.6301  106.1494  106.0714 H   0  0  0  0  0  0  0  0  0  0  0  0
  122.0468  107.1349  104.7282 H   0  0  0  0  0  0  0  0  0  0  0  0
  123.9742  108.6556  104.6460 H   0  0  0  0  0  0  0  0  0  0  0  0
  125.5244  108.1808  105.2980 H   0  0  0  0  0  0  0  0  0  0  0  0
  121.3808  107.3925  106.8531 H   0  0  0  0  0  0  0  0  0  0  0  0
  1  2  1  0  0  0  0
  1  4  2  0  0  0  0
  2  6  2  0  0  0  0
  3  5  2  0  0  0  0
  3  6  1  0  0  0  0
  4  5  1  0  0  0  0
  4  8  1  0  0  0  0
  5 13  1  0  0  0  0
  6 17  1  0  0  0  0
  7  9  1  0  0  0  0
  7 13  1  0  0  0  0
  7 15  2  0  0  0  0
  8  9  1  0  0  0  0
 10 12  1  0  0  0  0
 10 13  1  0  0  0  0
 11 12  1  0  0  0  0
 11 14  1  0  0  0  0
 12 16  1  0  0  0  0
  1 18  1  0  0  0  0
  2 19  1  0  0  0  0
  3 20  1  0  0  0  0
  8 21  1  0  0  0  0
  8 22  1  0  0  0  0
  9 23  1  0  0  0  0
  9 24  1  0  0  0  0
 10 25  1  0  0  0  0
 10 26  1  0  0  0  0
 11 27  1  0  0  0  0
 11 28  1  0  0  0  0
 12 29  1  0  0  0  0
 14 30  1  0  0  0  0
 14 31  1  0  0  0  0
 16 32  1  0  0  0  0
M  END
> <FRED Chemgauss4 score>
-8.117513

$$$$
C48881700	P73030881
  -OEChem-05182014473D

 37 38  0     1  0  0  0  0  0999 V2000
  118.1960  105.0059  104.1457 C   0  0  0  0  0  0  0  0  0  0  0  0
  120.5631  104.5675  103.9415 C   0  0  0  0  0  0  0  0  0  0  0  0
  118.0594  104.9139  102.7607 C   0  0  0  0  0  0  0  0  0  0  0  0
  120.4265  104.4754  102.5564 C   0  0  0  0  0  0  0  0  0  0  0  0
  123.0323  103.6060  106.7960 C   0  0  0  0  0  0  0  0  0  0  0  0
  124.6514  105.3929  106.6465 C   0  0  0  0  0  0  0  0  0  0  0  0
  122.2891  105.8936  106.5690 C   0  0  0  0  0  0  0  0  0  0  0  0
  119.4479  104.8328  104.7362 C   0  0  0  0  0  0  0  0  0  0  0  0
  124.3594  104.0347  106.7720 C   0  0  0  0  0  0  0  0  0  0  0  0
  121.9971  104.5354  106.6945 C   0  0  0  0  0  0  0  0  0  0  0  0
  123.6162  106.3224  106.5450 C   0  0  0  0  0  0  0  0  0  0  0  0
  119.1747  104.6486  101.9660 C   0  0  0  0  0  0  0  0  0  0  0  0
  120.3309  102.7903  107.2761 C   0  0  0  0  0  0  0  0  0  0  0  0
  119.5938  104.9312  106.2171 C   0  0  0  0  0  0  0  0  0  0  0  0
  125.4061  103.0950  106.8747 N   0  0  0  0  0  0  0  0  0  0  0  0
  122.4099  108.6871  106.3049 N   0  0  0  0  0  0  0  0  0  0  0  0
  120.6619  104.1041  106.7185 N   0  0  3  0  0  0  0  0  0  0  0  0
  124.6172  108.4714  107.6189 O   0  0  0  0  0  0  0  0  0  0  0  0
  124.6476  108.2363  105.1106 O   0  0  0  0  0  0  0  0  0  0  0  0
  123.9818  108.0225  106.3880 S   0  0  0  0  0  0  0  0  0  0  0  0
  118.9889  104.5246  100.0894 Br  0  0  0  0  0  0  0  0  0  0  0  0
  117.3215  105.2128  104.7571 H   0  0  0  0  0  0  0  0  0  0  0  0
  121.5425  104.4321  104.3927 H   0  0  0  0  0  0  0  0  0  0  0  0
  117.0770  105.0524  102.3165 H   0  0  0  0  0  0  0  0  0  0  0  0
  121.3053  104.2679  101.9515 H   0  0  0  0  0  0  0  0  0  0  0  0
  122.8045  102.5466  106.8939 H   0  0  0  0  0  0  0  0  0  0  0  0
  125.6862  105.7272  106.6279 H   0  0  0  0  0  0  0  0  0  0  0  0
  121.4820  106.6183  106.4898 H   0  0  0  0  0  0  0  0  0  0  0  0
  119.2533  102.6171  107.2156 H   0  0  0  0  0  0  0  0  0  0  0  0
  120.6377  102.7363  108.3242 H   0  0  0  0  0  0  0  0  0  0  0  0
  120.8457  102.0027  106.7192 H   0  0  0  0  0  0  0  0  0  0  0  0
  119.8038  105.9647  106.5266 H   0  0  0  0  0  0  0  0  0  0  0  0
  118.6735  104.6264  106.7340 H   0  0  0  0  0  0  0  0  0  0  0  0
  125.1835  102.1298  107.0117 H   0  0  0  0  0  0  0  0  0  0  0  0
  126.3515  103.4193  106.9036 H   0  0  0  0  0  0  0  0  0  0  0  0
  121.8651  108.5303  105.4481 H   0  0  0  0  0  0  0  0  0  0  0  0
  121.8433  108.6933  107.1617 H   0  0  0  0  0  0  0  0  0  0  0  0
  1  3  2  0  0  0  0
  1  8  1  0  0  0  0
  2  4  1  0  0  0  0
  2  8  2  0  0  0  0
  3 12  1  0  0  0  0
  4 12  2  0  0  0  0
  5  9  2  0  0  0  0
  5 10  1  0  0  0  0
  6  9  1  0  0  0  0
  6 11  2  0  0  0  0
  7 10  2  0  0  0  0
  7 11  1  0  0  0  0
  8 14  1  0  0  0  0
  9 15  1  0  0  0  0
 10 17  1  0  0  0  0
 11 20  1  0  0  0  0
 12 21  1  0  0  0  0
 13 17  1  0  0  0  0
 14 17  1  0  0  0  0
 16 20  1  0  0  0  0
 18 20  2  0  0  0  0
 19 20  2  0  0  0  0
  1 22  1  0  0  0  0
  2 23  1  0  0  0  0
  3 24  1  0  0  0  0
  4 25  1  0  0  0  0
  5 26  1  0  0  0  0
  6 27  1  0  0  0  0
  7 28  1  0  0  0  0
 13 29  1  0  0  0  0
 13 30  1  0  0  0  0
 13 31  1  0  0  0  0
 14 32  1  0  0  0  0
 14 33  1  0  0  0  0
 15 34  1  0  0  0  0
 15 35  1  0  0  0  0
 16 36  1  0  0  0  0
 16 37  1  0  0  0  0
M  END
> <FRED Chemgauss4 score>
-8.116180

$$$$
C97747319	P155077223
  -OEChem-05182014473D

 42 44  0     1  0  0  0  0  0999 V2000
  118.5137  104.6901   99.6207 C   0  0  0  0  0  0  0  0  0  0  0  0
  119.8075  104.2119   99.8114 C   0  0  0  0  0  0  0  0  0  0  0  0
  117.7368  105.0559  100.7190 C   0  0  0  0  0  0  0  0  0  0  0  0
  120.3274  104.0990  101.1009 C   0  0  0  0  0  0  0  0  0  0  0  0
  118.2551  104.9570  102.0168 C   0  0  0  0  0  0  0  0  0  0  0  0
  119.5587  104.4692  102.2143 C   0  0  0  0  0  0  0  0  0  0  0  0
  117.3954  105.3052  103.2011 C   0  0  0  0  0  0  0  0  0  0  0  0
  118.2514  105.5925  104.4253 C   0  0  0  0  0  0  0  0  0  0  0  0
  124.5750  108.2126  106.5108 C   0  0  0  0  0  0  0  0  0  0  0  0
  123.2266  108.2689  107.2084 C   0  0  0  0  0  0  0  0  0  0  0  0
  123.6624  106.8149  104.8534 C   0  0  0  0  0  0  0  0  0  0  0  0
  120.1297  104.3479  103.6127 C   0  0  1  0  0  0  0  0  0  0  0  0
  122.3045  106.8715  105.5485 C   0  0  1  0  0  0  0  0  0  0  0  0
  121.2867  105.3173  103.8597 C   0  0  0  0  0  0  0  0  0  0  0  0
  121.5229  105.5828  105.3503 C   0  0  1  0  0  0  0  0  0  0  0  0
  121.2958  103.4233  106.2170 N   0  0  0  0  0  0  0  0  0  0  0  0
  122.2244  104.4855  105.9747 N   0  0  0  0  0  0  0  0  0  0  0  0
  124.3832  108.0241  105.1071 O   0  0  0  0  0  0  0  0  0  0  0  0
  119.1427  104.5013  104.6460 O   0  0  0  0  0  0  0  0  0  0  0  0
  122.5021  107.0630  106.9554 O   0  0  0  0  0  0  0  0  0  0  0  0
  118.1072  104.7728   98.6166 H   0  0  0  0  0  0  0  0  0  0  0  0
  120.4111  103.9244   98.9558 H   0  0  0  0  0  0  0  0  0  0  0  0
  116.7234  105.4142  100.5576 H   0  0  0  0  0  0  0  0  0  0  0  0
  121.3349  103.7145  101.2230 H   0  0  0  0  0  0  0  0  0  0  0  0
  116.8114  106.1977  102.9402 H   0  0  0  0  0  0  0  0  0  0  0  0
  116.6977  104.4901  103.4282 H   0  0  0  0  0  0  0  0  0  0  0  0
  118.8538  106.4945  104.2577 H   0  0  0  0  0  0  0  0  0  0  0  0
  117.6435  105.7667  105.3254 H   0  0  0  0  0  0  0  0  0  0  0  0
  125.1231  109.1478  106.6587 H   0  0  0  0  0  0  0  0  0  0  0  0
  125.1877  107.3896  106.8967 H   0  0  0  0  0  0  0  0  0  0  0  0
  123.3578  108.3683  108.2899 H   0  0  0  0  0  0  0  0  0  0  0  0
  122.6315  109.1185  106.8541 H   0  0  0  0  0  0  0  0  0  0  0  0
  124.2639  105.9695  105.2084 H   0  0  0  0  0  0  0  0  0  0  0  0
  123.5410  106.7157  103.7702 H   0  0  0  0  0  0  0  0  0  0  0  0
  120.5312  103.3047  103.7024 H   0  0  0  0  0  0  0  0  0  0  0  0
  121.7179  107.7178  105.1683 H   0  0  0  0  0  0  0  0  0  0  0  0
  122.1908  104.8886  103.4137 H   0  0  0  0  0  0  0  0  0  0  0  0
  121.0774  106.2547  103.3325 H   0  0  0  0  0  0  0  0  0  0  0  0
  120.5595  105.6716  105.8656 H   0  0  0  0  0  0  0  0  0  0  0  0
  120.3802  103.6864  105.8533 H   0  0  0  0  0  0  0  0  0  0  0  0
  121.5802  102.6009  105.6863 H   0  0  0  0  0  0  0  0  0  0  0  0
  122.6207  104.7839  106.8700 H   0  0  0  0  0  0  0  0  0  0  0  0
  1  2  1  0  0  0  0
  1  3  2  0  0  0  0
  2  4  2  0  0  0  0
  3  5  1  0  0  0  0
  4  6  1  0  0  0  0
  5  6  2  0  0  0  0
  5  7  1  0  0  0  0
  6 12  1  0  0  0  0
  7  8  1  0  0  0  0
  8 19  1  0  0  0  0
  9 10  1  0  0  0  0
  9 18  1  0  0  0  0
 10 20  1  0  0  0  0
 11 13  1  0  0  0  0
 11 18  1  0  0  0  0
 12 14  1  0  0  0  0
 12 19  1  0  0  0  0
 13 15  1  0  0  0  0
 13 20  1  0  0  0  0
 14 15  1  0  0  0  0
 15 17  1  0  0  0  0
 16 17  1  0  0  0  0
  1 21  1  0  0  0  0
  2 22  1  0  0  0  0
  3 23  1  0  0  0  0
  4 24  1  0  0  0  0
  7 25  1  0  0  0  0
  7 26  1  0  0  0  0
  8 27  1  0  0  0  0
  8 28  1  0  0  0  0
  9 29  1  0  0  0  0
  9 30  1  0  0  0  0
 10 31  1  0  0  0  0
 10 32  1  0  0  0  0
 11 33  1  0  0  0  0
 11 34  1  0  0  0  0
 12 35  1  0  0  0  0
 13 36  1  0  0  0  0
 14 37  1  0  0  0  0
 14 38  1  0  0  0  0
 15 39  1  0  0  0  0
 16 40  1  0  0  0  0
 16 41  1  0  0  0  0
 17 42  1  0  0  0  0
M  END
> <FRED Chemgauss4 score>
-8.115845

$$$$
6C_CG2012	P10000021
  -OEChem-05182014473D

 22 21  0     1  0  0  0  0  0999 V2000
  125.0752  106.9066  106.1672 C   0  0  0  0  0  0  0  0  0  0  0  0
  121.7325  106.0198  105.4323 C   0  0  0  0  0  0  0  0  0  0  0  0
  120.5098  104.0912  106.4819 C   0  0  0  0  0  0  0  0  0  0  0  0
  121.4260  104.5424  105.3578 C   0  0  0  0  0  0  0  0  0  0  0  0
  122.6854  107.6563  106.8508 C   0  0  0  0  0  0  0  0  0  0  0  0
  124.1901  107.7873  107.0660 C   0  0  1  0  0  0  0  0  0  0  0  0
  124.4381  107.5791  108.5283 N   0  3  0  0  0  0  0  0  0  0  0  0
  124.9039  105.6596  106.2618 O   0  5  0  0  0  0  0  0  0  0  0  0
  125.8934  107.5460  105.4445 O   0  0  0  0  0  0  0  0  0  0  0  0
  121.4824  106.8370  104.5570 O   0  0  0  0  0  0  0  0  0  0  0  0
  122.3335  106.2956  106.6321 O   0  0  0  0  0  0  0  0  0  0  0  0
  120.9623  104.2850  107.4601 H   0  0  0  0  0  0  0  0  0  0  0  0
  119.5560  104.6254  106.4341 H   0  0  0  0  0  0  0  0  0  0  0  0
  120.3048  103.0176  106.4150 H   0  0  0  0  0  0  0  0  0  0  0  0
  120.9470  104.3358  104.3948 H   0  0  0  0  0  0  0  0  0  0  0  0
  122.3694  103.9892  105.4155 H   0  0  0  0  0  0  0  0  0  0  0  0
  122.3638  108.2387  105.9804 H   0  0  0  0  0  0  0  0  0  0  0  0
  122.1329  108.0182  107.7244 H   0  0  0  0  0  0  0  0  0  0  0  0
  124.4820  108.8261  106.8685 H   0  0  0  0  0  0  0  0  0  0  0  0
  125.1202  106.8328  108.6677 H   0  0  0  0  0  0  0  0  0  0  0  0
  123.5700  107.3217  108.9996 H   0  0  0  0  0  0  0  0  0  0  0  0
  124.7987  108.4357  108.9504 H   0  0  0  0  0  0  0  0  0  0  0  0
  1  6  1  0  0  0  0
  1  8  1  0  0  0  0
  1  9  2  0  0  0  0
  2  4  1  0  0  0  0
  2 10  2  0  0  0  0
  2 11  1  0  0  0  0
  3  4  1  0  0  0  0
  5  6  1  0  0  0  0
  5 11  1  0  0  0  0
  6  7  1  0  0  0  0
  3 12  1  0  0  0  0
  3 13  1  0  0  0  0
  3 14  1  0  0  0  0
  4 15  1  0  0  0  0
  4 16  1  0  0  0  0
  5 17  1  0  0  0  0
  5 18  1  0  0  0  0
  6 19  1  0  0  0  0
  7 20  1  0  0  0  0
  7 21  1  0  0  0  0
  7 22  1  0  0  0  0
M  CHG  2   7   1   8  -1
M  END
> <FRED Chemgauss4 score>
-8.111322

$$$$
C90952384	P142286690
  -OEChem-05182014473D

 35 36  0     0  0  0  0  0  0999 V2000
  119.6216  104.9810  100.6321 C   0  0  0  0  0  0  0  0  0  0  0  0
  118.3021  104.8994  101.0770 C   0  0  0  0  0  0  0  0  0  0  0  0
  120.6580  105.1503  101.5503 C   0  0  0  0  0  0  0  0  0  0  0  0
  119.0554  105.1564  103.3582 C   0  0  0  0  0  0  0  0  0  0  0  0
  123.2599  104.5965  106.9070 C   0  0  0  0  0  0  0  0  0  0  0  0
  118.0190  104.9871  102.4400 C   0  0  0  0  0  0  0  0  0  0  0  0
  120.3749  105.2380  102.9133 C   0  0  0  0  0  0  0  0  0  0  0  0
  122.7057  105.3461  105.8907 C   0  0  0  0  0  0  0  0  0  0  0  0
  124.4291  106.6253  106.3420 C   0  0  0  0  0  0  0  0  0  0  0  0
  116.6430  104.9018  102.9024 C   0  0  0  0  0  0  0  0  0  0  0  0
  121.4784  104.9680  105.1693 C   0  0  0  0  0  0  0  0  0  0  0  0
  116.4043  104.3230  104.2668 C   0  0  0  0  0  0  0  0  0  0  0  0
  125.3911  107.7474  106.2857 C   0  0  0  0  0  0  0  0  0  0  0  0
  125.2605  108.6206  105.0256 C   0  0  0  0  0  0  0  0  0  0  0  0
  123.3745  106.5101  105.5656 N   0  0  0  0  0  0  0  0  0  0  0  0
  125.4563  107.8638  103.8182 N   0  0  0  0  0  0  0  0  0  0  0  0
  121.4117  105.4070  103.8315 N   0  0  0  0  0  0  0  0  0  0  0  0
  115.6569  105.2644  102.2571 O   0  0  0  0  0  0  0  0  0  0  0  0
  120.5808  104.3443  105.7316 O   0  0  0  0  0  0  0  0  0  0  0  0
  124.6773  105.3698  107.4852 S   0  0  0  0  0  0  0  0  0  0  0  0
  119.8423  104.9124   99.5709 H   0  0  0  0  0  0  0  0  0  0  0  0
  117.5029  104.7686  100.3522 H   0  0  0  0  0  0  0  0  0  0  0  0
  121.6827  105.2132  101.1923 H   0  0  0  0  0  0  0  0  0  0  0  0
  118.8345  105.2259  104.4213 H   0  0  0  0  0  0  0  0  0  0  0  0
  122.9163  103.6615  107.3269 H   0  0  0  0  0  0  0  0  0  0  0  0
  116.4120  105.0698  105.0764 H   0  0  0  0  0  0  0  0  0  0  0  0
  117.1266  103.5367  104.5360 H   0  0  0  0  0  0  0  0  0  0  0  0
  115.4175  103.8371  104.3674 H   0  0  0  0  0  0  0  0  0  0  0  0
  126.4272  107.3592  106.3255 H   0  0  0  0  0  0  0  0  0  0  0  0
  125.3022  108.3970  107.1789 H   0  0  0  0  0  0  0  0  0  0  0  0
  124.2630  109.0665  104.9604 H   0  0  0  0  0  0  0  0  0  0  0  0
  125.9970  109.4308  105.0307 H   0  0  0  0  0  0  0  0  0  0  0  0
  125.7701  108.3383  102.9867 H   0  0  0  0  0  0  0  0  0  0  0  0
  125.0888  106.9274  103.7607 H   0  0  0  0  0  0  0  0  0  0  0  0
  122.2332  105.9177  103.4879 H   0  0  0  0  0  0  0  0  0  0  0  0
  1  2  2  0  0  0  0
  1  3  1  0  0  0  0
  2  6  1  0  0  0  0
  3  7  2  0  0  0  0
  4  6  2  0  0  0  0
  4  7  1  0  0  0  0
  5  8  2  0  0  0  0
  5 20  1  0  0  0  0
  6 10  1  0  0  0  0
  7 17  1  0  0  0  0
  8 11  1  0  0  0  0
  8 15  1  0  0  0  0
  9 13  1  0  0  0  0
  9 15  2  0  0  0  0
  9 20  1  0  0  0  0
 10 12  1  0  0  0  0
 10 18  2  0  0  0  0
 11 17  1  0  0  0  0
 11 19  2  0  0  0  0
 13 14  1  0  0  0  0
 14 16  1  0  0  0  0
  1 21  1  0  0  0  0
  2 22  1  0  0  0  0
  3 23  1  0  0  0  0
  4 24  1  0  0  0  0
  5 25  1  0  0  0  0
 12 26  1  0  0  0  0
 12 27  1  0  0  0  0
 12 28  1  0  0  0  0
 13 29  1  0  0  0  0
 13 30  1  0  0  0  0
 14 31  1  0  0  0  0
 14 32  1  0  0  0  0
 16 33  1  0  0  0  0
 16 34  1  0  0  0  0
 17 35  1  0  0  0  0
M  END
> <FRED Chemgauss4 score>
-8.107868

$$$$
C85247868	P133396751
  -OEChem-05182014473D

 29 29  0     1  0  0  0  0  0999 V2000
  120.7943  105.8539  104.5082 C   0  0  0  0  0  0  0  0  0  0  0  0
  121.5359  104.7626  106.4952 C   0  0  0  0  0  0  0  0  0  0  0  0
  120.2747  104.0862  105.9924 C   0  0  0  0  0  0  0  0  0  0  0  0
  121.4941  106.1325  105.8250 C   0  0  1  0  0  0  0  0  0  0  0  0
  119.1958  104.0679  103.7108 C   0  0  0  0  0  0  0  0  0  0  0  0
  123.2900  107.3800  106.7727 C   0  0  0  0  0  0  0  0  0  0  0  0
  125.5833  106.3102  107.1003 C   0  0  0  0  0  0  0  0  0  0  0  0
  124.8063  107.5638  106.7099 C   0  0  1  0  0  0  0  0  0  0  0  0
  120.0979  104.6564  104.6767 N   0  0  0  0  0  0  0  0  0  0  0  0
  122.7907  106.6903  105.5888 N   0  0  0  0  0  0  0  0  0  0  0  0
  120.8126  106.5813  103.5264 O   0  0  0  0  0  0  0  0  0  0  0  0
  125.6437  106.2301  108.5211 O   0  0  0  0  0  0  0  0  0  0  0  0
  125.1915  107.9373  105.3865 O   0  0  0  0  0  0  0  0  0  0  0  0
  121.5801  104.8219  107.5869 H   0  0  0  0  0  0  0  0  0  0  0  0
  122.4105  104.1892  106.1598 H   0  0  0  0  0  0  0  0  0  0  0  0
  120.3858  103.0000  105.9311 H   0  0  0  0  0  0  0  0  0  0  0  0
  119.4009  104.3407  106.6006 H   0  0  0  0  0  0  0  0  0  0  0  0
  120.8632  106.8258  106.3997 H   0  0  0  0  0  0  0  0  0  0  0  0
  119.7450  103.4005  103.0416 H   0  0  0  0  0  0  0  0  0  0  0  0
  118.7185  104.8499  103.1140 H   0  0  0  0  0  0  0  0  0  0  0  0
  118.4184  103.4928  104.2211 H   0  0  0  0  0  0  0  0  0  0  0  0
  123.0213  106.7865  107.6531 H   0  0  0  0  0  0  0  0  0  0  0  0
  122.7933  108.3521  106.8587 H   0  0  0  0  0  0  0  0  0  0  0  0
  126.6083  106.3480  106.7189 H   0  0  0  0  0  0  0  0  0  0  0  0
  125.0892  105.4025  106.7391 H   0  0  0  0  0  0  0  0  0  0  0  0
  125.0983  108.3916  107.3670 H   0  0  0  0  0  0  0  0  0  0  0  0
  122.7396  107.3537  104.8141 H   0  0  0  0  0  0  0  0  0  0  0  0
  126.1423  105.4252  108.7322 H   0  0  0  0  0  0  0  0  0  0  0  0
  124.7343  108.7695  105.1934 H   0  0  0  0  0  0  0  0  0  0  0  0
  1  4  1  0  0  0  0
  1  9  1  0  0  0  0
  1 11  2  0  0  0  0
  2  3  1  0  0  0  0
  2  4  1  0  0  0  0
  3  9  1  0  0  0  0
  4 10  1  0  0  0  0
  5  9  1  0  0  0  0
  6  8  1  0  0  0  0
  6 10  1  0  0  0  0
  7  8  1  0  0  0  0
  7 12  1  0  0  0  0
  8 13  1  0  0  0  0
  2 14  1  0  0  0  0
  2 15  1  0  0  0  0
  3 16  1  0  0  0  0
  3 17  1  0  0  0  0
  4 18  1  0  0  0  0
  5 19  1  0  0  0  0
  5 20  1  0  0  0  0
  5 21  1  0  0  0  0
  6 22  1  0  0  0  0
  6 23  1  0  0  0  0
  7 24  1  0  0  0  0
  7 25  1  0  0  0  0
  8 26  1  0  0  0  0
 10 27  1  0  0  0  0
 12 28  1  0  0  0  0
 13 29  1  0  0  0  0
M  END
> <FRED Chemgauss4 score>
-8.103223

$$$$
C38536703	P150889820
  -OEChem-05182014473D

 35 36  0     1  0  0  0  0  0999 V2000
  118.3235  104.9084  100.1726 C   0  0  0  0  0  0  0  0  0  0  0  0
  117.8670  104.8663  101.4338 C   0  0  0  0  0  0  0  0  0  0  0  0
  119.7394  104.8581   99.8525 C   0  0  0  0  0  0  0  0  0  0  0  0
  120.6744  105.0840  100.7916 C   0  0  0  0  0  0  0  0  0  0  0  0
  120.0948  104.1701  104.0961 C   0  0  0  0  0  0  0  0  0  0  0  0
  120.9821  104.8169  103.3308 C   0  0  0  0  0  0  0  0  0  0  0  0
  118.9191  104.7895  102.4667 C   0  0  0  0  0  0  0  0  0  0  0  0
  125.7697  106.0180  108.5557 C   0  0  0  0  0  0  0  0  0  0  0  0
  124.1447  105.9289  105.1800 C   0  0  0  0  0  0  0  0  0  0  0  0
  120.2655  105.4457  102.1825 C   0  0  2  0  0  0  0  0  0  0  0  0
  122.4326  105.0034  103.5826 C   0  0  0  0  0  0  0  0  0  0  0  0
  125.7904  106.0666  107.0453 C   0  0  0  0  0  0  0  0  0  0  0  0
  122.6593  105.7056  104.9223 C   0  0  2  0  0  0  0  0  0  0  0  0
  118.8199  104.1548  103.5946 N   0  0  0  0  0  0  0  0  0  0  0  0
  127.0303  106.1347  109.1008 N   0  0  0  0  0  0  0  0  0  0  0  0
  122.0002  106.9865  104.9663 N   0  0  0  0  0  0  0  0  0  0  0  0
  124.4463  105.9231  106.5345 N   0  0  0  0  0  0  0  0  0  0  0  0
  124.7436  105.9309  109.2246 O   0  0  0  0  0  0  0  0  0  0  0  0
  124.9676  106.0540  104.2754 O   0  0  0  0  0  0  0  0  0  0  0  0
  117.6276  104.9243   99.3403 H   0  0  0  0  0  0  0  0  0  0  0  0
  116.8203  104.8156  101.6967 H   0  0  0  0  0  0  0  0  0  0  0  0
  120.0205  104.6371   98.8288 H   0  0  0  0  0  0  0  0  0  0  0  0
  121.7260  105.0695  100.5242 H   0  0  0  0  0  0  0  0  0  0  0  0
  120.3177  103.6531  105.0185 H   0  0  0  0  0  0  0  0  0  0  0  0
  120.2012  106.5315  102.3112 H   0  0  0  0  0  0  0  0  0  0  0  0
  122.8673  105.5819  102.7562 H   0  0  0  0  0  0  0  0  0  0  0  0
  122.9010  104.0102  103.5791 H   0  0  0  0  0  0  0  0  0  0  0  0
  126.3966  105.2536  106.6367 H   0  0  0  0  0  0  0  0  0  0  0  0
  126.1878  107.0305  106.7159 H   0  0  0  0  0  0  0  0  0  0  0  0
  122.2413  105.1167  105.7477 H   0  0  0  0  0  0  0  0  0  0  0  0
  127.8469  106.2402  108.5080 H   0  0  0  0  0  0  0  0  0  0  0  0
  127.1929  106.1218  110.1027 H   0  0  0  0  0  0  0  0  0  0  0  0
  122.3461  107.6921  105.5945 H   0  0  0  0  0  0  0  0  0  0  0  0
  121.0987  107.0867  104.5308 H   0  0  0  0  0  0  0  0  0  0  0  0
  123.6858  105.8128  107.1987 H   0  0  0  0  0  0  0  0  0  0  0  0
  1  2  2  0  0  0  0
  1  3  1  0  0  0  0
  2  7  1  0  0  0  0
  3  4  2  0  0  0  0
  4 10  1  0  0  0  0
  5  6  2  0  0  0  0
  5 14  1  0  0  0  0
  6 10  1  0  0  0  0
  6 11  1  0  0  0  0
  7 10  1  0  0  0  0
  7 14  2  0  0  0  0
  8 12  1  0  0  0  0
  8 15  1  0  0  0  0
  8 18  2  0  0  0  0
  9 13  1  0  0  0  0
  9 17  1  0  0  0  0
  9 19  2  0  0  0  0
 11 13  1  0  0  0  0
 12 17  1  0  0  0  0
 13 16  1  0  0  0  0
  1 20  1  0  0  0  0
  2 21  1  0  0  0  0
  3 22  1  0  0  0  0
  4 23  1  0  0  0  0
  5 24  1  0  0  0  0
 10 25  1  0  0  0  0
 11 26  1  0  0  0  0
 11 27  1  0  0  0  0
 12 28  1  0  0  0  0
 12 29  1  0  0  0  0
 13 30  1  0  0  0  0
 15 31  1  0  0  0  0
 15 32  1  0  0  0  0
 16 33  1  0  0  0  0
 16 34  1  0  0  0  0
 17 35  1  0  0  0  0
M  END
> <FRED Chemgauss4 score>
-8.098408

$$$$
C70215460	P108239596
  -OEChem-05182014473D

 34 35  0     1  0  0  0  0  0999 V2000
  119.9026  104.3063  103.8419 C   0  0  0  0  0  0  0  0  0  0  0  0
  118.7521  104.3550  103.0028 C   0  0  0  0  0  0  0  0  0  0  0  0
  119.5679  104.1797  105.1721 C   0  0  0  0  0  0  0  0  0  0  0  0
  117.5817  104.2636  103.7238 C   0  0  0  0  0  0  0  0  0  0  0  0
  124.1528  107.5167  107.7919 C   0  0  0  0  0  0  0  0  0  0  0  0
  120.4608  104.0958  106.3410 C   0  0  0  0  0  0  0  0  0  0  0  0
  121.8011  104.1095  106.2888 C   0  0  0  0  0  0  0  0  0  0  0  0
  122.6555  104.0130  107.4901 C   0  0  0  0  0  0  0  0  0  0  0  0
  124.0713  107.1256  104.6589 C   0  0  0  0  0  0  0  0  0  0  0  0
  125.5527  105.8677  108.9673 C   0  0  0  0  0  0  0  0  0  0  0  0
  124.3601  104.9386  108.9700 C   0  0  0  0  0  0  0  0  0  0  0  0
  123.6109  106.3292  106.9939 C   0  0  1  0  0  0  0  0  0  0  0  0
  124.4690  106.1571  105.7374 C   0  0  0  0  0  0  0  0  0  0  0  0
  125.1135  107.2195  108.7325 N   0  0  0  0  0  0  0  0  0  0  0  0
  123.5347  105.0671  107.7653 N   0  0  0  0  0  0  0  0  0  0  0  0
  123.8416  108.6737  107.5056 O   0  0  0  0  0  0  0  0  0  0  0  0
  122.5398  103.0045  108.1900 O   0  0  0  0  0  0  0  0  0  0  0  0
  122.9740  107.2154  104.1290 O   0  0  0  0  0  0  0  0  0  0  0  0
  125.1296  107.9148  104.3412 O   0  0  0  0  0  0  0  0  0  0  0  0
  117.8725  104.1200  105.4052 S   0  0  0  0  0  0  0  0  0  0  0  0
  115.8435  104.2922  102.9588 Br  0  0  0  0  0  0  0  0  0  0  0  0
  120.9217  104.3625  103.4796 H   0  0  0  0  0  0  0  0  0  0  0  0
  118.7917  104.4528  101.9252 H   0  0  0  0  0  0  0  0  0  0  0  0
  119.9631  103.9983  107.3041 H   0  0  0  0  0  0  0  0  0  0  0  0
  122.3333  104.1815  105.3453 H   0  0  0  0  0  0  0  0  0  0  0  0
  126.0646  105.8541  109.9310 H   0  0  0  0  0  0  0  0  0  0  0  0
  126.2597  105.5976  108.1831 H   0  0  0  0  0  0  0  0  0  0  0  0
  124.6850  103.8762  109.0318 H   0  0  0  0  0  0  0  0  0  0  0  0
  123.7525  105.1117  109.8845 H   0  0  0  0  0  0  0  0  0  0  0  0
  122.5985  106.6182  106.7047 H   0  0  0  0  0  0  0  0  0  0  0  0
  125.5145  106.3274  105.9998 H   0  0  0  0  0  0  0  0  0  0  0  0
  124.3447  105.1393  105.3638 H   0  0  0  0  0  0  0  0  0  0  0  0
  125.5156  107.9621  109.2654 H   0  0  0  0  0  0  0  0  0  0  0  0
  124.9055  108.5615  103.6384 H   0  0  0  0  0  0  0  0  0  0  0  0
  1  2  1  0  0  0  0
  1  3  2  0  0  0  0
  2  4  2  0  0  0  0
  3  6  1  0  0  0  0
  3 20  1  0  0  0  0
  4 20  1  0  0  0  0
  4 21  1  0  0  0  0
  5 12  1  0  0  0  0
  5 14  1  0  0  0  0
  5 16  2  0  0  0  0
  6  7  2  0  0  0  0
  7  8  1  0  0  0  0
  8 15  1  0  0  0  0
  8 17  2  0  0  0  0
  9 13  1  0  0  0  0
  9 18  2  0  0  0  0
  9 19  1  0  0  0  0
 10 11  1  0  0  0  0
 10 14  1  0  0  0  0
 11 15  1  0  0  0  0
 12 13  1  0  0  0  0
 12 15  1  0  0  0  0
  1 22  1  0  0  0  0
  2 23  1  0  0  0  0
  6 24  1  0  0  0  0
  7 25  1  0  0  0  0
 10 26  1  0  0  0  0
 10 27  1  0  0  0  0
 11 28  1  0  0  0  0
 11 29  1  0  0  0  0
 12 30  1  0  0  0  0
 13 31  1  0  0  0  0
 13 32  1  0  0  0  0
 14 33  1  0  0  0  0
 19 34  1  0  0  0  0
M  END
> <FRED Chemgauss4 score>
-8.088736

$$$$
C40319776	P61205905
  -OEChem-05182014473D

 40 41  0     1  0  0  0  0  0999 V2000
  124.5595  107.2142  107.1163 C   0  0  0  0  0  0  0  0  0  0  0  0
  124.1433  105.7201  108.9686 C   0  0  0  0  0  0  0  0  0  0  0  0
  126.3178  105.7636  107.9168 C   0  0  0  0  0  0  0  0  0  0  0  0
  123.6959  106.7017  108.0843 C   0  0  0  0  0  0  0  0  0  0  0  0
  125.8705  106.7451  107.0325 C   0  0  0  0  0  0  0  0  0  0  0  0
  125.4542  105.2510  108.8848 C   0  0  0  0  0  0  0  0  0  0  0  0
  122.3173  107.1946  108.1721 C   0  0  0  0  0  0  0  0  0  0  0  0
  121.5589  106.0905  105.0759 C   0  0  0  0  0  0  0  0  0  0  0  0
  119.9461  107.0315  107.5170 C   0  0  0  0  0  0  0  0  0  0  0  0
  118.9547  105.9379  107.8822 C   0  0  0  0  0  0  0  0  0  0  0  0
  120.6770  104.2569  106.5792 C   0  0  0  0  0  0  0  0  0  0  0  0
  121.5960  105.4697  106.4433 C   0  0  2  0  0  0  0  0  0  0  0  0
  120.7350  104.4488  101.9113 C   0  0  0  0  0  0  0  0  0  0  0  0
  121.1333  105.6057  102.8027 C   0  0  0  0  0  0  0  0  0  0  0  0
  121.3275  106.5403  107.4220 N   0  0  0  0  0  0  0  0  0  0  0  0
  126.7438  107.2634  106.0533 N   0  0  0  0  0  0  0  0  0  0  0  0
  125.9067  104.2584  109.7793 N   0  0  0  0  0  0  0  0  0  0  0  0
  122.1400  108.1581  108.9163 O   0  0  0  0  0  0  0  0  0  0  0  0
  121.8097  107.2667  104.8504 O   0  0  0  0  0  0  0  0  0  0  0  0
  121.2079  105.1471  104.1563 O   0  0  0  0  0  0  0  0  0  0  0  0
  118.9053  104.6608  106.5974 S   0  0  0  0  0  0  0  0  0  0  0  0
  124.2106  107.9796  106.4264 H   0  0  0  0  0  0  0  0  0  0  0  0
  123.4698  105.3202  109.7236 H   0  0  0  0  0  0  0  0  0  0  0  0
  127.3404  105.3977  107.8514 H   0  0  0  0  0  0  0  0  0  0  0  0
  119.6863  107.5034  106.5616 H   0  0  0  0  0  0  0  0  0  0  0  0
  119.8865  107.8204  108.2750 H   0  0  0  0  0  0  0  0  0  0  0  0
  119.2183  105.4701  108.8365 H   0  0  0  0  0  0  0  0  0  0  0  0
  117.9507  106.3616  107.9833 H   0  0  0  0  0  0  0  0  0  0  0  0
  120.8510  103.5503  105.7607 H   0  0  0  0  0  0  0  0  0  0  0  0
  120.8988  103.7303  107.5144 H   0  0  0  0  0  0  0  0  0  0  0  0
  122.6246  105.1080  106.5629 H   0  0  0  0  0  0  0  0  0  0  0  0
  121.4715  103.6423  101.9664 H   0  0  0  0  0  0  0  0  0  0  0  0
  119.7565  104.0546  102.2045 H   0  0  0  0  0  0  0  0  0  0  0  0
  120.6472  104.7764  100.8701 H   0  0  0  0  0  0  0  0  0  0  0  0
  120.3927  106.4088  102.7430 H   0  0  0  0  0  0  0  0  0  0  0  0
  122.1116  105.9978  102.5089 H   0  0  0  0  0  0  0  0  0  0  0  0
  126.3973  107.9319  105.3956 H   0  0  0  0  0  0  0  0  0  0  0  0
  127.6659  106.8852  105.9735 H   0  0  0  0  0  0  0  0  0  0  0  0
  125.2927  103.9335  110.4983 H   0  0  0  0  0  0  0  0  0  0  0  0
  126.8617  103.9650  109.7391 H   0  0  0  0  0  0  0  0  0  0  0  0
  1  4  1  0  0  0  0
  1  5  2  0  0  0  0
  2  4  2  0  0  0  0
  2  6  1  0  0  0  0
  3  5  1  0  0  0  0
  3  6  2  0  0  0  0
  4  7  1  0  0  0  0
  5 16  1  0  0  0  0
  6 17  1  0  0  0  0
  7 15  1  0  0  0  0
  7 18  2  0  0  0  0
  8 12  1  0  0  0  0
  8 19  2  0  0  0  0
  8 20  1  0  0  0  0
  9 10  1  0  0  0  0
  9 15  1  0  0  0  0
 10 21  1  0  0  0  0
 11 12  1  0  0  0  0
 11 21  1  0  0  0  0
 12 15  1  0  0  0  0
 13 14  1  0  0  0  0
 14 20  1  0  0  0  0
  1 22  1  0  0  0  0
  2 23  1  0  0  0  0
  3 24  1  0  0  0  0
  9 25  1  0  0  0  0
  9 26  1  0  0  0  0
 10 27  1  0  0  0  0
 10 28  1  0  0  0  0
 11 29  1  0  0  0  0
 11 30  1  0  0  0  0
 12 31  1  0  0  0  0
 13 32  1  0  0  0  0
 13 33  1  0  0  0  0
 13 34  1  0  0  0  0
 14 35  1  0  0  0  0
 14 36  1  0  0  0  0
 16 37  1  0  0  0  0
 16 38  1  0  0  0  0
 17 39  1  0  0  0  0
 17 40  1  0  0  0  0
M  END
> <FRED Chemgauss4 score>
-8.083290

$$$$
C40362617	P61274397
  -OEChem-05182014473D

 35 35  0     1  0  0  0  0  0999 V2000
  124.8647  105.6454  107.6120 C   0  0  0  0  0  0  0  0  0  0  0  0
  118.8413  104.4071  106.7319 C   0  0  0  0  0  0  0  0  0  0  0  0
  118.9998  106.1487  104.9141 C   0  0  0  0  0  0  0  0  0  0  0  0
  120.0460  103.6969  106.1234 C   0  0  0  0  0  0  0  0  0  0  0  0
  120.2012  105.4054  104.3397 C   0  0  0  0  0  0  0  0  0  0  0  0
  118.0619  105.1948  105.6686 C   0  0  0  0  0  0  0  0  0  0  0  0
  116.9031  105.9613  106.3018 C   0  0  0  0  0  0  0  0  0  0  0  0
  125.0976  103.1251  107.5320 C   0  0  0  0  0  0  0  0  0  0  0  0
  124.4379  104.3563  106.9264 C   0  0  1  0  0  0  0  0  0  0  0  0
  120.9220  104.6687  105.4137 N   0  0  0  0  0  0  0  0  0  0  0  0
  124.1301  106.0318  108.7013 N   0  0  0  0  0  0  0  0  0  0  0  0
  122.9677  104.2733  107.0233 N   0  0  0  0  0  0  0  0  0  0  0  0
  121.3109  106.1894  107.4399 O   0  0  0  0  0  0  0  0  0  0  0  0
  122.8737  106.3399  105.4703 O   0  0  0  0  0  0  0  0  0  0  0  0
  126.1602  106.5536  107.0643 S   0  0  0  0  0  0  0  0  0  0  0  0
  122.0374  105.5523  106.3569 S   0  0  0  0  0  0  0  0  0  0  0  0
  118.1852  103.6691  107.2075 H   0  0  0  0  0  0  0  0  0  0  0  0
  119.1829  105.0896  107.5209 H   0  0  0  0  0  0  0  0  0  0  0  0
  119.3503  106.9358  105.5941 H   0  0  0  0  0  0  0  0  0  0  0  0
  118.4556  106.6443  104.1018 H   0  0  0  0  0  0  0  0  0  0  0  0
  120.6164  103.2121  106.9291 H   0  0  0  0  0  0  0  0  0  0  0  0
  119.7197  102.9122  105.4241 H   0  0  0  0  0  0  0  0  0  0  0  0
  119.8822  104.7007  103.5569 H   0  0  0  0  0  0  0  0  0  0  0  0
  120.8815  106.1351  103.8770 H   0  0  0  0  0  0  0  0  0  0  0  0
  117.6388  104.4802  104.9473 H   0  0  0  0  0  0  0  0  0  0  0  0
  117.2863  106.6805  107.0241 H   0  0  0  0  0  0  0  0  0  0  0  0
  116.2350  105.2676  106.8102 H   0  0  0  0  0  0  0  0  0  0  0  0
  116.3462  106.4924  105.5313 H   0  0  0  0  0  0  0  0  0  0  0  0
  124.8799  103.0526  108.6027 H   0  0  0  0  0  0  0  0  0  0  0  0
  124.7316  102.2144  107.0453 H   0  0  0  0  0  0  0  0  0  0  0  0
  126.1862  103.1404  107.4116 H   0  0  0  0  0  0  0  0  0  0  0  0
  124.6757  104.3976  105.8573 H   0  0  0  0  0  0  0  0  0  0  0  0
  123.3442  105.4917  109.0477 H   0  0  0  0  0  0  0  0  0  0  0  0
  124.3602  106.8771  109.2131 H   0  0  0  0  0  0  0  0  0  0  0  0
  122.6371  103.8933  107.9200 H   0  0  0  0  0  0  0  0  0  0  0  0
  1  9  1  0  0  0  0
  1 11  1  0  0  0  0
  1 15  2  0  0  0  0
  2  4  1  0  0  0  0
  2  6  1  0  0  0  0
  3  5  1  0  0  0  0
  3  6  1  0  0  0  0
  4 10  1  0  0  0  0
  5 10  1  0  0  0  0
  6  7  1  0  0  0  0
  8  9  1  0  0  0  0
  9 12  1  0  0  0  0
 10 16  1  0  0  0  0
 12 16  1  0  0  0  0
 13 16  2  0  0  0  0
 14 16  2  0  0  0  0
  2 17  1  0  0  0  0
  2 18  1  0  0  0  0
  3 19  1  0  0  0  0
  3 20  1  0  0  0  0
  4 21  1  0  0  0  0
  4 22  1  0  0  0  0
  5 23  1  0  0  0  0
  5 24  1  0  0  0  0
  6 25  1  0  0  0  0
  7 26  1  0  0  0  0
  7 27  1  0  0  0  0
  7 28  1  0  0  0  0
  8 29  1  0  0  0  0
  8 30  1  0  0  0  0
  8 31  1  0  0  0  0
  9 32  1  0  0  0  0
 11 33  1  0  0  0  0
 11 34  1  0  0  0  0
 12 35  1  0  0  0  0
M  END
> <FRED Chemgauss4 score>
-8.083038

$$$$
C87900218	P137491256
  -OEChem-05182014473D

 34 35  0     0  0  0  0  0  0999 V2000
  122.0753  105.3759  107.3232 C   0  0  0  0  0  0  0  0  0  0  0  0
  123.4724  105.5663  107.2009 C   0  0  0  0  0  0  0  0  0  0  0  0
  121.4914  106.2530  106.4392 C   0  0  0  0  0  0  0  0  0  0  0  0
  123.6427  106.5461  106.2506 C   0  0  0  0  0  0  0  0  0  0  0  0
  120.0802  106.5178  106.1171 C   0  0  0  0  0  0  0  0  0  0  0  0
  119.6976  104.4852  100.8426 C   0  0  0  0  0  0  0  0  0  0  0  0
  120.8220  104.1526  101.8451 C   0  0  0  0  0  0  0  0  0  0  0  0
  118.8193  104.8490  102.0576 C   0  0  0  0  0  0  0  0  0  0  0  0
  120.1342  105.1348  102.8284 C   0  0  0  0  0  0  0  0  0  0  0  0
  118.0836  106.0112  104.7640 C   0  0  0  0  0  0  0  0  0  0  0  0
  120.1574  104.7553  104.2943 C   0  0  0  0  0  0  0  0  0  0  0  0
  124.9859  103.3772  107.0520 N   0  0  0  0  0  0  0  0  0  0  0  0
  119.4978  105.7537  105.0745 N   0  0  0  0  0  0  0  0  0  0  0  0
  119.5199  107.3799  106.7932 O   0  0  0  0  0  0  0  0  0  0  0  0
  125.9015  105.5302  108.1346 O   0  0  0  0  0  0  0  0  0  0  0  0
  124.1181  104.2114  109.3297 O   0  0  0  0  0  0  0  0  0  0  0  0
  122.4399  106.9699  105.7812 O   0  0  0  0  0  0  0  0  0  0  0  0
  124.6737  104.7248  108.0693 S   0  0  0  0  0  0  0  0  0  0  0  0
  125.3017  107.2456  105.6456 Br  0  0  0  0  0  0  0  0  0  0  0  0
  121.5583  104.6834  107.9731 H   0  0  0  0  0  0  0  0  0  0  0  0
  119.9251  105.3369  100.1914 H   0  0  0  0  0  0  0  0  0  0  0  0
  119.3430  103.6521  100.2309 H   0  0  0  0  0  0  0  0  0  0  0  0
  120.8218  103.1060  102.1716 H   0  0  0  0  0  0  0  0  0  0  0  0
  121.8321  104.4261  101.5296 H   0  0  0  0  0  0  0  0  0  0  0  0
  118.1540  105.7055  101.9207 H   0  0  0  0  0  0  0  0  0  0  0  0
  118.2377  104.0045  102.4454 H   0  0  0  0  0  0  0  0  0  0  0  0
  120.4790  106.1691  102.6861 H   0  0  0  0  0  0  0  0  0  0  0  0
  118.0021  106.7926  104.0039 H   0  0  0  0  0  0  0  0  0  0  0  0
  117.5526  106.3375  105.6624 H   0  0  0  0  0  0  0  0  0  0  0  0
  117.6079  105.1021  104.3864 H   0  0  0  0  0  0  0  0  0  0  0  0
  121.1876  104.6736  104.6286 H   0  0  0  0  0  0  0  0  0  0  0  0
  119.6457  103.8078  104.4337 H   0  0  0  0  0  0  0  0  0  0  0  0
  125.8723  103.3516  106.5333 H   0  0  0  0  0  0  0  0  0  0  0  0
  124.6523  102.4524  107.3498 H   0  0  0  0  0  0  0  0  0  0  0  0
  1  2  1  0  0  0  0
  1  3  2  0  0  0  0
  2  4  2  0  0  0  0
  2 18  1  0  0  0  0
  3  5  1  0  0  0  0
  3 17  1  0  0  0  0
  4 17  1  0  0  0  0
  4 19  1  0  0  0  0
  5 13  1  0  0  0  0
  5 14  2  0  0  0  0
  6  7  1  0  0  0  0
  6  8  1  0  0  0  0
  7  9  1  0  0  0  0
  8  9  1  0  0  0  0
  9 11  1  0  0  0  0
 10 13  1  0  0  0  0
 11 13  1  0  0  0  0
 12 18  1  0  0  0  0
 15 18  2  0  0  0  0
 16 18  2  0  0  0  0
  1 20  1  0  0  0  0
  6 21  1  0  0  0  0
  6 22  1  0  0  0  0
  7 23  1  0  0  0  0
  7 24  1  0  0  0  0
  8 25  1  0  0  0  0
  8 26  1  0  0  0  0
  9 27  1  0  0  0  0
 10 28  1  0  0  0  0
 10 29  1  0  0  0  0
 10 30  1  0  0  0  0
 11 31  1  0  0  0  0
 11 32  1  0  0  0  0
 12 33  1  0  0  0  0
 12 34  1  0  0  0  0
M  END
> <FRED Chemgauss4 score>
-8.076346

$$$$
C79910210	P124846163
  -OEChem-05182014473D

 35 36  0     1  0  0  0  0  0999 V2000
  125.1787  105.8106  108.6261 C   0  0  0  0  0  0  0  0  0  0  0  0
  125.5456  106.7322  107.7283 C   0  0  0  0  0  0  0  0  0  0  0  0
  123.2443  105.2143  107.3531 C   0  0  0  0  0  0  0  0  0  0  0  0
  123.9849  105.0063  108.4547 C   0  0  0  0  0  0  0  0  0  0  0  0
  124.7201  106.9575  106.5078 C   0  0  0  0  0  0  0  0  0  0  0  0
  115.8933  106.6109  105.8993 C   0  0  0  0  0  0  0  0  0  0  0  0
  121.4439  107.0216  105.6465 C   0  0  0  0  0  0  0  0  0  0  0  0
  116.2770  105.4903  104.9645 C   0  0  0  0  0  0  0  0  0  0  0  0
  117.6487  105.0649  105.4820 C   0  0  0  0  0  0  0  0  0  0  0  0
  118.2336  106.3394  106.0782 C   0  0  1  0  0  0  0  0  0  0  0  0
  122.6976  106.2896  105.2410 C   0  0  0  0  0  0  0  0  0  0  0  0
  119.0240  107.1546  105.0633 C   0  0  0  0  0  0  0  0  0  0  0  0
  117.0588  107.0508  106.5180 N   0  0  0  0  0  0  0  0  0  0  0  0
  123.5804  106.1553  106.3941 N   0  0  0  0  0  0  0  0  0  0  0  0
  123.6790  104.0861  109.4166 N   0  0  0  0  0  0  0  0  0  0  0  0
  120.3547  106.6191  104.8870 N   0  0  0  0  0  0  0  0  0  0  0  0
  125.0790  107.8102  105.6976 O   0  0  0  0  0  0  0  0  0  0  0  0
  114.7655  107.0571  106.0427 O   0  0  0  0  0  0  0  0  0  0  0  0
  121.4118  107.8627  106.5409 O   0  0  0  0  0  0  0  0  0  0  0  0
  125.7869  105.6534  109.5118 H   0  0  0  0  0  0  0  0  0  0  0  0
  126.4390  107.3312  107.8603 H   0  0  0  0  0  0  0  0  0  0  0  0
  122.3387  104.6456  107.1651 H   0  0  0  0  0  0  0  0  0  0  0  0
  115.5526  104.6739  105.0144 H   0  0  0  0  0  0  0  0  0  0  0  0
  116.3336  105.8818  103.9443 H   0  0  0  0  0  0  0  0  0  0  0  0
  117.5132  104.3189  106.2759 H   0  0  0  0  0  0  0  0  0  0  0  0
  118.2729  104.6125  104.7057 H   0  0  0  0  0  0  0  0  0  0  0  0
  118.8670  106.1267  106.9419 H   0  0  0  0  0  0  0  0  0  0  0  0
  122.4388  105.2944  104.8678 H   0  0  0  0  0  0  0  0  0  0  0  0
  123.2153  106.8477  104.4554 H   0  0  0  0  0  0  0  0  0  0  0  0
  119.1231  108.1916  105.3981 H   0  0  0  0  0  0  0  0  0  0  0  0
  118.5289  107.1450  104.0878 H   0  0  0  0  0  0  0  0  0  0  0  0
  117.0811  107.8140  107.1871 H   0  0  0  0  0  0  0  0  0  0  0  0
  124.2856  103.9992  110.2018 H   0  0  0  0  0  0  0  0  0  0  0  0
  122.8594  103.5321  109.3015 H   0  0  0  0  0  0  0  0  0  0  0  0
  120.4998  105.9128  104.1714 H   0  0  0  0  0  0  0  0  0  0  0  0
  1  2  2  0  0  0  0
  1  4  1  0  0  0  0
  2  5  1  0  0  0  0
  3  4  2  0  0  0  0
  3 14  1  0  0  0  0
  4 15  1  0  0  0  0
  5 14  1  0  0  0  0
  5 17  2  0  0  0  0
  6  8  1  0  0  0  0
  6 13  1  0  0  0  0
  6 18  2  0  0  0  0
  7 11  1  0  0  0  0
  7 16  1  0  0  0  0
  7 19  2  0  0  0  0
  8  9  1  0  0  0  0
  9 10  1  0  0  0  0
 10 12  1  0  0  0  0
 10 13  1  0  0  0  0
 11 14  1  0  0  0  0
 12 16  1  0  0  0  0
  1 20  1  0  0  0  0
  2 21  1  0  0  0  0
  3 22  1  0  0  0  0
  8 23  1  0  0  0  0
  8 24  1  0  0  0  0
  9 25  1  0  0  0  0
  9 26  1  0  0  0  0
 10 27  1  0  0  0  0
 11 28  1  0  0  0  0
 11 29  1  0  0  0  0
 12 30  1  0  0  0  0
 12 31  1  0  0  0  0
 13 32  1  0  0  0  0
 15 33  1  0  0  0  0
 15 34  1  0  0  0  0
 16 35  1  0  0  0  0
M  END
> <FRED Chemgauss4 score>
-8.071088

$$$$
C83139589	P129949964
  -OEChem-05182014473D

 31 32  0     0  0  0  0  0  0999 V2000
  120.4750  105.3744  106.9183 C   0  0  0  0  0  0  0  0  0  0  0  0
  121.8461  105.3026  106.6984 C   0  0  0  0  0  0  0  0  0  0  0  0
  120.3724  107.1716  105.3639 C   0  0  0  0  0  0  0  0  0  0  0  0
  119.7169  106.3239  106.2423 C   0  0  0  0  0  0  0  0  0  0  0  0
  122.4062  106.1959  105.7994 C   0  0  0  0  0  0  0  0  0  0  0  0
  124.6469  104.1680  109.3216 C   0  0  0  0  0  0  0  0  0  0  0  0
  126.0155  104.4033  108.7463 C   0  0  0  0  0  0  0  0  0  0  0  0
  124.7993  104.9192  108.0280 C   0  0  0  0  0  0  0  0  0  0  0  0
  118.2484  106.4245  106.4551 C   0  0  0  0  0  0  0  0  0  0  0  0
  124.5244  106.3820  107.9735 C   0  0  0  0  0  0  0  0  0  0  0  0
  121.7022  107.1320  105.1242 N   0  0  0  0  0  0  0  0  0  0  0  0
  123.7353  106.1884  105.5344 N   0  5  0  0  0  0  0  0  0  0  0  0
  117.4526  105.5749  105.5239 N   0  3  0  0  0  0  0  0  0  0  0  0
  124.4584  108.4693  106.5092 O   0  0  0  0  0  0  0  0  0  0  0  0
  126.1941  106.7615  106.0832 O   0  0  0  0  0  0  0  0  0  0  0  0
  124.7871  107.0528  106.3547 S   0  0  0  0  0  0  0  0  0  0  0  0
  120.0065  104.6874  107.6176 H   0  0  0  0  0  0  0  0  0  0  0  0
  122.4430  104.5624  107.2222 H   0  0  0  0  0  0  0  0  0  0  0  0
  119.8333  107.9321  104.8073 H   0  0  0  0  0  0  0  0  0  0  0  0
  124.2556  103.1585  109.2926 H   0  0  0  0  0  0  0  0  0  0  0  0
  124.3663  104.7327  110.2021 H   0  0  0  0  0  0  0  0  0  0  0  0
  126.6527  105.1258  109.2414 H   0  0  0  0  0  0  0  0  0  0  0  0
  126.5405  103.5515  108.3318 H   0  0  0  0  0  0  0  0  0  0  0  0
  124.5028  104.4154  107.1159 H   0  0  0  0  0  0  0  0  0  0  0  0
  117.9602  106.1157  107.4709 H   0  0  0  0  0  0  0  0  0  0  0  0
  117.8848  107.4533  106.3152 H   0  0  0  0  0  0  0  0  0  0  0  0
  125.1792  106.9521  108.6521 H   0  0  0  0  0  0  0  0  0  0  0  0
  123.4812  106.6177  108.2382 H   0  0  0  0  0  0  0  0  0  0  0  0
  117.6078  104.5830  105.7202 H   0  0  0  0  0  0  0  0  0  0  0  0
  117.7210  105.7569  104.5534 H   0  0  0  0  0  0  0  0  0  0  0  0
  116.4533  105.7704  105.6237 H   0  0  0  0  0  0  0  0  0  0  0  0
  1  2  1  0  0  0  0
  1  4  2  0  0  0  0
  2  5  2  0  0  0  0
  3  4  1  0  0  0  0
  3 11  2  0  0  0  0
  4  9  1  0  0  0  0
  5 11  1  0  0  0  0
  5 12  1  0  0  0  0
  6  7  1  0  0  0  0
  6  8  1  0  0  0  0
  7  8  1  0  0  0  0
  8 10  1  0  0  0  0
  9 13  1  0  0  0  0
 10 16  1  0  0  0  0
 12 16  1  0  0  0  0
 14 16  2  0  0  0  0
 15 16  2  0  0  0  0
  1 17  1  0  0  0  0
  2 18  1  0  0  0  0
  3 19  1  0  0  0  0
  6 20  1  0  0  0  0
  6 21  1  0  0  0  0
  7 22  1  0  0  0  0
  7 23  1  0  0  0  0
  8 24  1  0  0  0  0
  9 25  1  0  0  0  0
  9 26  1  0  0  0  0
 10 27  1  0  0  0  0
 10 28  1  0  0  0  0
 13 29  1  0  0  0  0
 13 30  1  0  0  0  0
 13 31  1  0  0  0  0
M  CHG  2  12  -1  13   1
M  END
> <FRED Chemgauss4 score>
-8.067396

$$$$
C85252515	P133382402
  -OEChem-05182014473D

 27 27  0     1  0  0  0  0  0999 V2000
  119.9221  104.2795  107.0670 C   0  0  0  0  0  0  0  0  0  0  0  0
  118.9525  103.8883  106.1676 C   0  0  0  0  0  0  0  0  0  0  0  0
  120.7694  105.1807  105.2560 C   0  0  0  0  0  0  0  0  0  0  0  0
  123.8944  108.7408  106.8760 C   0  0  0  0  0  0  0  0  0  0  0  0
  121.6935  105.9348  104.3440 C   0  0  0  0  0  0  0  0  0  0  0  0
  123.5242  106.5233  105.7804 C   0  0  0  0  0  0  0  0  0  0  0  0
  125.8378  107.1460  106.7154 C   0  0  0  0  0  0  0  0  0  0  0  0
  124.5523  107.6400  106.0353 C   0  0  2  0  0  0  0  0  0  0  0  0
  120.9649  105.0204  106.5460 N   0  0  0  0  0  0  0  0  0  0  0  0
  122.3849  107.0170  105.0397 N   0  0  0  0  0  0  0  0  0  0  0  0
  125.6556  107.0208  108.1172 O   0  0  0  0  0  0  0  0  0  0  0  0
  124.9089  108.2374  104.7853 O   0  0  0  0  0  0  0  0  0  0  0  0
  119.3515  104.4675  104.6034 S   0  0  0  0  0  0  0  0  0  0  0  0
  119.9159  104.0492  108.1240 H   0  0  0  0  0  0  0  0  0  0  0  0
  118.0573  103.3108  106.3494 H   0  0  0  0  0  0  0  0  0  0  0  0
  124.6023  109.5537  107.0759 H   0  0  0  0  0  0  0  0  0  0  0  0
  123.0131  109.1623  106.3818 H   0  0  0  0  0  0  0  0  0  0  0  0
  123.5889  108.3530  107.8547 H   0  0  0  0  0  0  0  0  0  0  0  0
  122.4518  105.2655  103.9233 H   0  0  0  0  0  0  0  0  0  0  0  0
  121.1448  106.3735  103.5040 H   0  0  0  0  0  0  0  0  0  0  0  0
  123.1736  106.0895  106.7230 H   0  0  0  0  0  0  0  0  0  0  0  0
  123.9813  105.7184  105.1936 H   0  0  0  0  0  0  0  0  0  0  0  0
  126.6733  107.8294  106.5269 H   0  0  0  0  0  0  0  0  0  0  0  0
  126.1347  106.1714  106.3102 H   0  0  0  0  0  0  0  0  0  0  0  0
  121.7263  107.4701  105.6784 H   0  0  0  0  0  0  0  0  0  0  0  0
  126.4986  106.7071  108.4845 H   0  0  0  0  0  0  0  0  0  0  0  0
  124.0835  108.5566  104.3924 H   0  0  0  0  0  0  0  0  0  0  0  0
  1  2  2  0  0  0  0
  1  9  1  0  0  0  0
  2 13  1  0  0  0  0
  3  5  1  0  0  0  0
  3  9  2  0  0  0  0
  3 13  1  0  0  0  0
  4  8  1  0  0  0  0
  5 10  1  0  0  0  0
  6  8  1  0  0  0  0
  6 10  1  0  0  0  0
  7  8  1  0  0  0  0
  7 11  1  0  0  0  0
  8 12  1  0  0  0  0
  1 14  1  0  0  0  0
  2 15  1  0  0  0  0
  4 16  1  0  0  0  0
  4 17  1  0  0  0  0
  4 18  1  0  0  0  0
  5 19  1  0  0  0  0
  5 20  1  0  0  0  0
  6 21  1  0  0  0  0
  6 22  1  0  0  0  0
  7 23  1  0  0  0  0
  7 24  1  0  0  0  0
 10 25  1  0  0  0  0
 11 26  1  0  0  0  0
 12 27  1  0  0  0  0
M  END
> <FRED Chemgauss4 score>
-8.067204

$$$$
C91499904	P143187935
  -OEChem-05182014473D

 36 38  0     1  0  0  0  0  0999 V2000
  118.5760  106.3736  103.8783 C   0  0  0  0  0  0  0  0  0  0  0  0
  117.4935  106.0227  103.0633 C   0  0  0  0  0  0  0  0  0  0  0  0
  118.2780  103.7275  102.9183 C   0  0  0  0  0  0  0  0  0  0  0  0
  124.5868  105.1842  107.4854 C   0  0  0  0  0  0  0  0  0  0  0  0
  124.0251  106.9536  108.6640 C   0  0  0  0  0  0  0  0  0  0  0  0
  121.2314  104.1155  104.9782 C   0  0  0  0  0  0  0  0  0  0  0  0
  119.5255  105.3905  104.2207 C   0  0  0  0  0  0  0  0  0  0  0  0
  123.4916  105.8205  108.1000 C   0  0  0  0  0  0  0  0  0  0  0  0
  119.3550  104.0927  103.7338 C   0  0  0  0  0  0  0  0  0  0  0  0
  117.3488  104.7194  102.5919 C   0  0  0  0  0  0  0  0  0  0  0  0
  120.7136  105.3899  105.0040 C   0  0  0  0  0  0  0  0  0  0  0  0
  119.7453  106.1839  107.9767 C   0  0  0  0  0  0  0  0  0  0  0  0
  122.0615  105.3646  108.1337 C   0  0  0  0  0  0  0  0  0  0  0  0
  125.7295  105.8573  107.6438 N   0  0  0  0  0  0  0  0  0  0  0  0
  120.4052  103.3404  104.2094 N   0  0  0  0  0  0  0  0  0  0  0  0
  125.3554  106.9283  108.3643 N   0  0  0  0  0  0  0  0  0  0  0  0
  116.2456  104.3931  101.7713 N   0  0  0  0  0  0  0  0  0  0  0  0
  121.1466  106.3589  107.5174 N   0  0  1  0  0  0  0  0  0  0  0  0
  122.8400  106.7690  105.5912 O   0  0  0  0  0  0  0  0  0  0  0  0
  120.6233  107.9376  105.5219 O   0  0  0  0  0  0  0  0  0  0  0  0
  121.3890  106.7197  105.8328 S   0  0  0  0  0  0  0  0  0  0  0  0
  118.6739  107.3941  104.2375 H   0  0  0  0  0  0  0  0  0  0  0  0
  116.7635  106.7856  102.8022 H   0  0  0  0  0  0  0  0  0  0  0  0
  118.1727  102.7097  102.5554 H   0  0  0  0  0  0  0  0  0  0  0  0
  124.6026  104.2579  106.9284 H   0  0  0  0  0  0  0  0  0  0  0  0
  123.5897  107.7587  109.2386 H   0  0  0  0  0  0  0  0  0  0  0  0
  122.1129  103.6889  105.4365 H   0  0  0  0  0  0  0  0  0  0  0  0
  119.0996  106.9295  107.5055 H   0  0  0  0  0  0  0  0  0  0  0  0
  119.6857  106.3023  109.0620 H   0  0  0  0  0  0  0  0  0  0  0  0
  119.3827  105.1869  107.7125 H   0  0  0  0  0  0  0  0  0  0  0  0
  121.9450  104.4188  107.5934 H   0  0  0  0  0  0  0  0  0  0  0  0
  121.7273  105.1948  109.1626 H   0  0  0  0  0  0  0  0  0  0  0  0
  120.5450  102.3578  104.0187 H   0  0  0  0  0  0  0  0  0  0  0  0
  126.0629  107.6066  108.6176 H   0  0  0  0  0  0  0  0  0  0  0  0
  115.5593  105.0929  101.5802 H   0  0  0  0  0  0  0  0  0  0  0  0
  116.1236  103.4468  101.4765 H   0  0  0  0  0  0  0  0  0  0  0  0
  1  2  1  0  0  0  0
  1  7  2  0  0  0  0
  2 10  2  0  0  0  0
  3  9  2  0  0  0  0
  3 10  1  0  0  0  0
  4  8  1  0  0  0  0
  4 14  2  0  0  0  0
  5  8  2  0  0  0  0
  5 16  1  0  0  0  0
  6 11  2  0  0  0  0
  6 15  1  0  0  0  0
  7  9  1  0  0  0  0
  7 11  1  0  0  0  0
  8 13  1  0  0  0  0
  9 15  1  0  0  0  0
 10 17  1  0  0  0  0
 11 21  1  0  0  0  0
 12 18  1  0  0  0  0
 13 18  1  0  0  0  0
 14 16  1  0  0  0  0
 18 21  1  0  0  0  0
 19 21  2  0  0  0  0
 20 21  2  0  0  0  0
  1 22  1  0  0  0  0
  2 23  1  0  0  0  0
  3 24  1  0  0  0  0
  4 25  1  0  0  0  0
  5 26  1  0  0  0  0
  6 27  1  0  0  0  0
 12 28  1  0  0  0  0
 12 29  1  0  0  0  0
 12 30  1  0  0  0  0
 13 31  1  0  0  0  0
 13 32  1  0  0  0  0
 15 33  1  0  0  0  0
 16 34  1  0  0  0  0
 17 35  1  0  0  0  0
 17 36  1  0  0  0  0
M  END
> <FRED Chemgauss4 score>
-8.058811

$$$$
C79518003	P124270678
  -OEChem-05182014473D

 44 45  0     1  0  0  0  0  0999 V2000
  119.4513  104.6079  103.6931 C   0  0  0  0  0  0  0  0  0  0  0  0
  119.5524  104.2492  107.2448 C   0  0  0  0  0  0  0  0  0  0  0  0
  120.0965  103.4202  100.2879 C   0  0  0  0  0  0  0  0  0  0  0  0
  121.0474  104.2552  107.5632 C   0  0  0  0  0  0  0  0  0  0  0  0
  119.3346  104.3687  101.1977 C   0  0  0  0  0  0  0  0  0  0  0  0
  119.2734  103.5459  105.9202 C   0  0  0  0  0  0  0  0  0  0  0  0
  121.5248  104.1238  105.0869 C   0  0  0  0  0  0  0  0  0  0  0  0
  120.7003  102.4314  101.2579 C   0  0  0  0  0  0  0  0  0  0  0  0
  121.8572  104.8478  106.3995 C   0  0  2  0  0  0  0  0  0  0  0  0
  120.2426  104.5411  102.4202 C   0  0  1  0  0  0  0  0  0  0  0  0
  121.1703  105.7475  102.3032 C   0  0  0  0  0  0  0  0  0  0  0  0
  123.3539  104.7803  106.6918 C   0  0  0  0  0  0  0  0  0  0  0  0
  124.1068  105.3876  105.6074 N   0  5  0  0  0  0  0  0  0  0  0  0
  120.0761  104.1281  104.8436 N   0  0  0  0  0  0  0  0  0  0  0  0
  124.8867  107.1709  107.2560 N   0  0  0  0  0  0  0  0  0  0  0  0
  121.0922  103.2821  102.4282 N   0  3  0  0  0  0  0  0  0  0  0  0
  118.3099  105.0757  103.6690 O   0  0  0  0  0  0  0  0  0  0  0  0
  125.0274  107.6529  104.7796 O   0  0  0  0  0  0  0  0  0  0  0  0
  122.8175  107.6068  105.8736 O   0  0  0  0  0  0  0  0  0  0  0  0
  124.1251  106.9777  105.7085 S   0  0  0  0  0  0  0  0  0  0  0  0
  119.0020  103.7550  108.0528 H   0  0  0  0  0  0  0  0  0  0  0  0
  119.1922  105.2842  107.1915 H   0  0  0  0  0  0  0  0  0  0  0  0
  119.4116  102.9134   99.5977 H   0  0  0  0  0  0  0  0  0  0  0  0
  120.8570  103.9339   99.6928 H   0  0  0  0  0  0  0  0  0  0  0  0
  121.2236  104.8336  108.4776 H   0  0  0  0  0  0  0  0  0  0  0  0
  121.3782  103.2285  107.7652 H   0  0  0  0  0  0  0  0  0  0  0  0
  119.1819  105.3302  100.6855 H   0  0  0  0  0  0  0  0  0  0  0  0
  118.3433  103.9693  101.4505 H   0  0  0  0  0  0  0  0  0  0  0  0
  119.5354  102.4832  105.9865 H   0  0  0  0  0  0  0  0  0  0  0  0
  118.2055  103.6057  105.6882 H   0  0  0  0  0  0  0  0  0  0  0  0
  122.0742  104.5843  104.2634 H   0  0  0  0  0  0  0  0  0  0  0  0
  121.8380  103.0733  105.1330 H   0  0  0  0  0  0  0  0  0  0  0  0
  120.0051  101.6631  101.5999 H   0  0  0  0  0  0  0  0  0  0  0  0
  121.6183  101.9823  100.8704 H   0  0  0  0  0  0  0  0  0  0  0  0
  121.5762  105.9044  106.2919 H   0  0  0  0  0  0  0  0  0  0  0  0
  121.7424  105.6926  101.3759 H   0  0  0  0  0  0  0  0  0  0  0  0
  121.8650  105.7697  103.1441 H   0  0  0  0  0  0  0  0  0  0  0  0
  120.5882  106.6701  102.3033 H   0  0  0  0  0  0  0  0  0  0  0  0
  123.6350  103.7318  106.8306 H   0  0  0  0  0  0  0  0  0  0  0  0
  123.5469  105.2892  107.6413 H   0  0  0  0  0  0  0  0  0  0  0  0
  125.8273  107.5858  107.2464 H   0  0  0  0  0  0  0  0  0  0  0  0
  124.2953  107.5552  108.0042 H   0  0  0  0  0  0  0  0  0  0  0  0
  120.9635  102.7612  103.3064 H   0  0  0  0  0  0  0  0  0  0  0  0
  122.0955  103.5058  102.3782 H   0  0  0  0  0  0  0  0  0  0  0  0
  1 10  1  0  0  0  0
  1 14  1  0  0  0  0
  1 17  2  0  0  0  0
  2  4  1  0  0  0  0
  2  6  1  0  0  0  0
  3  5  1  0  0  0  0
  3  8  1  0  0  0  0
  4  9  1  0  0  0  0
  5 10  1  0  0  0  0
  6 14  1  0  0  0  0
  7  9  1  0  0  0  0
  7 14  1  0  0  0  0
  8 16  1  0  0  0  0
  9 12  1  0  0  0  0
 10 11  1  0  0  0  0
 10 16  1  0  0  0  0
 12 13  1  0  0  0  0
 13 20  1  0  0  0  0
 15 20  1  0  0  0  0
 18 20  2  0  0  0  0
 19 20  2  0  0  0  0
  2 21  1  0  0  0  0
  2 22  1  0  0  0  0
  3 23  1  0  0  0  0
  3 24  1  0  0  0  0
  4 25  1  0  0  0  0
  4 26  1  0  0  0  0
  5 27  1  0  0  0  0
  5 28  1  0  0  0  0
  6 29  1  0  0  0  0
  6 30  1  0  0  0  0
  7 31  1  0  0  0  0
  7 32  1  0  0  0  0
  8 33  1  0  0  0  0
  8 34  1  0  0  0  0
  9 35  1  0  0  0  0
 11 36  1  0  0  0  0
 11 37  1  0  0  0  0
 11 38  1  0  0  0  0
 12 39  1  0  0  0  0
 12 40  1  0  0  0  0
 15 41  1  0  0  0  0
 15 42  1  0  0  0  0
 16 43  1  0  0  0  0
 16 44  1  0  0  0  0
M  CHG  2  13  -1  16   1
M  END
> <FRED Chemgauss4 score>
-8.056749

$$$$
C82561209	P129033956
  -OEChem-05182014473D

 28 28  0     1  0  0  0  0  0999 V2000
  121.7658  106.0156  105.1477 C   0  0  0  0  0  0  0  0  0  0  0  0
  123.6067  106.6354  105.8592 C   0  0  0  0  0  0  0  0  0  0  0  0
  118.9133  106.4277  106.2127 C   0  0  0  0  0  0  0  0  0  0  0  0
  120.7567  104.9965  103.0900 C   0  0  0  0  0  0  0  0  0  0  0  0
  119.2675  105.4850  105.0690 C   0  0  0  0  0  0  0  0  0  0  0  0
  125.9185  106.2845  106.8276 C   0  0  0  0  0  0  0  0  0  0  0  0
  120.5189  105.9288  104.2842 C   0  0  1  0  0  0  0  0  0  0  0  0
  124.9058  107.2500  106.1643 C   0  0  1  0  0  0  0  0  0  0  0  0
  122.7652  106.9095  104.8946 N   0  0  0  0  0  0  0  0  0  0  0  0
  121.9519  105.2200  106.2050 N   0  0  0  0  0  0  0  0  0  0  0  0
  125.5292  107.8510  104.9842 N   0  0  0  0  0  0  0  0  0  0  0  0
  123.1982  105.6387  106.6876 O   0  0  0  0  0  0  0  0  0  0  0  0
  125.6300  106.1263  108.2130 O   0  0  0  0  0  0  0  0  0  0  0  0
  118.7851  107.4465  105.8326 H   0  0  0  0  0  0  0  0  0  0  0  0
  117.9788  106.1353  106.7010 H   0  0  0  0  0  0  0  0  0  0  0  0
  119.7069  106.4456  106.9663 H   0  0  0  0  0  0  0  0  0  0  0  0
  120.9745  103.9712  103.4085 H   0  0  0  0  0  0  0  0  0  0  0  0
  119.8720  104.9634  102.4450 H   0  0  0  0  0  0  0  0  0  0  0  0
  121.5997  105.3443  102.4823 H   0  0  0  0  0  0  0  0  0  0  0  0
  119.3921  104.4707  105.4666 H   0  0  0  0  0  0  0  0  0  0  0  0
  118.4114  105.4472  104.3837 H   0  0  0  0  0  0  0  0  0  0  0  0
  125.8517  105.2958  106.3604 H   0  0  0  0  0  0  0  0  0  0  0  0
  126.9466  106.6501  106.7301 H   0  0  0  0  0  0  0  0  0  0  0  0
  120.3102  106.9246  103.8696 H   0  0  0  0  0  0  0  0  0  0  0  0
  124.7971  108.1144  106.8568 H   0  0  0  0  0  0  0  0  0  0  0  0
  126.5178  107.9668  104.9878 H   0  0  0  0  0  0  0  0  0  0  0  0
  124.9367  108.3008  104.3228 H   0  0  0  0  0  0  0  0  0  0  0  0
  126.2949  105.5149  108.5669 H   0  0  0  0  0  0  0  0  0  0  0  0
  1  7  1  0  0  0  0
  1  9  1  0  0  0  0
  1 10  2  0  0  0  0
  2  8  1  0  0  0  0
  2  9  2  0  0  0  0
  2 12  1  0  0  0  0
  3  5  1  0  0  0  0
  4  7  1  0  0  0  0
  5  7  1  0  0  0  0
  6  8  1  0  0  0  0
  6 13  1  0  0  0  0
  8 11  1  0  0  0  0
 10 12  1  0  0  0  0
  3 14  1  0  0  0  0
  3 15  1  0  0  0  0
  3 16  1  0  0  0  0
  4 17  1  0  0  0  0
  4 18  1  0  0  0  0
  4 19  1  0  0  0  0
  5 20  1  0  0  0  0
  5 21  1  0  0  0  0
  6 22  1  0  0  0  0
  6 23  1  0  0  0  0
  7 24  1  0  0  0  0
  8 25  1  0  0  0  0
 11 26  1  0  0  0  0
 11 27  1  0  0  0  0
 13 28  1  0  0  0  0
M  END
> <FRED Chemgauss4 score>
-8.055976

$$$$
C87599797	P137038360
  -OEChem-05182014473D

 30 31  0     1  0  0  0  0  0999 V2000
  124.4617  106.3914  105.7159 C   0  0  0  0  0  0  0  0  0  0  0  0
  123.4313  107.2289  106.1658 C   0  0  0  0  0  0  0  0  0  0  0  0
  119.2789  104.7358  102.3690 C   0  0  0  0  0  0  0  0  0  0  0  0
  120.7264  104.3376  102.5150 C   0  0  0  0  0  0  0  0  0  0  0  0
  118.6425  104.0292  103.5443 C   0  0  0  0  0  0  0  0  0  0  0  0
  120.9127  104.2946  104.0243 C   0  0  1  0  0  0  0  0  0  0  0  0
  121.4091  105.6142  104.5987 C   0  0  0  0  0  0  0  0  0  0  0  0
  121.5420  105.5459  106.1235 C   0  0  0  0  0  0  0  0  0  0  0  0
  122.0709  106.8592  106.7230 C   0  0  2  0  0  0  0  0  0  0  0  0
  125.4970  107.1283  105.3036 N   0  0  0  0  0  0  0  0  0  0  0  0
  123.8013  108.5069  106.0454 N   0  0  0  0  0  0  0  0  0  0  0  0
  125.0329  108.3680  105.5290 N   0  0  0  0  0  0  0  0  0  0  0  0
  121.1638  107.9615  106.5033 N   0  0  0  0  0  0  0  0  0  0  0  0
  119.6213  104.0119  104.5918 O   0  0  0  0  0  0  0  0  0  0  0  0
  124.5137  105.3139  105.6670 H   0  0  0  0  0  0  0  0  0  0  0  0
  119.1165  105.8166  102.3800 H   0  0  0  0  0  0  0  0  0  0  0  0
  118.8772  104.3382  101.4295 H   0  0  0  0  0  0  0  0  0  0  0  0
  120.9647  103.3805  102.0312 H   0  0  0  0  0  0  0  0  0  0  0  0
  121.3679  105.1091  102.0611 H   0  0  0  0  0  0  0  0  0  0  0  0
  117.7706  104.5787  103.9125 H   0  0  0  0  0  0  0  0  0  0  0  0
  118.3382  103.0071  103.3060 H   0  0  0  0  0  0  0  0  0  0  0  0
  121.5833  103.4898  104.3115 H   0  0  0  0  0  0  0  0  0  0  0  0
  122.3762  105.8577  104.1445 H   0  0  0  0  0  0  0  0  0  0  0  0
  120.7093  106.4114  104.3218 H   0  0  0  0  0  0  0  0  0  0  0  0
  120.5581  105.3192  106.5550 H   0  0  0  0  0  0  0  0  0  0  0  0
  122.2028  104.7099  106.3876 H   0  0  0  0  0  0  0  0  0  0  0  0
  122.1379  106.7457  107.8123 H   0  0  0  0  0  0  0  0  0  0  0  0
  125.5993  109.1806  105.3135 H   0  0  0  0  0  0  0  0  0  0  0  0
  121.5207  108.8995  106.5478 H   0  0  0  0  0  0  0  0  0  0  0  0
  120.1749  107.7853  106.5145 H   0  0  0  0  0  0  0  0  0  0  0  0
  1  2  1  0  0  0  0
  1 10  2  0  0  0  0
  2  9  1  0  0  0  0
  2 11  2  0  0  0  0
  3  4  1  0  0  0  0
  3  5  1  0  0  0  0
  4  6  1  0  0  0  0
  5 14  1  0  0  0  0
  6  7  1  0  0  0  0
  6 14  1  0  0  0  0
  7  8  1  0  0  0  0
  8  9  1  0  0  0  0
  9 13  1  0  0  0  0
 10 12  1  0  0  0  0
 11 12  1  0  0  0  0
  1 15  1  0  0  0  0
  3 16  1  0  0  0  0
  3 17  1  0  0  0  0
  4 18  1  0  0  0  0
  4 19  1  0  0  0  0
  5 20  1  0  0  0  0
  5 21  1  0  0  0  0
  6 22  1  0  0  0  0
  7 23  1  0  0  0  0
  7 24  1  0  0  0  0
  8 25  1  0  0  0  0
  8 26  1  0  0  0  0
  9 27  1  0  0  0  0
 12 28  1  0  0  0  0
 13 29  1  0  0  0  0
 13 30  1  0  0  0  0
M  END
> <FRED Chemgauss4 score>
-8.045506

$$$$
C72199958	P112158429
  -OEChem-05182014473D

 47 48  0     1  0  0  0  0  0999 V2000
  124.7623  103.9373  108.1563 C   0  0  0  0  0  0  0  0  0  0  0  0
  126.7554  105.2797  108.4068 C   0  0  0  0  0  0  0  0  0  0  0  0
  124.2037  104.9192  107.3381 C   0  0  0  0  0  0  0  0  0  0  0  0
  126.1968  106.2616  107.5885 C   0  0  0  0  0  0  0  0  0  0  0  0
  120.3085  108.4986  108.9066 C   0  0  0  0  0  0  0  0  0  0  0  0
  121.2404  107.5702  106.4465 C   0  0  0  0  0  0  0  0  0  0  0  0
  126.0381  104.1176  108.6907 C   0  0  0  0  0  0  0  0  0  0  0  0
  121.6539  108.6463  108.5697 C   0  0  0  0  0  0  0  0  0  0  0  0
  122.1199  108.1822  107.3397 C   0  0  0  0  0  0  0  0  0  0  0  0
  119.4290  107.8866  108.0135 C   0  0  0  0  0  0  0  0  0  0  0  0
  119.8949  107.4224  106.7835 C   0  0  0  0  0  0  0  0  0  0  0  0
  124.9210  106.0813  107.0542 C   0  0  0  0  0  0  0  0  0  0  0  0
  126.6353  103.0683  109.5662 C   0  0  0  0  0  0  0  0  0  0  0  0
  117.7219  108.2492  109.6292 C   0  0  0  0  0  0  0  0  0  0  0  0
  118.8967  105.4084  106.0068 C   0  0  0  0  0  0  0  0  0  0  0  0
  122.5884  108.6025  110.9218 C   0  0  0  0  0  0  0  0  0  0  0  0
  122.5622  109.3090  109.5572 C   0  0  2  0  0  0  0  0  0  0  0  0
  123.4228  108.3158  106.9916 N   0  5  0  0  0  0  0  0  0  0  0  0
  122.2081  110.7503  109.7997 N   0  3  0  0  0  0  0  0  0  0  0  0
  125.3774  107.9312  105.3531 O   0  0  0  0  0  0  0  0  0  0  0  0
  123.3536  106.5652  105.0980 O   0  0  0  0  0  0  0  0  0  0  0  0
  122.9182  107.2254  110.7758 O   0  0  0  0  0  0  0  0  0  0  0  0
  118.1170  107.7480  108.3537 O   0  0  0  0  0  0  0  0  0  0  0  0
  119.0457  106.8230  105.9028 O   0  0  0  0  0  0  0  0  0  0  0  0
  124.2230  107.3094  106.0282 S   0  0  0  0  0  0  0  0  0  0  0  0
  124.1959  103.0353  108.3724 H   0  0  0  0  0  0  0  0  0  0  0  0
  127.7498  105.4289  108.8190 H   0  0  0  0  0  0  0  0  0  0  0  0
  123.2088  104.7690  106.9274 H   0  0  0  0  0  0  0  0  0  0  0  0
  126.7642  107.1634  107.3741 H   0  0  0  0  0  0  0  0  0  0  0  0
  119.9411  108.8594  109.8644 H   0  0  0  0  0  0  0  0  0  0  0  0
  121.5904  107.2034  105.4832 H   0  0  0  0  0  0  0  0  0  0  0  0
  127.1984  102.3441  108.9649 H   0  0  0  0  0  0  0  0  0  0  0  0
  127.3148  103.5076  110.3081 H   0  0  0  0  0  0  0  0  0  0  0  0
  125.8606  102.5281  110.1260 H   0  0  0  0  0  0  0  0  0  0  0  0
  116.6529  108.0753  109.7746 H   0  0  0  0  0  0  0  0  0  0  0  0
  117.9387  109.3189  109.6844 H   0  0  0  0  0  0  0  0  0  0  0  0
  118.2831  107.7251  110.4064 H   0  0  0  0  0  0  0  0  0  0  0  0
  118.1927  105.0587  105.2477 H   0  0  0  0  0  0  0  0  0  0  0  0
  118.5308  105.1520  107.0042 H   0  0  0  0  0  0  0  0  0  0  0  0
  119.8683  104.9358  105.8446 H   0  0  0  0  0  0  0  0  0  0  0  0
  121.6069  108.6579  111.4062 H   0  0  0  0  0  0  0  0  0  0  0  0
  123.3187  109.0545  111.6018 H   0  0  0  0  0  0  0  0  0  0  0  0
  123.5915  109.3611  109.1680 H   0  0  0  0  0  0  0  0  0  0  0  0
  122.8882  111.3559  109.3436 H   0  0  0  0  0  0  0  0  0  0  0  0
  122.2092  110.9433  110.8000 H   0  0  0  0  0  0  0  0  0  0  0  0
  121.2822  110.9477  109.4239 H   0  0  0  0  0  0  0  0  0  0  0  0
  122.9171  106.8433  111.6676 H   0  0  0  0  0  0  0  0  0  0  0  0
  1  3  2  0  0  0  0
  1  7  1  0  0  0  0
  2  4  1  0  0  0  0
  2  7  2  0  0  0  0
  3 12  1  0  0  0  0
  4 12  2  0  0  0  0
  5  8  1  0  0  0  0
  5 10  2  0  0  0  0
  6  9  1  0  0  0  0
  6 11  2  0  0  0  0
  7 13  1  0  0  0  0
  8  9  2  0  0  0  0
  8 17  1  0  0  0  0
  9 18  1  0  0  0  0
 10 11  1  0  0  0  0
 10 23  1  0  0  0  0
 11 24  1  0  0  0  0
 12 25  1  0  0  0  0
 14 23  1  0  0  0  0
 15 24  1  0  0  0  0
 16 17  1  0  0  0  0
 16 22  1  0  0  0  0
 17 19  1  0  0  0  0
 18 25  1  0  0  0  0
 20 25  2  0  0  0  0
 21 25  2  0  0  0  0
  1 26  1  0  0  0  0
  2 27  1  0  0  0  0
  3 28  1  0  0  0  0
  4 29  1  0  0  0  0
  5 30  1  0  0  0  0
  6 31  1  0  0  0  0
 13 32  1  0  0  0  0
 13 33  1  0  0  0  0
 13 34  1  0  0  0  0
 14 35  1  0  0  0  0
 14 36  1  0  0  0  0
 14 37  1  0  0  0  0
 15 38  1  0  0  0  0
 15 39  1  0  0  0  0
 15 40  1  0  0  0  0
 16 41  1  0  0  0  0
 16 42  1  0  0  0  0
 17 43  1  0  0  0  0
 19 44  1  0  0  0  0
 19 45  1  0  0  0  0
 19 46  1  0  0  0  0
 22 47  1  0  0  0  0
M  CHG  2  18  -1  19   1
M  END
> <FRED Chemgauss4 score>
-8.044799

$$$$
C93853010	P147069188
  -OEChem-05182014473D

 43 44  0     1  0  0  0  0  0999 V2000
  123.4020  106.2540  106.4219 C   0  0  0  0  0  0  0  0  0  0  0  0
  125.5013  106.7808  106.6326 C   0  0  0  0  0  0  0  0  0  0  0  0
  118.5497  103.8710  105.3924 C   0  0  0  0  0  0  0  0  0  0  0  0
  120.7982  106.4947  104.2793 C   0  0  0  0  0  0  0  0  0  0  0  0
  119.9040  105.3208  103.8905 C   0  0  0  0  0  0  0  0  0  0  0  0
  119.3217  106.1317  106.1407 C   0  0  0  0  0  0  0  0  0  0  0  0
  120.7703  106.5043  105.8038 C   0  0  1  0  0  0  0  0  0  0  0  0
  118.8003  105.3023  104.9530 C   0  0  2  0  0  0  0  0  0  0  0  0
  114.0538  106.7657  105.5834 C   0  0  0  0  0  0  0  0  0  0  0  0
  124.4651  104.3716  108.8369 C   0  0  0  0  0  0  0  0  0  0  0  0
  115.2493  106.6652  104.6499 C   0  0  0  0  0  0  0  0  0  0  0  0
  124.9104  104.4611  107.4170 C   0  0  0  0  0  0  0  0  0  0  0  0
  116.4296  105.9978  105.3377 C   0  0  0  0  0  0  0  0  0  0  0  0
  123.4388  107.4668  105.9578 N   0  0  0  0  0  0  0  0  0  0  0  0
  124.7487  107.8255  106.0776 N   0  0  0  0  0  0  0  0  0  0  0  0
  124.5944  105.7614  106.8491 N   0  0  0  0  0  0  0  0  0  0  0  0
  117.5837  105.9647  104.4013 N   0  3  0  0  0  0  0  0  0  0  0  0
  117.6741  103.2490  104.7293 O   0  5  0  0  0  0  0  0  0  0  0  0
  126.7015  106.7956  106.8643 O   0  0  0  0  0  0  0  0  0  0  0  0
  119.2525  103.4859  106.3686 O   0  0  0  0  0  0  0  0  0  0  0  0
  121.9507  105.2997  106.5056 S   0  0  0  0  0  0  0  0  0  0  0  0
  121.8178  106.3232  103.8934 H   0  0  0  0  0  0  0  0  0  0  0  0
  120.4369  107.4402  103.8455 H   0  0  0  0  0  0  0  0  0  0  0  0
  119.4971  105.5002  102.8878 H   0  0  0  0  0  0  0  0  0  0  0  0
  120.4830  104.3927  103.8431 H   0  0  0  0  0  0  0  0  0  0  0  0
  119.2761  105.5426  107.0746 H   0  0  0  0  0  0  0  0  0  0  0  0
  118.7188  107.0376  106.3253 H   0  0  0  0  0  0  0  0  0  0  0  0
  121.0130  107.4876  106.1910 H   0  0  0  0  0  0  0  0  0  0  0  0
  113.7590  105.7704  105.9305 H   0  0  0  0  0  0  0  0  0  0  0  0
  114.2917  107.3750  106.4611 H   0  0  0  0  0  0  0  0  0  0  0  0
  113.1956  107.2161  105.0744 H   0  0  0  0  0  0  0  0  0  0  0  0
  124.9625  105.1301  109.4510 H   0  0  0  0  0  0  0  0  0  0  0  0
  123.3798  104.4992  108.9144 H   0  0  0  0  0  0  0  0  0  0  0  0
  124.7202  103.3862  109.2448 H   0  0  0  0  0  0  0  0  0  0  0  0
  115.5284  107.6710  104.3140 H   0  0  0  0  0  0  0  0  0  0  0  0
  114.9618  106.0961  103.7578 H   0  0  0  0  0  0  0  0  0  0  0  0
  124.4099  103.7010  106.8095 H   0  0  0  0  0  0  0  0  0  0  0  0
  125.9921  104.3177  107.3398 H   0  0  0  0  0  0  0  0  0  0  0  0
  116.7550  106.5516  106.2232 H   0  0  0  0  0  0  0  0  0  0  0  0
  116.2127  104.9611  105.6109 H   0  0  0  0  0  0  0  0  0  0  0  0
  125.0621  108.7423  105.7853 H   0  0  0  0  0  0  0  0  0  0  0  0
  117.8211  106.9267  104.1240 H   0  0  0  0  0  0  0  0  0  0  0  0
  117.3027  105.4845  103.5357 H   0  0  0  0  0  0  0  0  0  0  0  0
  1 14  2  0  0  0  0
  1 16  1  0  0  0  0
  1 21  1  0  0  0  0
  2 15  1  0  0  0  0
  2 16  1  0  0  0  0
  2 19  2  0  0  0  0
  3  8  1  0  0  0  0
  3 18  1  0  0  0  0
  3 20  2  0  0  0  0
  4  5  1  0  0  0  0
  4  7  1  0  0  0  0
  5  8  1  0  0  0  0
  6  7  1  0  0  0  0
  6  8  1  0  0  0  0
  7 21  1  0  0  0  0
  8 17  1  0  0  0  0
  9 11  1  0  0  0  0
 10 12  1  0  0  0  0
 11 13  1  0  0  0  0
 12 16  1  0  0  0  0
 13 17  1  0  0  0  0
 14 15  1  0  0  0  0
  4 22  1  0  0  0  0
  4 23  1  0  0  0  0
  5 24  1  0  0  0  0
  5 25  1  0  0  0  0
  6 26  1  0  0  0  0
  6 27  1  0  0  0  0
  7 28  1  0  0  0  0
  9 29  1  0  0  0  0
  9 30  1  0  0  0  0
  9 31  1  0  0  0  0
 10 32  1  0  0  0  0
 10 33  1  0  0  0  0
 10 34  1  0  0  0  0
 11 35  1  0  0  0  0
 11 36  1  0  0  0  0
 12 37  1  0  0  0  0
 12 38  1  0  0  0  0
 13 39  1  0  0  0  0
 13 40  1  0  0  0  0
 15 41  1  0  0  0  0
 17 42  1  0  0  0  0
 17 43  1  0  0  0  0
M  CHG  2  17   1  18  -1
M  END
> <FRED Chemgauss4 score>
-8.034204

$$$$
C41043428	P138194779
  -OEChem-05182014473D

 29 29  0     0  0  0  0  0  0999 V2000
  124.1687  107.7380  107.6406 C   0  0  0  0  0  0  0  0  0  0  0  0
  124.0946  107.1233  106.4146 C   0  0  0  0  0  0  0  0  0  0  0  0
  125.2413  107.5665  105.7288 C   0  0  0  0  0  0  0  0  0  0  0  0
  123.0204  106.2143  105.9842 C   0  0  0  0  0  0  0  0  0  0  0  0
  121.7402  104.1357  106.3226 C   0  0  0  0  0  0  0  0  0  0  0  0
  123.5869  104.6330  107.8851 C   0  0  0  0  0  0  0  0  0  0  0  0
  120.4565  104.5179  107.0364 C   0  0  0  0  0  0  0  0  0  0  0  0
  124.7675  103.7903  107.4382 C   0  0  0  0  0  0  0  0  0  0  0  0
  125.9891  108.3986  106.4585 N   0  0  0  0  0  0  0  0  0  0  0  0
  125.3106  108.4833  107.6155 N   0  0  0  0  0  0  0  0  0  0  0  0
  125.5188  107.1645  104.4608 N   0  0  0  0  0  0  0  0  0  0  0  0
  122.8080  105.0430  106.7187 N   0  0  0  0  0  0  0  0  0  0  0  0
  122.3704  106.5667  105.0006 O   0  0  0  0  0  0  0  0  0  0  0  0
  119.4086  103.6517  106.6198 O   0  0  0  0  0  0  0  0  0  0  0  0
  125.5703  104.5422  106.5370 O   0  0  0  0  0  0  0  0  0  0  0  0
  123.5276  107.7159  108.5106 H   0  0  0  0  0  0  0  0  0  0  0  0
  122.0459  103.1153  106.5750 H   0  0  0  0  0  0  0  0  0  0  0  0
  121.6110  104.2132  105.2389 H   0  0  0  0  0  0  0  0  0  0  0  0
  122.9296  104.0710  108.5561 H   0  0  0  0  0  0  0  0  0  0  0  0
  123.9350  105.5351  108.3972 H   0  0  0  0  0  0  0  0  0  0  0  0
  120.1726  105.5419  106.7744 H   0  0  0  0  0  0  0  0  0  0  0  0
  120.5631  104.4441  108.1236 H   0  0  0  0  0  0  0  0  0  0  0  0
  124.4135  102.8985  106.9118 H   0  0  0  0  0  0  0  0  0  0  0  0
  125.3861  103.4816  108.2872 H   0  0  0  0  0  0  0  0  0  0  0  0
  125.6855  109.0710  108.3498 H   0  0  0  0  0  0  0  0  0  0  0  0
  124.9282  106.4846  103.9690 H   0  0  0  0  0  0  0  0  0  0  0  0
  126.3789  107.4513  103.9803 H   0  0  0  0  0  0  0  0  0  0  0  0
  118.6103  103.9290  107.0973 H   0  0  0  0  0  0  0  0  0  0  0  0
  126.3099  103.9697  106.2772 H   0  0  0  0  0  0  0  0  0  0  0  0
  1  2  2  0  0  0  0
  1 10  1  0  0  0  0
  2  3  1  0  0  0  0
  2  4  1  0  0  0  0
  3  9  2  0  0  0  0
  3 11  1  0  0  0  0
  4 12  1  0  0  0  0
  4 13  2  0  0  0  0
  5  7  1  0  0  0  0
  5 12  1  0  0  0  0
  6  8  1  0  0  0  0
  6 12  1  0  0  0  0
  7 14  1  0  0  0  0
  8 15  1  0  0  0  0
  9 10  1  0  0  0  0
  1 16  1  0  0  0  0
  5 17  1  0  0  0  0
  5 18  1  0  0  0  0
  6 19  1  0  0  0  0
  6 20  1  0  0  0  0
  7 21  1  0  0  0  0
  7 22  1  0  0  0  0
  8 23  1  0  0  0  0
  8 24  1  0  0  0  0
 10 25  1  0  0  0  0
 11 26  1  0  0  0  0
 11 27  1  0  0  0  0
 14 28  1  0  0  0  0
 15 29  1  0  0  0  0
M  END
> <FRED Chemgauss4 score>
-8.027198

$$$$
C61594533	P94310181
  -OEChem-05182014473D

 32 34  0     1  0  0  0  0  0999 V2000
  119.5770  104.0167  105.0708 C   0  0  0  0  0  0  0  0  0  0  0  0
  118.3129  103.4988  104.8936 C   0  0  0  0  0  0  0  0  0  0  0  0
  118.4072  105.9019  104.3780 C   0  0  0  0  0  0  0  0  0  0  0  0
  119.6317  105.4088  104.7723 C   0  0  0  0  0  0  0  0  0  0  0  0
  123.0941  106.7913  106.3457 C   0  0  0  0  0  0  0  0  0  0  0  0
  125.2646  106.6767  106.4142 C   0  0  0  0  0  0  0  0  0  0  0  0
  124.7790  104.5733  108.7945 C   0  0  0  0  0  0  0  0  0  0  0  0
  123.2788  104.6182  108.7618 C   0  0  0  0  0  0  0  0  0  0  0  0
  124.0620  104.7640  107.4858 C   0  0  0  0  0  0  0  0  0  0  0  0
  122.0624  105.7770  103.9934 C   0  0  0  0  0  0  0  0  0  0  0  0
  120.8918  106.2475  104.8760 C   0  0  2  0  0  0  0  0  0  0  0  0
  123.4556  107.8795  105.7353 N   0  0  0  0  0  0  0  0  0  0  0  0
  124.8181  107.8351  105.7629 N   0  0  0  0  0  0  0  0  0  0  0  0
  124.1140  106.0089  106.7869 N   0  0  0  0  0  0  0  0  0  0  0  0
  121.5987  105.3635  102.6692 N   0  0  0  0  0  0  0  0  0  0  0  0
  126.4286  106.3519  106.5988 O   0  0  0  0  0  0  0  0  0  0  0  0
  117.1987  104.6888  104.3693 S   0  0  0  0  0  0  0  0  0  0  0  0
  121.4427  106.3407  106.5950 S   0  0  0  0  0  0  0  0  0  0  0  0
  120.4198  103.4213  105.3988 H   0  0  0  0  0  0  0  0  0  0  0  0
  117.9905  102.4785  105.0463 H   0  0  0  0  0  0  0  0  0  0  0  0
  118.1605  106.9152  104.0928 H   0  0  0  0  0  0  0  0  0  0  0  0
  125.2989  105.4196  109.2267 H   0  0  0  0  0  0  0  0  0  0  0  0
  125.2520  103.6159  108.9755 H   0  0  0  0  0  0  0  0  0  0  0  0
  122.7425  103.6908  108.9206 H   0  0  0  0  0  0  0  0  0  0  0  0
  122.7933  105.4948  109.1728 H   0  0  0  0  0  0  0  0  0  0  0  0
  124.0486  103.9164  106.8093 H   0  0  0  0  0  0  0  0  0  0  0  0
  122.7749  106.5982  103.8499 H   0  0  0  0  0  0  0  0  0  0  0  0
  122.6136  104.9482  104.4520 H   0  0  0  0  0  0  0  0  0  0  0  0
  120.6543  107.2803  104.5903 H   0  0  0  0  0  0  0  0  0  0  0  0
  125.3675  108.5770  105.3480 H   0  0  0  0  0  0  0  0  0  0  0  0
  122.1651  104.7266  102.1543 H   0  0  0  0  0  0  0  0  0  0  0  0
  120.8558  105.8798  102.2528 H   0  0  0  0  0  0  0  0  0  0  0  0
  1  2  2  0  0  0  0
  1  4  1  0  0  0  0
  2 17  1  0  0  0  0
  3  4  2  0  0  0  0
  3 17  1  0  0  0  0
  4 11  1  0  0  0  0
  5 12  2  0  0  0  0
  5 14  1  0  0  0  0
  5 18  1  0  0  0  0
  6 13  1  0  0  0  0
  6 14  1  0  0  0  0
  6 16  2  0  0  0  0
  7  8  1  0  0  0  0
  7  9  1  0  0  0  0
  8  9  1  0  0  0  0
  9 14  1  0  0  0  0
 10 11  1  0  0  0  0
 10 15  1  0  0  0  0
 11 18  1  0  0  0  0
 12 13  1  0  0  0  0
  1 19  1  0  0  0  0
  2 20  1  0  0  0  0
  3 21  1  0  0  0  0
  7 22  1  0  0  0  0
  7 23  1  0  0  0  0
  8 24  1  0  0  0  0
  8 25  1  0  0  0  0
  9 26  1  0  0  0  0
 10 27  1  0  0  0  0
 10 28  1  0  0  0  0
 11 29  1  0  0  0  0
 13 30  1  0  0  0  0
 15 31  1  0  0  0  0
 15 32  1  0  0  0  0
M  END
> <FRED Chemgauss4 score>
-8.026347

$$$$
C04544521	P06219506
  -OEChem-05182014473D

 23 22  0     1  0  0  0  0  0999 V2000
  123.4176  106.8941  105.6944 C   0  0  0  0  0  0  0  0  0  0  0  0
  125.5932  104.1892  107.3544 C   0  0  0  0  0  0  0  0  0  0  0  0
  124.9332  106.8351  105.6906 C   0  0  2  0  0  0  0  0  0  0  0  0
  125.7271  105.1690  108.5140 C   0  0  1  0  0  0  0  0  0  0  0  0
  125.4823  107.3068  107.0413 C   0  0  2  0  0  0  0  0  0  0  0  0
  124.9761  106.4856  108.2478 C   0  0  2  0  0  0  0  0  0  0  0  0
  122.7631  107.8803  105.3705 O   0  0  0  0  0  0  0  0  0  0  0  0
  125.4052  107.6697  104.6487 O   0  0  0  0  0  0  0  0  0  0  0  0
  125.2082  104.5387  109.6835 O   0  0  0  0  0  0  0  0  0  0  0  0
  125.1394  108.6835  107.2084 O   0  0  0  0  0  0  0  0  0  0  0  0
  125.0553  107.3060  109.4178 O   0  0  0  0  0  0  0  0  0  0  0  0
  124.3275  104.2827  106.8580 F   0  0  0  0  0  0  0  0  0  0  0  0
  122.9086  105.9809  106.0481 H   0  0  0  0  0  0  0  0  0  0  0  0
  126.2783  104.4232  106.5343 H   0  0  0  0  0  0  0  0  0  0  0  0
  125.7440  103.1552  107.6770 H   0  0  0  0  0  0  0  0  0  0  0  0
  125.2199  105.7977  105.4856 H   0  0  0  0  0  0  0  0  0  0  0  0
  126.7885  105.3684  108.6955 H   0  0  0  0  0  0  0  0  0  0  0  0
  126.5790  107.2604  107.0282 H   0  0  0  0  0  0  0  0  0  0  0  0
  123.9138  106.2545  108.1025 H   0  0  0  0  0  0  0  0  0  0  0  0
  125.0369  107.3246  103.8175 H   0  0  0  0  0  0  0  0  0  0  0  0
  124.2799  104.3317  109.4956 H   0  0  0  0  0  0  0  0  0  0  0  0
  124.1721  108.7289  107.1822 H   0  0  0  0  0  0  0  0  0  0  0  0
  124.5736  108.1197  109.2104 H   0  0  0  0  0  0  0  0  0  0  0  0
  1  3  1  0  0  0  0
  1  7  2  0  0  0  0
  2  4  1  0  0  0  0
  2 12  1  0  0  0  0
  3  5  1  0  0  0  0
  3  8  1  0  0  0  0
  4  6  1  0  0  0  0
  4  9  1  0  0  0  0
  5  6  1  0  0  0  0
  5 10  1  0  0  0  0
  6 11  1  0  0  0  0
  1 13  1  0  0  0  0
  2 14  1  0  0  0  0
  2 15  1  0  0  0  0
  3 16  1  0  0  0  0
  4 17  1  0  0  0  0
  5 18  1  0  0  0  0
  6 19  1  0  0  0  0
  8 20  1  0  0  0  0
  9 21  1  0  0  0  0
 10 22  1  0  0  0  0
 11 23  1  0  0  0  0
M  END
> <FRED Chemgauss4 score>
-8.016661

$$$$
C80540843	P125773190
  -OEChem-05182014473D

 34 35  0     0  0  0  0  0  0999 V2000
  119.6462  104.7457  102.0143 C   0  0  0  0  0  0  0  0  0  0  0  0
  118.6184  104.9541  102.9339 C   0  0  0  0  0  0  0  0  0  0  0  0
  121.1814  105.9201  103.4637 C   0  0  0  0  0  0  0  0  0  0  0  0
  125.8625  103.9236  106.3260 C   0  0  0  0  0  0  0  0  0  0  0  0
  120.9277  105.2286  102.2792 C   0  0  0  0  0  0  0  0  0  0  0  0
  120.1536  106.1285  104.3834 C   0  0  0  0  0  0  0  0  0  0  0  0
  118.8721  105.6455  104.1185 C   0  0  0  0  0  0  0  0  0  0  0  0
  124.6253  104.5700  107.8780 C   0  0  0  0  0  0  0  0  0  0  0  0
  123.5967  104.7454  108.9666 C   0  0  0  0  0  0  0  0  0  0  0  0
  122.3760  105.5718  108.5404 C   0  0  0  0  0  0  0  0  0  0  0  0
  121.5708  104.9653  107.3928 C   0  0  0  0  0  0  0  0  0  0  0  0
  124.8177  103.5236  107.1090 N   0  0  0  0  0  0  0  0  0  0  0  0
  126.3286  105.1517  106.5622 N   0  0  0  0  0  0  0  0  0  0  0  0
  125.5203  105.5432  107.5590 N   0  0  0  0  0  0  0  0  0  0  0  0
  121.9668  105.0173  101.3495 N   0  0  0  0  0  0  0  0  0  0  0  0
  120.4246  105.7578  107.0419 N   0  0  0  0  0  0  0  0  0  0  0  0
  121.9140  107.4502  105.7850 O   0  0  0  0  0  0  0  0  0  0  0  0
  119.4715  107.9776  106.0683 O   0  0  0  0  0  0  0  0  0  0  0  0
  120.5340  107.0111  105.8671 S   0  0  0  0  0  0  0  0  0  0  0  0
  117.5654  105.8764  105.2237 Cl  0  0  0  0  0  0  0  0  0  0  0  0
  119.4379  104.2053  101.0945 H   0  0  0  0  0  0  0  0  0  0  0  0
  117.6256  104.5707  102.7117 H   0  0  0  0  0  0  0  0  0  0  0  0
  122.1818  106.2954  103.6678 H   0  0  0  0  0  0  0  0  0  0  0  0
  126.2979  103.3004  105.5592 H   0  0  0  0  0  0  0  0  0  0  0  0
  124.0602  105.1883  109.8567 H   0  0  0  0  0  0  0  0  0  0  0  0
  123.2587  103.7489  109.2795 H   0  0  0  0  0  0  0  0  0  0  0  0
  122.7264  106.5680  108.2413 H   0  0  0  0  0  0  0  0  0  0  0  0
  121.7082  105.7186  109.3980 H   0  0  0  0  0  0  0  0  0  0  0  0
  121.1973  103.9781  107.6830 H   0  0  0  0  0  0  0  0  0  0  0  0
  122.1809  104.8405  106.4935 H   0  0  0  0  0  0  0  0  0  0  0  0
  125.6394  106.4665  107.9593 H   0  0  0  0  0  0  0  0  0  0  0  0
  121.7835  104.4793  100.5266 H   0  0  0  0  0  0  0  0  0  0  0  0
  122.8912  105.3270  101.5722 H   0  0  0  0  0  0  0  0  0  0  0  0
  119.4827  105.3339  107.1810 H   0  0  0  0  0  0  0  0  0  0  0  0
  1  2  1  0  0  0  0
  1  5  2  0  0  0  0
  2  7  2  0  0  0  0
  3  5  1  0  0  0  0
  3  6  2  0  0  0  0
  4 12  1  0  0  0  0
  4 13  2  0  0  0  0
  5 15  1  0  0  0  0
  6  7  1  0  0  0  0
  6 19  1  0  0  0  0
  7 20  1  0  0  0  0
  8  9  1  0  0  0  0
  8 12  2  0  0  0  0
  8 14  1  0  0  0  0
  9 10  1  0  0  0  0
 10 11  1  0  0  0  0
 11 16  1  0  0  0  0
 13 14  1  0  0  0  0
 16 19  1  0  0  0  0
 17 19  2  0  0  0  0
 18 19  2  0  0  0  0
  1 21  1  0  0  0  0
  2 22  1  0  0  0  0
  3 23  1  0  0  0  0
  4 24  1  0  0  0  0
  9 25  1  0  0  0  0
  9 26  1  0  0  0  0
 10 27  1  0  0  0  0
 10 28  1  0  0  0  0
 11 29  1  0  0  0  0
 11 30  1  0  0  0  0
 14 31  1  0  0  0  0
 15 32  1  0  0  0  0
 15 33  1  0  0  0  0
 16 34  1  0  0  0  0
M  END
> <FRED Chemgauss4 score>
-8.014158

$$$$
C91290832	P142798148
  -OEChem-05182014473D

 35 36  0     1  0  0  0  0  0999 V2000
  125.0732  104.9034  106.8069 C   0  0  0  0  0  0  0  0  0  0  0  0
  120.0848  105.0632  101.0177 C   0  0  0  0  0  0  0  0  0  0  0  0
  119.1197  104.4265  101.7618 C   0  0  0  0  0  0  0  0  0  0  0  0
  123.9807  105.7918  106.5894 C   0  0  0  0  0  0  0  0  0  0  0  0
  124.9892  104.2689  108.0267 C   0  0  0  0  0  0  0  0  0  0  0  0
  123.1030  105.8022  107.6514 C   0  0  0  0  0  0  0  0  0  0  0  0
  120.6976  105.2751  103.0450 C   0  0  0  0  0  0  0  0  0  0  0  0
  118.8315  104.0639  104.2187 C   0  0  0  0  0  0  0  0  0  0  0  0
  123.4886  104.3811  103.7479 C   0  0  0  0  0  0  0  0  0  0  0  0
  125.9194  103.2822  108.6172 C   0  0  0  0  0  0  0  0  0  0  0  0
  121.4367  105.6222  104.3049 C   0  0  0  0  0  0  0  0  0  0  0  0
  121.0644  105.5891  101.8224 N   0  0  0  0  0  0  0  0  0  0  0  0
  119.5262  104.5702  103.0584 N   0  0  0  0  0  0  0  0  0  0  0  0
  126.7487  103.8471  109.6579 N   0  0  0  0  0  0  0  0  0  0  0  0
  122.9031  105.7037  104.0845 N   0  0  1  0  0  0  0  0  0  0  0  0
  123.0161  107.9167  105.4393 O   0  0  0  0  0  0  0  0  0  0  0  0
  125.1447  106.9277  104.5591 O   0  0  0  0  0  0  0  0  0  0  0  0
  123.5975  104.7443  108.9038 S   0  0  0  0  0  0  0  0  0  0  0  0
  123.8135  106.7499  105.1094 S   0  0  0  0  0  0  0  0  0  0  0  0
  121.5143  106.8450  107.7727 Br  0  0  0  0  0  0  0  0  0  0  0  0
  125.8813  104.7365  106.1053 H   0  0  0  0  0  0  0  0  0  0  0  0
  120.1242  105.1697   99.9435 H   0  0  0  0  0  0  0  0  0  0  0  0
  118.2135  103.9034  101.4900 H   0  0  0  0  0  0  0  0  0  0  0  0
  119.2030  103.0559  104.4210 H   0  0  0  0  0  0  0  0  0  0  0  0
  119.0223  104.7202  105.0724 H   0  0  0  0  0  0  0  0  0  0  0  0
  117.7571  104.0431  104.0161 H   0  0  0  0  0  0  0  0  0  0  0  0
  124.5664  104.4760  103.5923 H   0  0  0  0  0  0  0  0  0  0  0  0
  123.0343  103.9882  102.8342 H   0  0  0  0  0  0  0  0  0  0  0  0
  123.3115  103.6715  104.5605 H   0  0  0  0  0  0  0  0  0  0  0  0
  125.3804  102.4293  109.0643 H   0  0  0  0  0  0  0  0  0  0  0  0
  126.6022  102.8528  107.8644 H   0  0  0  0  0  0  0  0  0  0  0  0
  121.1003  106.5885  104.6962 H   0  0  0  0  0  0  0  0  0  0  0  0
  121.2565  104.8749  105.0848 H   0  0  0  0  0  0  0  0  0  0  0  0
  127.6442  103.4320  109.8415 H   0  0  0  0  0  0  0  0  0  0  0  0
  126.3389  104.4985  110.3026 H   0  0  0  0  0  0  0  0  0  0  0  0
  1  4  1  0  0  0  0
  1  5  2  0  0  0  0
  2  3  2  0  0  0  0
  2 12  1  0  0  0  0
  3 13  1  0  0  0  0
  4  6  2  0  0  0  0
  4 19  1  0  0  0  0
  5 10  1  0  0  0  0
  5 18  1  0  0  0  0
  6 18  1  0  0  0  0
  6 20  1  0  0  0  0
  7 11  1  0  0  0  0
  7 12  2  0  0  0  0
  7 13  1  0  0  0  0
  8 13  1  0  0  0  0
  9 15  1  0  0  0  0
 10 14  1  0  0  0  0
 11 15  1  0  0  0  0
 15 19  1  0  0  0  0
 16 19  2  0  0  0  0
 17 19  2  0  0  0  0
  1 21  1  0  0  0  0
  2 22  1  0  0  0  0
  3 23  1  0  0  0  0
  8 24  1  0  0  0  0
  8 25  1  0  0  0  0
  8 26  1  0  0  0  0
  9 27  1  0  0  0  0
  9 28  1  0  0  0  0
  9 29  1  0  0  0  0
 10 30  1  0  0  0  0
 10 31  1  0  0  0  0
 11 32  1  0  0  0  0
 11 33  1  0  0  0  0
 14 34  1  0  0  0  0
 14 35  1  0  0  0  0
M  END
> <FRED Chemgauss4 score>
-8.008332

$$$$
C83591180	P130750978
  -OEChem-05182014473D

 23 23  0     0  0  0  0  0  0999 V2000
  123.8153  104.8693  106.8316 C   0  0  0  0  0  0  0  0  0  0  0  0
  125.7061  104.2341  107.7686 C   0  0  0  0  0  0  0  0  0  0  0  0
  124.7257  105.8988  106.8752 C   0  0  0  0  0  0  0  0  0  0  0  0
  122.1584  108.4565  108.6874 C   0  0  0  0  0  0  0  0  0  0  0  0
  123.9187  102.4850  107.5976 C   0  0  0  0  0  0  0  0  0  0  0  0
  125.9008  105.4968  107.4594 N   0  0  0  0  0  0  0  0  0  0  0  0
  124.4577  103.8095  107.4071 N   0  0  0  0  0  0  0  0  0  0  0  0
  122.3390  107.1361  108.9974 N   0  0  0  0  0  0  0  0  0  0  0  0
  123.1930  109.0945  108.0545 N   0  0  0  0  0  0  0  0  0  0  0  0
  124.4221  108.3980  107.7514 N   0  0  0  0  0  0  0  0  0  0  0  0
  125.6685  107.9246  105.5321 O   0  0  0  0  0  0  0  0  0  0  0  0
  123.1788  107.5886  105.6520 O   0  0  0  0  0  0  0  0  0  0  0  0
  120.7402  109.2559  109.0647 S   0  0  0  0  0  0  0  0  0  0  0  0
  124.4852  107.5463  106.2805 S   0  0  0  0  0  0  0  0  0  0  0  0
  122.8040  104.8001  106.4554 H   0  0  0  0  0  0  0  0  0  0  0  0
  126.4244  103.5834  108.2491 H   0  0  0  0  0  0  0  0  0  0  0  0
  124.1594  101.8922  106.7112 H   0  0  0  0  0  0  0  0  0  0  0  0
  124.3631  102.0360  108.4902 H   0  0  0  0  0  0  0  0  0  0  0  0
  122.8354  102.5517  107.7317 H   0  0  0  0  0  0  0  0  0  0  0  0
  123.2004  106.6515  108.7689 H   0  0  0  0  0  0  0  0  0  0  0  0
  121.6171  106.5993  109.4661 H   0  0  0  0  0  0  0  0  0  0  0  0
  123.1464  110.0718  107.7875 H   0  0  0  0  0  0  0  0  0  0  0  0
  125.2806  108.7749  108.1695 H   0  0  0  0  0  0  0  0  0  0  0  0
  1  3  2  0  0  0  0
  1  7  1  0  0  0  0
  2  6  2  0  0  0  0
  2  7  1  0  0  0  0
  3  6  1  0  0  0  0
  3 14  1  0  0  0  0
  4  8  1  0  0  0  0
  4  9  1  0  0  0  0
  4 13  2  0  0  0  0
  5  7  1  0  0  0  0
  9 10  1  0  0  0  0
 10 14  1  0  0  0  0
 11 14  2  0  0  0  0
 12 14  2  0  0  0  0
  1 15  1  0  0  0  0
  2 16  1  0  0  0  0
  5 17  1  0  0  0  0
  5 18  1  0  0  0  0
  5 19  1  0  0  0  0
  8 20  1  0  0  0  0
  8 21  1  0  0  0  0
  9 22  1  0  0  0  0
 10 23  1  0  0  0  0
M  END
> <FRED Chemgauss4 score>
-8.005539

$$$$
C69189165	P106351442
  -OEChem-05182014473D

 38 40  0     1  0  0  0  0  0999 V2000
  124.7212  107.3624  104.6152 C   0  0  0  0  0  0  0  0  0  0  0  0
  124.7695  105.1057  108.3093 C   0  0  0  0  0  0  0  0  0  0  0  0
  123.7093  106.2916  106.7826 C   0  0  0  0  0  0  0  0  0  0  0  0
  125.0563  106.1489  106.4776 C   0  0  0  0  0  0  0  0  0  0  0  0
  122.8671  107.0025  105.9505 C   0  0  0  0  0  0  0  0  0  0  0  0
  119.1400  104.3646  105.7198 C   0  0  0  0  0  0  0  0  0  0  0  0
  116.7672  106.5907  106.0445 C   0  0  0  0  0  0  0  0  0  0  0  0
  117.5153  107.8222  105.6163 C   0  0  0  0  0  0  0  0  0  0  0  0
  118.2704  106.6055  106.0750 C   0  0  0  0  0  0  0  0  0  0  0  0
  117.9558  104.9591  101.5137 C   0  0  0  0  0  0  0  0  0  0  0  0
  118.8242  104.8746  102.7499 C   0  0  0  0  0  0  0  0  0  0  0  0
  120.4400  106.4205  104.8174 C   0  0  0  0  0  0  0  0  0  0  0  0
  119.0718  105.7684  105.0690 C   0  0  1  0  0  0  0  0  0  0  0  0
  125.6165  106.6870  105.3676 N   0  0  0  0  0  0  0  0  0  0  0  0
  123.3982  107.5512  104.8347 N   0  0  0  0  0  0  0  0  0  0  0  0
  125.7042  105.4098  107.4342 N   0  0  0  0  0  0  0  0  0  0  0  0
  123.5476  105.6163  107.9588 N   0  0  0  0  0  0  0  0  0  0  0  0
  118.2980  105.7986  103.7792 N   0  3  0  0  0  0  0  0  0  0  0  0
  120.1418  104.1632  106.4650 O   0  5  0  0  0  0  0  0  0  0  0  0
  118.1984  103.5748  105.4240 O   0  0  0  0  0  0  0  0  0  0  0  0
  121.1497  107.2071  106.3022 S   0  0  0  0  0  0  0  0  0  0  0  0
  125.1144  107.8160  103.7116 H   0  0  0  0  0  0  0  0  0  0  0  0
  124.9080  104.5249  109.2101 H   0  0  0  0  0  0  0  0  0  0  0  0
  116.2285  106.6301  106.9832 H   0  0  0  0  0  0  0  0  0  0  0  0
  116.2846  106.0010  105.2748 H   0  0  0  0  0  0  0  0  0  0  0  0
  117.5340  108.0583  104.5594 H   0  0  0  0  0  0  0  0  0  0  0  0
  117.4777  108.6860  106.2685 H   0  0  0  0  0  0  0  0  0  0  0  0
  118.7533  106.6492  107.0438 H   0  0  0  0  0  0  0  0  0  0  0  0
  116.9325  104.6508  101.7489 H   0  0  0  0  0  0  0  0  0  0  0  0
  117.9201  105.9818  101.1242 H   0  0  0  0  0  0  0  0  0  0  0  0
  118.3322  104.3054  100.7200 H   0  0  0  0  0  0  0  0  0  0  0  0
  119.8540  105.1778  102.5423 H   0  0  0  0  0  0  0  0  0  0  0  0
  118.8136  103.8709  103.1836 H   0  0  0  0  0  0  0  0  0  0  0  0
  121.1630  105.6780  104.4600 H   0  0  0  0  0  0  0  0  0  0  0  0
  120.3689  107.1921  104.0426 H   0  0  0  0  0  0  0  0  0  0  0  0
  122.6861  105.5116  108.4782 H   0  0  0  0  0  0  0  0  0  0  0  0
  118.3060  106.7587  103.4242 H   0  0  0  0  0  0  0  0  0  0  0  0
  117.3217  105.5714  103.9867 H   0  0  0  0  0  0  0  0  0  0  0  0
  1 14  2  0  0  0  0
  1 15  1  0  0  0  0
  2 16  2  0  0  0  0
  2 17  1  0  0  0  0
  3  4  2  0  0  0  0
  3  5  1  0  0  0  0
  3 17  1  0  0  0  0
  4 14  1  0  0  0  0
  4 16  1  0  0  0  0
  5 15  2  0  0  0  0
  5 21  1  0  0  0  0
  6 13  1  0  0  0  0
  6 19  1  0  0  0  0
  6 20  2  0  0  0  0
  7  8  1  0  0  0  0
  7  9  1  0  0  0  0
  8  9  1  0  0  0  0
  9 13  1  0  0  0  0
 10 11  1  0  0  0  0
 11 18  1  0  0  0  0
 12 13  1  0  0  0  0
 12 21  1  0  0  0  0
 13 18  1  0  0  0  0
  1 22  1  0  0  0  0
  2 23  1  0  0  0  0
  7 24  1  0  0  0  0
  7 25  1  0  0  0  0
  8 26  1  0  0  0  0
  8 27  1  0  0  0  0
  9 28  1  0  0  0  0
 10 29  1  0  0  0  0
 10 30  1  0  0  0  0
 10 31  1  0  0  0  0
 11 32  1  0  0  0  0
 11 33  1  0  0  0  0
 12 34  1  0  0  0  0
 12 35  1  0  0  0  0
 17 36  1  0  0  0  0
 18 37  1  0  0  0  0
 18 38  1  0  0  0  0
M  CHG  2  18   1  19  -1
M  END
> <FRED Chemgauss4 score>
-8.000467

$$$$
C97861463	P155326145
  -OEChem-05182014473D

 42 44  0     1  0  0  0  0  0999 V2000
  117.3074  104.6923  104.0437 C   0  0  0  0  0  0  0  0  0  0  0  0
  121.3690  105.6447  104.4336 C   0  0  0  0  0  0  0  0  0  0  0  0
  120.7877  105.4876  103.1730 C   0  0  0  0  0  0  0  0  0  0  0  0
  116.7601  104.5429  102.7776 C   0  0  0  0  0  0  0  0  0  0  0  0
  119.2486  105.1687  105.4602 C   0  0  0  0  0  0  0  0  0  0  0  0
  118.6641  105.0107  104.1921 C   0  0  0  0  0  0  0  0  0  0  0  0
  120.5989  105.4851  105.5789 C   0  0  0  0  0  0  0  0  0  0  0  0
  119.4400  105.1711  103.0250 C   0  0  0  0  0  0  0  0  0  0  0  0
  117.5981  104.7192  101.6953 C   0  0  0  0  0  0  0  0  0  0  0  0
  125.0942  104.5762  107.0230 C   0  0  0  0  0  0  0  0  0  0  0  0
  123.9287  104.6488  108.0082 C   0  0  0  0  0  0  0  0  0  0  0  0
  126.1427  105.6477  107.3163 C   0  0  0  0  0  0  0  0  0  0  0  0
  124.3412  107.1321  108.3037 C   0  0  0  0  0  0  0  0  0  0  0  0
  123.2890  106.0398  108.0586 C   0  0  1  0  0  0  0  0  0  0  0  0
  125.5387  107.0515  107.3519 C   0  0  2  0  0  0  0  0  0  0  0  0
  117.0522  104.5687  100.3145 C   0  0  0  0  0  0  0  0  0  0  0  0
  121.2194  105.6527  106.9357 C   0  0  0  0  0  0  0  0  0  0  0  0
  118.9116  105.0268  101.7950 N   0  0  0  0  0  0  0  0  0  0  0  0
  122.5190  106.3018  106.8635 N   0  0  0  0  0  0  0  0  0  0  0  0
  125.1244  107.4345  106.0429 O   0  0  0  0  0  0  0  0  0  0  0  0
  116.6702  104.5590  104.9149 H   0  0  0  0  0  0  0  0  0  0  0  0
  122.4248  105.8922  104.5070 H   0  0  0  0  0  0  0  0  0  0  0  0
  121.4129  105.6173  102.2914 H   0  0  0  0  0  0  0  0  0  0  0  0
  115.7111  104.2971  102.6546 H   0  0  0  0  0  0  0  0  0  0  0  0
  118.6465  105.0441  106.3584 H   0  0  0  0  0  0  0  0  0  0  0  0
  125.5599  103.5857  107.0801 H   0  0  0  0  0  0  0  0  0  0  0  0
  124.7213  104.6966  106.0004 H   0  0  0  0  0  0  0  0  0  0  0  0
  123.1756  103.8983  107.7207 H   0  0  0  0  0  0  0  0  0  0  0  0
  124.2845  104.3608  109.0086 H   0  0  0  0  0  0  0  0  0  0  0  0
  126.6391  105.4344  108.2727 H   0  0  0  0  0  0  0  0  0  0  0  0
  126.9389  105.6067  106.5589 H   0  0  0  0  0  0  0  0  0  0  0  0
  123.8799  108.1337  108.2172 H   0  0  0  0  0  0  0  0  0  0  0  0
  124.7039  107.0847  109.3464 H   0  0  0  0  0  0  0  0  0  0  0  0
  122.5838  106.0550  108.9205 H   0  0  0  0  0  0  0  0  0  0  0  0
  126.3097  107.7723  107.6764 H   0  0  0  0  0  0  0  0  0  0  0  0
  116.6801  105.5316   99.9449 H   0  0  0  0  0  0  0  0  0  0  0  0
  117.8200  104.2023   99.6213 H   0  0  0  0  0  0  0  0  0  0  0  0
  116.2287  103.8437  100.2896 H   0  0  0  0  0  0  0  0  0  0  0  0
  120.5753  106.2583  107.5827 H   0  0  0  0  0  0  0  0  0  0  0  0
  121.3559  104.6839  107.4277 H   0  0  0  0  0  0  0  0  0  0  0  0
  122.3914  107.3070  106.7673 H   0  0  0  0  0  0  0  0  0  0  0  0
  125.9175  107.4168  105.4843 H   0  0  0  0  0  0  0  0  0  0  0  0
  1  4  2  0  0  0  0
  1  6  1  0  0  0  0
  2  3  2  0  0  0  0
  2  7  1  0  0  0  0
  3  8  1  0  0  0  0
  4  9  1  0  0  0  0
  5  6  1  0  0  0  0
  5  7  2  0  0  0  0
  6  8  2  0  0  0  0
  7 17  1  0  0  0  0
  8 18  1  0  0  0  0
  9 16  1  0  0  0  0
  9 18  2  0  0  0  0
 10 11  1  0  0  0  0
 10 12  1  0  0  0  0
 11 14  1  0  0  0  0
 12 15  1  0  0  0  0
 13 14  1  0  0  0  0
 13 15  1  0  0  0  0
 14 19  1  0  0  0  0
 15 20  1  0  0  0  0
 17 19  1  0  0  0  0
  1 21  1  0  0  0  0
  2 22  1  0  0  0  0
  3 23  1  0  0  0  0
  4 24  1  0  0  0  0
  5 25  1  0  0  0  0
 10 26  1  0  0  0  0
 10 27  1  0  0  0  0
 11 28  1  0  0  0  0
 11 29  1  0  0  0  0
 12 30  1  0  0  0  0
 12 31  1  0  0  0  0
 13 32  1  0  0  0  0
 13 33  1  0  0  0  0
 14 34  1  0  0  0  0
 15 35  1  0  0  0  0
 16 36  1  0  0  0  0
 16 37  1  0  0  0  0
 16 38  1  0  0  0  0
 17 39  1  0  0  0  0
 17 40  1  0  0  0  0
 19 41  1  0  0  0  0
 20 42  1  0  0  0  0
M  END
> <FRED Chemgauss4 score>
-7.991731

$$$$
C40331928	P61226507
  -OEChem-05182014473D

 39 40  0     1  0  0  0  0  0999 V2000
  124.3511  104.4589  108.2903 C   0  0  0  0  0  0  0  0  0  0  0  0
  123.7291  105.2523  107.3263 C   0  0  0  0  0  0  0  0  0  0  0  0
  126.2719  105.9240  108.2569 C   0  0  0  0  0  0  0  0  0  0  0  0
  125.6225  104.7948  108.7556 C   0  0  0  0  0  0  0  0  0  0  0  0
  124.3785  106.3815  106.8275 C   0  0  0  0  0  0  0  0  0  0  0  0
  125.6499  106.7174  107.2928 C   0  0  0  0  0  0  0  0  0  0  0  0
  120.4777  106.8899  105.4933 C   0  0  0  0  0  0  0  0  0  0  0  0
  118.8113  103.7214  104.6537 C   0  0  0  0  0  0  0  0  0  0  0  0
  118.5398  103.8030  106.1506 C   0  0  0  0  0  0  0  0  0  0  0  0
  119.1573  105.1581  104.2942 C   0  0  0  0  0  0  0  0  0  0  0  0
  119.5815  104.8029  106.6324 C   0  0  0  0  0  0  0  0  0  0  0  0
  122.6887  108.9361  107.6854 C   0  0  0  0  0  0  0  0  0  0  0  0
  121.0624  107.3030  106.8202 C   0  0  0  0  0  0  0  0  0  0  0  0
  119.7863  105.6922  105.4933 N   0  0  0  0  0  0  0  0  0  0  0  0
  126.2508  103.9921  109.7303 N   0  0  0  0  0  0  0  0  0  0  0  0
  122.2403  108.0669  106.5404 N   0  0  2  0  0  0  0  0  0  0  0  0
  120.6227  107.6022  104.4985 O   0  0  0  0  0  0  0  0  0  0  0  0
  124.4348  108.3972  105.1836 O   0  0  0  0  0  0  0  0  0  0  0  0
  123.0034  106.4181  104.6195 O   0  0  0  0  0  0  0  0  0  0  0  0
  123.5308  107.3432  105.6056 S   0  0  0  0  0  0  0  0  0  0  0  0
  126.5895  108.2395  106.6571 Br  0  0  0  0  0  0  0  0  0  0  0  0
  123.8361  103.5811  108.6721 H   0  0  0  0  0  0  0  0  0  0  0  0
  122.7384  104.9788  106.9728 H   0  0  0  0  0  0  0  0  0  0  0  0
  127.2635  106.1782  108.6257 H   0  0  0  0  0  0  0  0  0  0  0  0
  119.6735  103.0693  104.4688 H   0  0  0  0  0  0  0  0  0  0  0  0
  117.9611  103.3370  104.0839 H   0  0  0  0  0  0  0  0  0  0  0  0
  117.5316  104.1989  106.3226 H   0  0  0  0  0  0  0  0  0  0  0  0
  118.6193  102.8358  106.6541 H   0  0  0  0  0  0  0  0  0  0  0  0
  119.8278  105.2371  103.4333 H   0  0  0  0  0  0  0  0  0  0  0  0
  118.2575  105.7516  104.0981 H   0  0  0  0  0  0  0  0  0  0  0  0
  119.2546  105.3599  107.5146 H   0  0  0  0  0  0  0  0  0  0  0  0
  120.5364  104.3124  106.8501 H   0  0  0  0  0  0  0  0  0  0  0  0
  123.5890  109.4899  107.4065 H   0  0  0  0  0  0  0  0  0  0  0  0
  122.9110  108.3216  108.5620 H   0  0  0  0  0  0  0  0  0  0  0  0
  121.9035  109.6502  107.9480 H   0  0  0  0  0  0  0  0  0  0  0  0
  121.3002  106.4037  107.3806 H   0  0  0  0  0  0  0  0  0  0  0  0
  120.3223  107.8986  107.3464 H   0  0  0  0  0  0  0  0  0  0  0  0
  125.7555  103.2126  110.1136 H   0  0  0  0  0  0  0  0  0  0  0  0
  127.1416  104.2694  110.0900 H   0  0  0  0  0  0  0  0  0  0  0  0
  1  2  2  0  0  0  0
  1  4  1  0  0  0  0
  2  5  1  0  0  0  0
  3  4  2  0  0  0  0
  3  6  1  0  0  0  0
  4 15  1  0  0  0  0
  5  6  2  0  0  0  0
  5 20  1  0  0  0  0
  6 21  1  0  0  0  0
  7 13  1  0  0  0  0
  7 14  1  0  0  0  0
  7 17  2  0  0  0  0
  8  9  1  0  0  0  0
  8 10  1  0  0  0  0
  9 11  1  0  0  0  0
 10 14  1  0  0  0  0
 11 14  1  0  0  0  0
 12 16  1  0  0  0  0
 13 16  1  0  0  0  0
 16 20  1  0  0  0  0
 18 20  2  0  0  0  0
 19 20  2  0  0  0  0
  1 22  1  0  0  0  0
  2 23  1  0  0  0  0
  3 24  1  0  0  0  0
  8 25  1  0  0  0  0
  8 26  1  0  0  0  0
  9 27  1  0  0  0  0
  9 28  1  0  0  0  0
 10 29  1  0  0  0  0
 10 30  1  0  0  0  0
 11 31  1  0  0  0  0
 11 32  1  0  0  0  0
 12 33  1  0  0  0  0
 12 34  1  0  0  0  0
 12 35  1  0  0  0  0
 13 36  1  0  0  0  0
 13 37  1  0  0  0  0
 15 38  1  0  0  0  0
 15 39  1  0  0  0  0
M  END
> <FRED Chemgauss4 score>
-7.991599

$$$$
C86136121	P134894996
  -OEChem-05182014473D

 34 34  0     1  0  0  0  0  0999 V2000
  122.9882  106.9378  105.9330 C   0  0  0  0  0  0  0  0  0  0  0  0
  124.7193  106.1185  108.1594 C   0  0  0  0  0  0  0  0  0  0  0  0
  125.2801  106.8800  106.9564 C   0  0  0  0  0  0  0  0  0  0  0  0
  123.2109  106.2706  108.3060 C   0  0  0  0  0  0  0  0  0  0  0  0
  124.2365  107.7539  106.2638 C   0  0  1  0  0  0  0  0  0  0  0  0
  118.7973  105.4127  106.7069 C   0  0  0  0  0  0  0  0  0  0  0  0
  119.9519  107.4206  107.6668 C   0  0  0  0  0  0  0  0  0  0  0  0
  121.4939  104.2791  105.8723 C   0  0  0  0  0  0  0  0  0  0  0  0
  120.0805  106.2508  106.6864 C   0  0  0  0  0  0  0  0  0  0  0  0
  121.3314  105.3730  106.9314 C   0  0  2  0  0  0  0  0  0  0  0  0
  122.5435  106.1703  107.0142 N   0  0  0  0  0  0  0  0  0  0  0  0
  124.7618  108.3203  105.0482 N   0  0  0  0  0  0  0  0  0  0  0  0
  122.4241  107.0037  104.8421 O   0  0  0  0  0  0  0  0  0  0  0  0
  120.6325  103.1893  106.1867 O   0  0  0  0  0  0  0  0  0  0  0  0
  124.9787  105.0424  108.0771 H   0  0  0  0  0  0  0  0  0  0  0  0
  125.2236  106.4716  109.0846 H   0  0  0  0  0  0  0  0  0  0  0  0
  126.1367  107.5043  107.2900 H   0  0  0  0  0  0  0  0  0  0  0  0
  125.7162  106.1482  106.2403 H   0  0  0  0  0  0  0  0  0  0  0  0
  122.8160  105.4822  108.9375 H   0  0  0  0  0  0  0  0  0  0  0  0
  122.9889  107.2351  108.7472 H   0  0  0  0  0  0  0  0  0  0  0  0
  123.9178  108.5387  106.9429 H   0  0  0  0  0  0  0  0  0  0  0  0
  118.6507  104.9568  107.6921 H   0  0  0  0  0  0  0  0  0  0  0  0
  118.8281  104.6055  105.9678 H   0  0  0  0  0  0  0  0  0  0  0  0
  117.9218  106.0358  106.4964 H   0  0  0  0  0  0  0  0  0  0  0  0
  119.8608  107.0683  108.6985 H   0  0  0  0  0  0  0  0  0  0  0  0
  120.8405  108.0598  107.6197 H   0  0  0  0  0  0  0  0  0  0  0  0
  119.0816  108.0451  107.4399 H   0  0  0  0  0  0  0  0  0  0  0  0
  122.5201  103.8996  105.8315 H   0  0  0  0  0  0  0  0  0  0  0  0
  121.2107  104.6520  104.8828 H   0  0  0  0  0  0  0  0  0  0  0  0
  120.1672  106.6765  105.6776 H   0  0  0  0  0  0  0  0  0  0  0  0
  121.2390  104.8902  107.9127 H   0  0  0  0  0  0  0  0  0  0  0  0
  125.7124  108.6163  105.0445 H   0  0  0  0  0  0  0  0  0  0  0  0
  124.1149  108.5798  104.3372 H   0  0  0  0  0  0  0  0  0  0  0  0
  120.7658  102.5223  105.4951 H   0  0  0  0  0  0  0  0  0  0  0  0
  1  5  1  0  0  0  0
  1 11  1  0  0  0  0
  1 13  2  0  0  0  0
  2  3  1  0  0  0  0
  2  4  1  0  0  0  0
  3  5  1  0  0  0  0
  4 11  1  0  0  0  0
  5 12  1  0  0  0  0
  6  9  1  0  0  0  0
  7  9  1  0  0  0  0
  8 10  1  0  0  0  0
  8 14  1  0  0  0  0
  9 10  1  0  0  0  0
 10 11  1  0  0  0  0
  2 15  1  0  0  0  0
  2 16  1  0  0  0  0
  3 17  1  0  0  0  0
  3 18  1  0  0  0  0
  4 19  1  0  0  0  0
  4 20  1  0  0  0  0
  5 21  1  0  0  0  0
  6 22  1  0  0  0  0
  6 23  1  0  0  0  0
  6 24  1  0  0  0  0
  7 25  1  0  0  0  0
  7 26  1  0  0  0  0
  7 27  1  0  0  0  0
  8 28  1  0  0  0  0
  8 29  1  0  0  0  0
  9 30  1  0  0  0  0
 10 31  1  0  0  0  0
 12 32  1  0  0  0  0
 12 33  1  0  0  0  0
 14 34  1  0  0  0  0
M  END
> <FRED Chemgauss4 score>
-7.979738

$$$$
C80745907	P126057400
  -OEChem-05182014473D

 49 50  0     1  0  0  0  0  0999 V2000
  126.5111  106.0955  108.1515 C   0  0  0  0  0  0  0  0  0  0  0  0
  124.5133  105.1628  107.0748 C   0  0  0  0  0  0  0  0  0  0  0  0
  125.1358  107.5917  106.7718 C   0  0  0  0  0  0  0  0  0  0  0  0
  123.1358  105.4389  106.4757 C   0  0  0  0  0  0  0  0  0  0  0  0
  123.7601  107.8719  106.1706 C   0  0  0  0  0  0  0  0  0  0  0  0
  117.7064  104.3712  103.0976 C   0  0  0  0  0  0  0  0  0  0  0  0
  119.3741  104.9547  104.7332 C   0  0  0  0  0  0  0  0  0  0  0  0
  118.3810  105.3189  102.1109 C   0  0  0  0  0  0  0  0  0  0  0  0
  125.0871  106.4113  107.7355 C   0  0  0  0  0  0  0  0  0  0  0  0
  123.1702  106.6246  105.5068 C   0  0  0  0  0  0  0  0  0  0  0  0
  120.0138  105.8992  103.7085 C   0  0  1  0  0  0  0  0  0  0  0  0
  115.8086  104.2414  105.4935 C   0  0  0  0  0  0  0  0  0  0  0  0
  117.9643  104.1279  106.7920 C   0  0  0  0  0  0  0  0  0  0  0  0
  121.5203  105.9886  103.9109 C   0  0  0  0  0  0  0  0  0  0  0  0
  117.2995  103.9418  105.4359 C   0  0  0  0  0  0  0  0  0  0  0  0
  117.9314  104.8403  104.4718 N   0  0  2  0  0  0  0  0  0  0  0  0
  126.6136  105.5541  109.4112 N   0  0  0  0  0  0  0  0  0  0  0  0
  121.8509  106.9018  104.9924 N   0  0  0  0  0  0  0  0  0  0  0  0
  127.4683  106.2972  107.4083 O   0  0  0  0  0  0  0  0  0  0  0  0
  119.7797  105.4085  102.3837 O   0  0  0  0  0  0  0  0  0  0  0  0
  124.4256  104.3781  107.8225 H   0  0  0  0  0  0  0  0  0  0  0  0
  125.1774  104.8022  106.2939 H   0  0  0  0  0  0  0  0  0  0  0  0
  125.8445  107.4015  105.9701 H   0  0  0  0  0  0  0  0  0  0  0  0
  125.4751  108.4729  107.3113 H   0  0  0  0  0  0  0  0  0  0  0  0
  122.7941  104.5517  105.9364 H   0  0  0  0  0  0  0  0  0  0  0  0
  122.4152  105.6177  107.2770 H   0  0  0  0  0  0  0  0  0  0  0  0
  123.0894  108.2459  106.9479 H   0  0  0  0  0  0  0  0  0  0  0  0
  123.8450  108.6643  105.4228 H   0  0  0  0  0  0  0  0  0  0  0  0
  116.6330  104.3357  102.8793 H   0  0  0  0  0  0  0  0  0  0  0  0
  118.1135  103.3598  102.9691 H   0  0  0  0  0  0  0  0  0  0  0  0
  119.8465  103.9648  104.6759 H   0  0  0  0  0  0  0  0  0  0  0  0
  119.5412  105.3505  105.7421 H   0  0  0  0  0  0  0  0  0  0  0  0
  118.2652  104.9388  101.0910 H   0  0  0  0  0  0  0  0  0  0  0  0
  117.9364  106.3212  102.1432 H   0  0  0  0  0  0  0  0  0  0  0  0
  124.5566  106.6572  108.6112 H   0  0  0  0  0  0  0  0  0  0  0  0
  123.8157  106.3527  104.6532 H   0  0  0  0  0  0  0  0  0  0  0  0
  119.6005  106.9098  103.7960 H   0  0  0  0  0  0  0  0  0  0  0  0
  115.6297  105.2660  105.8356 H   0  0  0  0  0  0  0  0  0  0  0  0
  115.3385  104.1226  104.5108 H   0  0  0  0  0  0  0  0  0  0  0  0
  115.3017  103.5596  106.1852 H   0  0  0  0  0  0  0  0  0  0  0  0
  117.8223  105.1512  107.1568 H   0  0  0  0  0  0  0  0  0  0  0  0
  119.0406  103.9372  106.7281 H   0  0  0  0  0  0  0  0  0  0  0  0
  117.5415  103.4498  107.5417 H   0  0  0  0  0  0  0  0  0  0  0  0
  122.0080  106.3559  103.0030 H   0  0  0  0  0  0  0  0  0  0  0  0
  121.9367  105.0089  104.1630 H   0  0  0  0  0  0  0  0  0  0  0  0
  117.4544  102.9134  105.0919 H   0  0  0  0  0  0  0  0  0  0  0  0
  125.7658  105.4104  109.9499 H   0  0  0  0  0  0  0  0  0  0  0  0
  127.5031  105.2924  109.8237 H   0  0  0  0  0  0  0  0  0  0  0  0
  121.1768  106.7959  105.7464 H   0  0  0  0  0  0  0  0  0  0  0  0
  1  9  1  0  0  0  0
  1 17  1  0  0  0  0
  1 19  2  0  0  0  0
  2  4  1  0  0  0  0
  2  9  1  0  0  0  0
  3  5  1  0  0  0  0
  3  9  1  0  0  0  0
  4 10  1  0  0  0  0
  5 10  1  0  0  0  0
  6  8  1  0  0  0  0
  6 16  1  0  0  0  0
  7 11  1  0  0  0  0
  7 16  1  0  0  0  0
  8 20  1  0  0  0  0
 10 18  1  0  0  0  0
 11 14  1  0  0  0  0
 11 20  1  0  0  0  0
 12 15  1  0  0  0  0
 13 15  1  0  0  0  0
 14 18  1  0  0  0  0
 15 16  1  0  0  0  0
  2 21  1  0  0  0  0
  2 22  1  0  0  0  0
  3 23  1  0  0  0  0
  3 24  1  0  0  0  0
  4 25  1  0  0  0  0
  4 26  1  0  0  0  0
  5 27  1  0  0  0  0
  5 28  1  0  0  0  0
  6 29  1  0  0  0  0
  6 30  1  0  0  0  0
  7 31  1  0  0  0  0
  7 32  1  0  0  0  0
  8 33  1  0  0  0  0
  8 34  1  0  0  0  0
  9 35  1  0  0  0  0
 10 36  1  0  0  0  0
 11 37  1  0  0  0  0
 12 38  1  0  0  0  0
 12 39  1  0  0  0  0
 12 40  1  0  0  0  0
 13 41  1  0  0  0  0
 13 42  1  0  0  0  0
 13 43  1  0  0  0  0
 14 44  1  0  0  0  0
 14 45  1  0  0  0  0
 15 46  1  0  0  0  0
 17 47  1  0  0  0  0
 17 48  1  0  0  0  0
 18 49  1  0  0  0  0
M  END
> <FRED Chemgauss4 score>
-7.969690

$$$$
C87226357	P136491744
  -OEChem-05182014473D

 30 31  0     1  0  0  0  0  0999 V2000
  121.8634  105.7226  105.8499 C   0  0  0  0  0  0  0  0  0  0  0  0
  123.6559  106.7230  106.1060 C   0  0  0  0  0  0  0  0  0  0  0  0
  119.0526  103.4758  105.0259 C   0  0  0  0  0  0  0  0  0  0  0  0
  120.4291  103.9806  104.6688 C   0  0  0  0  0  0  0  0  0  0  0  0
  118.8759  104.0339  106.4167 C   0  0  0  0  0  0  0  0  0  0  0  0
  120.4747  105.3681  105.3234 C   0  0  2  0  0  0  0  0  0  0  0  0
  119.9568  106.4668  104.3866 C   0  0  0  0  0  0  0  0  0  0  0  0
  125.9507  107.1570  107.0813 C   0  0  0  0  0  0  0  0  0  0  0  0
  124.8331  107.6019  106.1061 C   0  0  1  0  0  0  0  0  0  0  0  0
  122.5558  106.8097  105.4018 N   0  0  0  0  0  0  0  0  0  0  0  0
  122.4772  104.9860  106.7807 N   0  0  0  0  0  0  0  0  0  0  0  0
  125.4086  107.7633  104.7700 N   0  0  0  0  0  0  0  0  0  0  0  0
  123.6912  105.6624  106.9548 O   0  0  0  0  0  0  0  0  0  0  0  0
  119.5478  105.2994  106.4338 O   0  0  0  0  0  0  0  0  0  0  0  0
  125.4600  107.0996  108.4168 O   0  0  0  0  0  0  0  0  0  0  0  0
  118.2722  103.8025  104.3333 H   0  0  0  0  0  0  0  0  0  0  0  0
  119.0485  102.3798  105.0532 H   0  0  0  0  0  0  0  0  0  0  0  0
  121.2285  103.3067  105.0006 H   0  0  0  0  0  0  0  0  0  0  0  0
  120.5021  104.0649  103.5750 H   0  0  0  0  0  0  0  0  0  0  0  0
  117.8200  104.2136  106.6417 H   0  0  0  0  0  0  0  0  0  0  0  0
  119.2933  103.3834  107.1891 H   0  0  0  0  0  0  0  0  0  0  0  0
  118.9666  106.2025  104.0182 H   0  0  0  0  0  0  0  0  0  0  0  0
  120.6327  106.5804  103.5403 H   0  0  0  0  0  0  0  0  0  0  0  0
  119.8962  107.4125  104.9234 H   0  0  0  0  0  0  0  0  0  0  0  0
  126.3011  106.1541  106.8138 H   0  0  0  0  0  0  0  0  0  0  0  0
  126.8031  107.8446  107.0575 H   0  0  0  0  0  0  0  0  0  0  0  0
  124.5658  108.6442  106.3904 H   0  0  0  0  0  0  0  0  0  0  0  0
  126.3674  108.0226  104.7041 H   0  0  0  0  0  0  0  0  0  0  0  0
  124.7838  107.8094  103.9964 H   0  0  0  0  0  0  0  0  0  0  0  0
  126.2026  106.8171  108.9734 H   0  0  0  0  0  0  0  0  0  0  0  0
  1  6  1  0  0  0  0
  1 10  1  0  0  0  0
  1 11  2  0  0  0  0
  2  9  1  0  0  0  0
  2 10  2  0  0  0  0
  2 13  1  0  0  0  0
  3  4  1  0  0  0  0
  3  5  1  0  0  0  0
  4  6  1  0  0  0  0
  5 14  1  0  0  0  0
  6  7  1  0  0  0  0
  6 14  1  0  0  0  0
  8  9  1  0  0  0  0
  8 15  1  0  0  0  0
  9 12  1  0  0  0  0
 11 13  1  0  0  0  0
  3 16  1  0  0  0  0
  3 17  1  0  0  0  0
  4 18  1  0  0  0  0
  4 19  1  0  0  0  0
  5 20  1  0  0  0  0
  5 21  1  0  0  0  0
  7 22  1  0  0  0  0
  7 23  1  0  0  0  0
  7 24  1  0  0  0  0
  8 25  1  0  0  0  0
  8 26  1  0  0  0  0
  9 27  1  0  0  0  0
 12 28  1  0  0  0  0
 12 29  1  0  0  0  0
 15 30  1  0  0  0  0
M  END
> <FRED Chemgauss4 score>
-7.960561

$$$$
C44924196	P67720670
  -OEChem-05182014473D

 40 41  0     1  0  0  0  0  0999 V2000
  120.0888  104.5676  104.2818 C   0  0  0  0  0  0  0  0  0  0  0  0
  118.7506  104.6403  103.8953 C   0  0  0  0  0  0  0  0  0  0  0  0
  118.0769  103.8656  106.0824 C   0  0  0  0  0  0  0  0  0  0  0  0
  120.4212  104.1438  105.5685 C   0  0  0  0  0  0  0  0  0  0  0  0
  119.4152  103.7929  106.4688 C   0  0  0  0  0  0  0  0  0  0  0  0
  117.7446  104.2893  104.7956 C   0  0  0  0  0  0  0  0  0  0  0  0
  123.9293  104.7718  106.8040 C   0  0  0  0  0  0  0  0  0  0  0  0
  124.7289  106.0467  107.0493 C   0  0  0  0  0  0  0  0  0  0  0  0
  122.5550  106.3430  105.5205 C   0  0  0  0  0  0  0  0  0  0  0  0
  122.4717  105.1870  106.5284 C   0  0  2  0  0  0  0  0  0  0  0  0
  121.7431  105.6030  107.8112 C   0  0  0  0  0  0  0  0  0  0  0  0
  115.9576  101.6379  104.5241 C   0  0  0  0  0  0  0  0  0  0  0  0
  119.7297  103.3611  107.7768 N   0  0  0  0  0  0  0  0  0  0  0  0
  121.7519  104.0788  105.9305 N   0  0  0  0  0  0  0  0  0  0  0  0
  115.7847  102.8226  103.6714 N   0  0  0  0  0  0  0  0  0  0  0  0
  124.8772  107.3262  104.7510 O   0  0  0  0  0  0  0  0  0  0  0  0
  123.6722  108.4318  106.6893 O   0  0  0  0  0  0  0  0  0  0  0  0
  115.2464  104.5532  105.5023 O   0  0  0  0  0  0  0  0  0  0  0  0
  115.9716  105.3532  103.2311 O   0  0  0  0  0  0  0  0  0  0  0  0
  124.0396  107.2544  105.9305 S   0  0  0  0  0  0  0  0  0  0  0  0
  116.0694  104.3814  104.3120 S   0  0  0  0  0  0  0  0  0  0  0  0
  120.8642  104.8434  103.5715 H   0  0  0  0  0  0  0  0  0  0  0  0
  118.5030  104.9710  102.8902 H   0  0  0  0  0  0  0  0  0  0  0  0
  117.2918  103.5920  106.7838 H   0  0  0  0  0  0  0  0  0  0  0  0
  124.3627  104.1950  105.9780 H   0  0  0  0  0  0  0  0  0  0  0  0
  123.9737  104.1420  107.7033 H   0  0  0  0  0  0  0  0  0  0  0  0
  124.6346  106.4035  108.0771 H   0  0  0  0  0  0  0  0  0  0  0  0
  125.7851  105.9162  106.8005 H   0  0  0  0  0  0  0  0  0  0  0  0
  122.6170  106.0098  104.4800 H   0  0  0  0  0  0  0  0  0  0  0  0
  121.7147  107.0374  105.6338 H   0  0  0  0  0  0  0  0  0  0  0  0
  120.7192  105.8887  107.5771 H   0  0  0  0  0  0  0  0  0  0  0  0
  122.2546  106.4486  108.2674 H   0  0  0  0  0  0  0  0  0  0  0  0
  121.7304  104.7715  108.5136 H   0  0  0  0  0  0  0  0  0  0  0  0
  115.8080  101.9051  105.5734 H   0  0  0  0  0  0  0  0  0  0  0  0
  116.9651  101.2302  104.4050 H   0  0  0  0  0  0  0  0  0  0  0  0
  115.2328  100.8663  104.2507 H   0  0  0  0  0  0  0  0  0  0  0  0
  118.9868  103.1617  108.4139 H   0  0  0  0  0  0  0  0  0  0  0  0
  120.6848  103.3540  108.0689 H   0  0  0  0  0  0  0  0  0  0  0  0
  122.2599  103.2204  105.7742 H   0  0  0  0  0  0  0  0  0  0  0  0
  115.9060  102.6731  102.6623 H   0  0  0  0  0  0  0  0  0  0  0  0
  1  2  2  0  0  0  0
  1  4  1  0  0  0  0
  2  6  1  0  0  0  0
  3  5  1  0  0  0  0
  3  6  2  0  0  0  0
  4  5  2  0  0  0  0
  4 14  1  0  0  0  0
  5 13  1  0  0  0  0
  6 21  1  0  0  0  0
  7  8  1  0  0  0  0
  7 10  1  0  0  0  0
  8 20  1  0  0  0  0
  9 10  1  0  0  0  0
  9 20  1  0  0  0  0
 10 11  1  0  0  0  0
 10 14  1  0  0  0  0
 12 15  1  0  0  0  0
 15 21  1  0  0  0  0
 16 20  2  0  0  0  0
 17 20  2  0  0  0  0
 18 21  2  0  0  0  0
 19 21  2  0  0  0  0
  1 22  1  0  0  0  0
  2 23  1  0  0  0  0
  3 24  1  0  0  0  0
  7 25  1  0  0  0  0
  7 26  1  0  0  0  0
  8 27  1  0  0  0  0
  8 28  1  0  0  0  0
  9 29  1  0  0  0  0
  9 30  1  0  0  0  0
 11 31  1  0  0  0  0
 11 32  1  0  0  0  0
 11 33  1  0  0  0  0
 12 34  1  0  0  0  0
 12 35  1  0  0  0  0
 12 36  1  0  0  0  0
 13 37  1  0  0  0  0
 13 38  1  0  0  0  0
 14 39  1  0  0  0  0
 15 40  1  0  0  0  0
M  END
> <FRED Chemgauss4 score>
-7.956244

$$$$
C70948079	P109520047
  -OEChem-05182014473D

 31 31  0     1  0  0  0  0  0999 V2000
  124.7159  106.1560  106.5705 C   0  0  0  0  0  0  0  0  0  0  0  0
  124.3784  105.0429  107.2430 C   0  0  0  0  0  0  0  0  0  0  0  0
  123.6596  106.9081  105.8555 C   0  0  0  0  0  0  0  0  0  0  0  0
  122.1758  105.1975  106.6943 C   0  0  0  0  0  0  0  0  0  0  0  0
  126.0129  103.1975  107.0744 C   0  0  0  0  0  0  0  0  0  0  0  0
  117.8478  104.8335  105.8490 C   0  0  0  0  0  0  0  0  0  0  0  0
  125.4159  104.2486  107.9821 C   0  0  0  0  0  0  0  0  0  0  0  0
  118.8291  103.7701  105.3810 C   0  0  0  0  0  0  0  0  0  0  0  0
  120.2610  104.3092  105.3407 C   0  0  0  0  0  0  0  0  0  0  0  0
  120.7592  104.7215  106.7231 C   0  0  1  0  0  0  0  0  0  0  0  0
  123.0992  104.5367  107.3203 N   0  0  0  0  0  0  0  0  0  0  0  0
  122.4030  106.3499  105.9730 N   0  0  0  0  0  0  0  0  0  0  0  0
  120.7923  103.6051  107.6289 N   0  0  0  0  0  0  0  0  0  0  0  0
  123.9201  107.9291  105.2281 O   0  0  0  0  0  0  0  0  0  0  0  0
  125.7308  106.5327  106.5256 H   0  0  0  0  0  0  0  0  0  0  0  0
  125.2332  102.5126  106.7274 H   0  0  0  0  0  0  0  0  0  0  0  0
  126.7778  102.6125  107.5963 H   0  0  0  0  0  0  0  0  0  0  0  0
  126.4849  103.6526  106.1973 H   0  0  0  0  0  0  0  0  0  0  0  0
  117.8810  105.7124  105.1973 H   0  0  0  0  0  0  0  0  0  0  0  0
  118.0746  105.1539  106.8708 H   0  0  0  0  0  0  0  0  0  0  0  0
  116.8268  104.4391  105.8353 H   0  0  0  0  0  0  0  0  0  0  0  0
  126.1818  104.9400  108.3368 H   0  0  0  0  0  0  0  0  0  0  0  0
  124.9296  103.7880  108.8433 H   0  0  0  0  0  0  0  0  0  0  0  0
  118.7678  102.9083  106.0551 H   0  0  0  0  0  0  0  0  0  0  0  0
  118.5341  103.4241  104.3835 H   0  0  0  0  0  0  0  0  0  0  0  0
  120.3122  105.1595  104.6479 H   0  0  0  0  0  0  0  0  0  0  0  0
  120.9246  103.5356  104.9330 H   0  0  0  0  0  0  0  0  0  0  0  0
  120.1255  105.4933  107.1700 H   0  0  0  0  0  0  0  0  0  0  0  0
  121.6193  106.8035  105.5125 H   0  0  0  0  0  0  0  0  0  0  0  0
  120.0436  102.9312  107.6056 H   0  0  0  0  0  0  0  0  0  0  0  0
  121.4402  103.6176  108.4005 H   0  0  0  0  0  0  0  0  0  0  0  0
  1  2  2  0  0  0  0
  1  3  1  0  0  0  0
  2  7  1  0  0  0  0
  2 11  1  0  0  0  0
  3 12  1  0  0  0  0
  3 14  2  0  0  0  0
  4 10  1  0  0  0  0
  4 11  2  0  0  0  0
  4 12  1  0  0  0  0
  5  7  1  0  0  0  0
  6  8  1  0  0  0  0
  8  9  1  0  0  0  0
  9 10  1  0  0  0  0
 10 13  1  0  0  0  0
  1 15  1  0  0  0  0
  5 16  1  0  0  0  0
  5 17  1  0  0  0  0
  5 18  1  0  0  0  0
  6 19  1  0  0  0  0
  6 20  1  0  0  0  0
  6 21  1  0  0  0  0
  7 22  1  0  0  0  0
  7 23  1  0  0  0  0
  8 24  1  0  0  0  0
  8 25  1  0  0  0  0
  9 26  1  0  0  0  0
  9 27  1  0  0  0  0
 10 28  1  0  0  0  0
 12 29  1  0  0  0  0
 13 30  1  0  0  0  0
 13 31  1  0  0  0  0
M  END
> <FRED Chemgauss4 score>
-7.954518

$$$$
C97941799	P155495002
  -OEChem-05182014473D

 23 22  0     1  0  0  0  0  0999 V2000
  124.6821  107.0862  105.9660 C   0  0  0  0  0  0  0  0  0  0  0  0
  119.8719  107.0162  105.0052 C   0  0  0  0  0  0  0  0  0  0  0  0
  123.6964  106.1694  106.6759 C   0  0  1  0  0  0  0  0  0  0  0  0
  119.9896  106.2573  106.3080 C   0  0  0  0  0  0  0  0  0  0  0  0
  121.3613  105.6416  106.4982 C   0  0  0  0  0  0  0  0  0  0  0  0
  123.9864  106.1434  108.1636 C   0  0  0  0  0  0  0  0  0  0  0  0
  124.6326  108.3874  106.4129 N   0  0  0  0  0  0  0  0  0  0  0  0
  118.6353  107.5852  104.8081 N   0  0  0  0  0  0  0  0  0  0  0  0
  125.4293  106.7010  105.0700 O   0  0  0  0  0  0  0  0  0  0  0  0
  120.7978  107.0890  104.2012 O   0  0  0  0  0  0  0  0  0  0  0  0
  122.3678  106.6477  106.5026 O   0  0  0  0  0  0  0  0  0  0  0  0
  123.7761  104.8900  106.2138 F   0  0  0  0  0  0  0  0  0  0  0  0
  119.0591  105.2655  106.3790 F   0  0  0  0  0  0  0  0  0  0  0  0
  119.7372  107.0819  107.3622 F   0  0  0  0  0  0  0  0  0  0  0  0
  121.3956  104.9901  107.6879 F   0  0  0  0  0  0  0  0  0  0  0  0
  121.6130  104.7298  105.5293 F   0  0  0  0  0  0  0  0  0  0  0  0
  123.8780  107.3827  108.6936 F   0  0  0  0  0  0  0  0  0  0  0  0
  123.1221  105.3441  108.8251 F   0  0  0  0  0  0  0  0  0  0  0  0
  125.2369  105.6995  108.4169 F   0  0  0  0  0  0  0  0  0  0  0  0
  123.9752  108.6294  107.1468 H   0  0  0  0  0  0  0  0  0  0  0  0
  125.2321  109.1127  106.0323 H   0  0  0  0  0  0  0  0  0  0  0  0
  117.8848  107.4957  105.4857 H   0  0  0  0  0  0  0  0  0  0  0  0
  118.4339  108.1222  103.9711 H   0  0  0  0  0  0  0  0  0  0  0  0
  1  3  1  0  0  0  0
  1  7  1  0  0  0  0
  1  9  2  0  0  0  0
  2  4  1  0  0  0  0
  2  8  1  0  0  0  0
  2 10  2  0  0  0  0
  3  6  1  0  0  0  0
  3 11  1  0  0  0  0
  3 12  1  0  0  0  0
  4  5  1  0  0  0  0
  4 13  1  0  0  0  0
  4 14  1  0  0  0  0
  5 11  1  0  0  0  0
  5 15  1  0  0  0  0
  5 16  1  0  0  0  0
  6 17  1  0  0  0  0
  6 18  1  0  0  0  0
  6 19  1  0  0  0  0
  7 20  1  0  0  0  0
  7 21  1  0  0  0  0
  8 22  1  0  0  0  0
  8 23  1  0  0  0  0
M  END
> <FRED Chemgauss4 score>
-7.948469

$$$$
C80530259	P125734626
  -OEChem-05182014473D

 37 38  0     0  0  0  0  0  0999 V2000
  117.5976  105.2203  101.9163 C   0  0  0  0  0  0  0  0  0  0  0  0
  119.9195  104.6921  101.5081 C   0  0  0  0  0  0  0  0  0  0  0  0
  117.3482  105.1841  100.5444 C   0  0  0  0  0  0  0  0  0  0  0  0
  119.6701  104.6559  100.1362 C   0  0  0  0  0  0  0  0  0  0  0  0
  126.6838  105.9154  108.1015 C   0  0  0  0  0  0  0  0  0  0  0  0
  118.8833  104.9743  102.3981 C   0  0  0  0  0  0  0  0  0  0  0  0
  118.3844  104.9019   99.6544 C   0  0  0  0  0  0  0  0  0  0  0  0
  124.7969  106.7812  107.8850 C   0  0  0  0  0  0  0  0  0  0  0  0
  119.1490  105.0129  103.8593 C   0  0  0  0  0  0  0  0  0  0  0  0
  121.9743  106.4156  105.7766 C   0  0  0  0  0  0  0  0  0  0  0  0
  122.0067  105.7519  108.1933 C   0  0  0  0  0  0  0  0  0  0  0  0
  123.5659  107.4825  107.3878 C   0  0  0  0  0  0  0  0  0  0  0  0
  120.8643  105.3926  105.6113 C   0  0  0  0  0  0  0  0  0  0  0  0
  125.9022  106.5853  107.2043 N   0  0  0  0  0  0  0  0  0  0  0  0
  124.9253  106.2481  109.1296 N   0  0  0  0  0  0  0  0  0  0  0  0
  126.1316  105.6844  109.2945 N   0  0  0  0  0  0  0  0  0  0  0  0
  118.1321  104.8653   98.2673 N   0  0  0  0  0  0  0  0  0  0  0  0
  120.4472  105.3384  104.2394 N   0  0  0  0  0  0  0  0  0  0  0  0
  122.4959  106.5456  107.0685 N   0  0  0  0  0  0  0  0  0  0  0  0
  118.2413  104.7430  104.6415 O   0  0  0  0  0  0  0  0  0  0  0  0
  122.3730  107.0759  104.8135 O   0  0  0  0  0  0  0  0  0  0  0  0
  116.7827  105.4412  102.6010 H   0  0  0  0  0  0  0  0  0  0  0  0
  120.9252  104.4988  101.8726 H   0  0  0  0  0  0  0  0  0  0  0  0
  116.3425  105.3774  100.1797 H   0  0  0  0  0  0  0  0  0  0  0  0
  120.4849  104.4349   99.4513 H   0  0  0  0  0  0  0  0  0  0  0  0
  127.6881  105.5914  107.8618 H   0  0  0  0  0  0  0  0  0  0  0  0
  122.5775  104.8232  108.2742 H   0  0  0  0  0  0  0  0  0  0  0  0
  120.9512  105.5049  108.0508 H   0  0  0  0  0  0  0  0  0  0  0  0
  122.1127  106.3125  109.1259 H   0  0  0  0  0  0  0  0  0  0  0  0
  123.1884  108.1813  108.1423 H   0  0  0  0  0  0  0  0  0  0  0  0
  123.7823  108.0638  106.4854 H   0  0  0  0  0  0  0  0  0  0  0  0
  121.2210  104.3971  105.8879 H   0  0  0  0  0  0  0  0  0  0  0  0
  119.9939  105.6748  106.2092 H   0  0  0  0  0  0  0  0  0  0  0  0
  126.4193  105.2322  110.1579 H   0  0  0  0  0  0  0  0  0  0  0  0
  117.1972  104.9968   97.9377 H   0  0  0  0  0  0  0  0  0  0  0  0
  118.8727  104.6156   97.6433 H   0  0  0  0  0  0  0  0  0  0  0  0
  121.1580  105.4875  103.5239 H   0  0  0  0  0  0  0  0  0  0  0  0
  1  3  2  0  0  0  0
  1  6  1  0  0  0  0
  2  4  1  0  0  0  0
  2  6  2  0  0  0  0
  3  7  1  0  0  0  0
  4  7  2  0  0  0  0
  5 14  2  0  0  0  0
  5 16  1  0  0  0  0
  6  9  1  0  0  0  0
  7 17  1  0  0  0  0
  8 12  1  0  0  0  0
  8 14  1  0  0  0  0
  8 15  2  0  0  0  0
  9 18  1  0  0  0  0
  9 20  2  0  0  0  0
 10 13  1  0  0  0  0
 10 19  1  0  0  0  0
 10 21  2  0  0  0  0
 11 19  1  0  0  0  0
 12 19  1  0  0  0  0
 13 18  1  0  0  0  0
 15 16  1  0  0  0  0
  1 22  1  0  0  0  0
  2 23  1  0  0  0  0
  3 24  1  0  0  0  0
  4 25  1  0  0  0  0
  5 26  1  0  0  0  0
 11 27  1  0  0  0  0
 11 28  1  0  0  0  0
 11 29  1  0  0  0  0
 12 30  1  0  0  0  0
 12 31  1  0  0  0  0
 13 32  1  0  0  0  0
 13 33  1  0  0  0  0
 16 34  1  0  0  0  0
 17 35  1  0  0  0  0
 17 36  1  0  0  0  0
 18 37  1  0  0  0  0
M  END
> <FRED Chemgauss4 score>
-7.944714

$$$$
C98352729	P156427866
  -OEChem-05182014473D

 29 30  0     1  0  0  0  0  0999 V2000
  121.7525  106.6282  105.5276 C   0  0  0  0  0  0  0  0  0  0  0  0
  123.7856  106.6877  105.9053 C   0  0  0  0  0  0  0  0  0  0  0  0
  118.6579  105.5952  103.7099 C   0  0  0  0  0  0  0  0  0  0  0  0
  118.6844  104.5587  102.6111 C   0  0  0  0  0  0  0  0  0  0  0  0
  120.1076  104.0171  102.6725 C   0  0  0  0  0  0  0  0  0  0  0  0
  120.9224  105.1912  103.1769 C   0  0  0  0  0  0  0  0  0  0  0  0
  125.7198  107.3743  107.3816 C   0  0  0  0  0  0  0  0  0  0  0  0
  120.4152  106.9419  104.9215 C   0  0  0  0  0  0  0  0  0  0  0  0
  125.2340  106.9197  105.9874 C   0  0  2  0  0  0  0  0  0  0  0  0
  122.8962  107.2596  105.1336 N   0  0  0  0  0  0  0  0  0  0  0  0
  121.8968  105.7115  106.4892 N   0  0  0  0  0  0  0  0  0  0  0  0
  119.9824  105.9120  104.0022 N   0  0  0  0  0  0  0  0  0  0  0  0
  125.7150  107.8725  104.9887 N   0  0  0  0  0  0  0  0  0  0  0  0
  117.6414  106.0735  104.1905 O   0  0  0  0  0  0  0  0  0  0  0  0
  123.2731  105.7509  106.7456 O   0  0  0  0  0  0  0  0  0  0  0  0
  117.9430  103.7765  102.7910 H   0  0  0  0  0  0  0  0  0  0  0  0
  118.4855  105.0538  101.6555 H   0  0  0  0  0  0  0  0  0  0  0  0
  120.1529  103.1953  103.3983 H   0  0  0  0  0  0  0  0  0  0  0  0
  120.4613  103.6353  101.7108 H   0  0  0  0  0  0  0  0  0  0  0  0
  121.7883  104.8723  103.7638 H   0  0  0  0  0  0  0  0  0  0  0  0
  121.2422  105.8485  102.3619 H   0  0  0  0  0  0  0  0  0  0  0  0
  125.2001  108.2900  107.6842 H   0  0  0  0  0  0  0  0  0  0  0  0
  125.5393  106.6124  108.1483 H   0  0  0  0  0  0  0  0  0  0  0  0
  126.7960  107.5811  107.3807 H   0  0  0  0  0  0  0  0  0  0  0  0
  119.6518  107.0409  105.7008 H   0  0  0  0  0  0  0  0  0  0  0  0
  120.4449  107.8893  104.3731 H   0  0  0  0  0  0  0  0  0  0  0  0
  125.8050  105.9934  105.7570 H   0  0  0  0  0  0  0  0  0  0  0  0
  125.2988  107.8515  104.0837 H   0  0  0  0  0  0  0  0  0  0  0  0
  126.5637  108.3592  105.1775 H   0  0  0  0  0  0  0  0  0  0  0  0
  1  8  1  0  0  0  0
  1 10  1  0  0  0  0
  1 11  2  0  0  0  0
  2  9  1  0  0  0  0
  2 10  2  0  0  0  0
  2 15  1  0  0  0  0
  3  4  1  0  0  0  0
  3 12  1  0  0  0  0
  3 14  2  0  0  0  0
  4  5  1  0  0  0  0
  5  6  1  0  0  0  0
  6 12  1  0  0  0  0
  7  9  1  0  0  0  0
  8 12  1  0  0  0  0
  9 13  1  0  0  0  0
 11 15  1  0  0  0  0
  4 16  1  0  0  0  0
  4 17  1  0  0  0  0
  5 18  1  0  0  0  0
  5 19  1  0  0  0  0
  6 20  1  0  0  0  0
  6 21  1  0  0  0  0
  7 22  1  0  0  0  0
  7 23  1  0  0  0  0
  7 24  1  0  0  0  0
  8 25  1  0  0  0  0
  8 26  1  0  0  0  0
  9 27  1  0  0  0  0
 13 28  1  0  0  0  0
 13 29  1  0  0  0  0
M  END
> <FRED Chemgauss4 score>
-7.934464

$$$$
C36807941	P54704637
  -OEChem-05182014473D

 43 43  0     1  0  0  0  0  0999 V2000
  117.8361  105.2567  105.7339 C   0  0  0  0  0  0  0  0  0  0  0  0
  118.1172  103.0161  106.0254 C   0  0  0  0  0  0  0  0  0  0  0  0
  123.6839  106.4053  105.5506 C   0  0  0  0  0  0  0  0  0  0  0  0
  116.6838  104.5910  104.9777 C   0  0  0  0  0  0  0  0  0  0  0  0
  115.3444  104.9928  105.5811 C   0  0  0  0  0  0  0  0  0  0  0  0
  116.7693  104.9027  103.4894 C   0  0  0  0  0  0  0  0  0  0  0  0
  126.1601  105.1892  109.1074 C   0  0  0  0  0  0  0  0  0  0  0  0
  123.3400  104.0398  105.0970 C   0  0  0  0  0  0  0  0  0  0  0  0
  124.9588  105.6345  108.2860 C   0  0  0  0  0  0  0  0  0  0  0  0
  124.6448  104.6294  107.1703 C   0  0  0  0  0  0  0  0  0  0  0  0
  119.7883  104.5403  107.1124 C   0  0  0  0  0  0  0  0  0  0  0  0
  121.0134  104.6356  106.2228 C   0  0  0  0  0  0  0  0  0  0  0  0
  123.4779  105.0408  106.2516 C   0  0  1  0  0  0  0  0  0  0  0  0
  116.9791  103.1989  105.2384 N   0  0  0  0  0  0  0  0  0  0  0  0
  118.5832  104.2679  106.2977 N   0  0  0  0  0  0  0  0  0  0  0  0
  122.2026  104.9605  107.0427 N   0  3  0  0  0  0  0  0  0  0  0  0
  124.8818  106.7195  105.2976 O   0  5  0  0  0  0  0  0  0  0  0  0
  118.0118  106.4671  105.7939 O   0  0  0  0  0  0  0  0  0  0  0  0
  118.5713  101.9350  106.3774 O   0  0  0  0  0  0  0  0  0  0  0  0
  122.6241  107.0475  105.2972 O   0  0  0  0  0  0  0  0  0  0  0  0
  114.5306  104.5140  105.0361 H   0  0  0  0  0  0  0  0  0  0  0  0
  115.2189  106.0743  105.5247 H   0  0  0  0  0  0  0  0  0  0  0  0
  115.2985  104.6858  106.6262 H   0  0  0  0  0  0  0  0  0  0  0  0
  115.9449  104.4245  102.9598 H   0  0  0  0  0  0  0  0  0  0  0  0
  117.7113  104.5329  103.0841 H   0  0  0  0  0  0  0  0  0  0  0  0
  116.7144  105.9798  103.3298 H   0  0  0  0  0  0  0  0  0  0  0  0
  127.0454  105.0694  108.4748 H   0  0  0  0  0  0  0  0  0  0  0  0
  126.3903  105.9336  109.8760 H   0  0  0  0  0  0  0  0  0  0  0  0
  125.9620  104.2353  109.6067 H   0  0  0  0  0  0  0  0  0  0  0  0
  123.1872  103.0198  105.4690 H   0  0  0  0  0  0  0  0  0  0  0  0
  122.4861  104.2867  104.4553 H   0  0  0  0  0  0  0  0  0  0  0  0
  124.2360  104.0249  104.4647 H   0  0  0  0  0  0  0  0  0  0  0  0
  124.0999  105.7410  108.9570 H   0  0  0  0  0  0  0  0  0  0  0  0
  125.1664  106.6232  107.8631 H   0  0  0  0  0  0  0  0  0  0  0  0
  124.4248  103.6554  107.6287 H   0  0  0  0  0  0  0  0  0  0  0  0
  125.5507  104.4777  106.5684 H   0  0  0  0  0  0  0  0  0  0  0  0
  119.8984  103.7456  107.8578 H   0  0  0  0  0  0  0  0  0  0  0  0
  119.6354  105.4856  107.6428 H   0  0  0  0  0  0  0  0  0  0  0  0
  120.9105  105.4397  105.4886 H   0  0  0  0  0  0  0  0  0  0  0  0
  121.2303  103.6940  105.7094 H   0  0  0  0  0  0  0  0  0  0  0  0
  116.4192  102.4291  104.8853 H   0  0  0  0  0  0  0  0  0  0  0  0
  122.0634  105.8563  107.5191 H   0  0  0  0  0  0  0  0  0  0  0  0
  122.3233  104.2560  107.7761 H   0  0  0  0  0  0  0  0  0  0  0  0
  1  4  1  0  0  0  0
  1 15  1  0  0  0  0
  1 18  2  0  0  0  0
  2 14  1  0  0  0  0
  2 15  1  0  0  0  0
  2 19  2  0  0  0  0
  3 13  1  0  0  0  0
  3 17  1  0  0  0  0
  3 20  2  0  0  0  0
  4  5  1  0  0  0  0
  4  6  1  0  0  0  0
  4 14  1  0  0  0  0
  7  9  1  0  0  0  0
  8 13  1  0  0  0  0
  9 10  1  0  0  0  0
 10 13  1  0  0  0  0
 11 12  1  0  0  0  0
 11 15  1  0  0  0  0
 12 16  1  0  0  0  0
 13 16  1  0  0  0  0
  5 21  1  0  0  0  0
  5 22  1  0  0  0  0
  5 23  1  0  0  0  0
  6 24  1  0  0  0  0
  6 25  1  0  0  0  0
  6 26  1  0  0  0  0
  7 27  1  0  0  0  0
  7 28  1  0  0  0  0
  7 29  1  0  0  0  0
  8 30  1  0  0  0  0
  8 31  1  0  0  0  0
  8 32  1  0  0  0  0
  9 33  1  0  0  0  0
  9 34  1  0  0  0  0
 10 35  1  0  0  0  0
 10 36  1  0  0  0  0
 11 37  1  0  0  0  0
 11 38  1  0  0  0  0
 12 39  1  0  0  0  0
 12 40  1  0  0  0  0
 14 41  1  0  0  0  0
 16 42  1  0  0  0  0
 16 43  1  0  0  0  0
M  CHG  2  16   1  17  -1
M  END
> <FRED Chemgauss4 score>
-7.934034

$$$$
L-Asparagine	P10000024
  -OEChem-05182014473D

 17 16  0     1  0  0  0  0  0999 V2000
  125.1063  105.0331  108.6860 C   0  0  0  0  0  0  0  0  0  0  0  0
  124.9776  107.6663  105.7552 C   0  0  0  0  0  0  0  0  0  0  0  0
  125.1391  105.5403  107.2526 C   0  0  0  0  0  0  0  0  0  0  0  0
  125.3702  107.0458  107.1072 C   0  0  2  0  0  0  0  0  0  0  0  0
  126.3053  105.2324  109.3372 N   0  0  0  0  0  0  0  0  0  0  0  0
  124.7350  107.7040  108.2939 N   0  3  0  0  0  0  0  0  0  0  0  0
  123.7629  107.5216  105.4347 O   0  5  0  0  0  0  0  0  0  0  0  0
  124.1282  104.5080  109.2094 O   0  0  0  0  0  0  0  0  0  0  0  0
  125.9090  108.2252  105.1112 O   0  0  0  0  0  0  0  0  0  0  0  0
  125.9295  104.9918  106.7247 H   0  0  0  0  0  0  0  0  0  0  0  0
  124.1892  105.2635  106.7767 H   0  0  0  0  0  0  0  0  0  0  0  0
  126.4444  107.2382  107.2221 H   0  0  0  0  0  0  0  0  0  0  0  0
  127.0747  105.6750  108.8447 H   0  0  0  0  0  0  0  0  0  0  0  0
  126.4294  104.9429  110.3016 H   0  0  0  0  0  0  0  0  0  0  0  0
  123.7280  107.7884  108.1527 H   0  0  0  0  0  0  0  0  0  0  0  0
  125.1265  108.6366  108.4301 H   0  0  0  0  0  0  0  0  0  0  0  0
  124.9033  107.1514  109.1351 H   0  0  0  0  0  0  0  0  0  0  0  0
  1  3  1  0  0  0  0
  1  5  1  0  0  0  0
  1  8  2  0  0  0  0
  2  4  1  0  0  0  0
  2  7  1  0  0  0  0
  2  9  2  0  0  0  0
  3  4  1  0  0  0  0
  4  6  1  0  0  0  0
  3 10  1  0  0  0  0
  3 11  1  0  0  0  0
  4 12  1  0  0  0  0
  5 13  1  0  0  0  0
  5 14  1  0  0  0  0
  6 15  1  0  0  0  0
  6 16  1  0  0  0  0
  6 17  1  0  0  0  0
M  CHG  2   6   1   7  -1
M  END
> <FRED Chemgauss4 score>
-7.931997

$$$$
C01529206	P22833959
  -OEChem-05182014473D

 24 24  0     1  0  0  0  0  0999 V2000
  125.4502  107.0961  107.0301 C   0  0  1  0  0  0  0  0  0  0  0  0
  124.9095  106.2384  108.1756 C   0  0  2  0  0  0  0  0  0  0  0  0
  124.5676  106.9069  105.7952 C   0  0  1  0  0  0  0  0  0  0  0  0
  123.4230  106.5380  108.4148 C   0  0  2  0  0  0  0  0  0  0  0  0
  123.0947  107.1602  106.1304 C   0  0  2  0  0  0  0  0  0  0  0  0
  122.8300  105.6289  109.4867 C   0  0  0  0  0  0  0  0  0  0  0  0
  122.6801  106.3225  107.2105 O   0  0  0  0  0  0  0  0  0  0  0  0
  125.4232  108.4690  107.4318 O   0  0  0  0  0  0  0  0  0  0  0  0
  125.6548  106.4798  109.3624 O   0  0  0  0  0  0  0  0  0  0  0  0
  124.9787  107.7974  104.7629 O   0  0  0  0  0  0  0  0  0  0  0  0
  122.3227  106.8607  104.9678 O   0  0  0  0  0  0  0  0  0  0  0  0
  122.9528  104.2855  109.0566 O   0  0  0  0  0  0  0  0  0  0  0  0
  126.4974  106.8549  106.8158 H   0  0  0  0  0  0  0  0  0  0  0  0
  125.0309  105.1815  107.9052 H   0  0  0  0  0  0  0  0  0  0  0  0
  124.6863  105.8847  105.4159 H   0  0  0  0  0  0  0  0  0  0  0  0
  123.2826  107.5742  108.7456 H   0  0  0  0  0  0  0  0  0  0  0  0
  122.9178  108.2139  106.3799 H   0  0  0  0  0  0  0  0  0  0  0  0
  121.7761  105.8652  109.6336 H   0  0  0  0  0  0  0  0  0  0  0  0
  123.3702  105.7578  110.4247 H   0  0  0  0  0  0  0  0  0  0  0  0
  124.4971  108.6768  107.6222 H   0  0  0  0  0  0  0  0  0  0  0  0
  126.5759  106.2443  109.1667 H   0  0  0  0  0  0  0  0  0  0  0  0
  125.9021  107.5798  104.5599 H   0  0  0  0  0  0  0  0  0  0  0  0
  121.3974  107.0277  105.2027 H   0  0  0  0  0  0  0  0  0  0  0  0
  122.5694  103.7263  109.7537 H   0  0  0  0  0  0  0  0  0  0  0  0
  1  2  1  0  0  0  0
  1  3  1  0  0  0  0
  1  8  1  0  0  0  0
  2  4  1  0  0  0  0
  2  9  1  0  0  0  0
  3  5  1  0  0  0  0
  3 10  1  0  0  0  0
  4  6  1  0  0  0  0
  4  7  1  0  0  0  0
  5  7  1  0  0  0  0
  5 11  1  0  0  0  0
  6 12  1  0  0  0  0
  1 13  1  0  0  0  0
  2 14  1  0  0  0  0
  3 15  1  0  0  0  0
  4 16  1  0  0  0  0
  5 17  1  0  0  0  0
  6 18  1  0  0  0  0
  6 19  1  0  0  0  0
  8 20  1  0  0  0  0
  9 21  1  0  0  0  0
 10 22  1  0  0  0  0
 11 23  1  0  0  0  0
 12 24  1  0  0  0  0
M  END
> <FRED Chemgauss4 score>
-7.908676

$$$$
C04962298	P07250663
  -OEChem-05182014473D

 41 42  0     1  0  0  0  0  0999 V2000
  122.1884  107.5240  109.1039 C   0  0  0  0  0  0  0  0  0  0  0  0
  120.4967  108.4837  107.6706 C   0  0  0  0  0  0  0  0  0  0  0  0
  119.6092  105.0400  106.9025 C   0  0  0  0  0  0  0  0  0  0  0  0
  120.0350  106.4521  104.9890 C   0  0  0  0  0  0  0  0  0  0  0  0
  121.9436  108.5138  110.0556 C   0  0  0  0  0  0  0  0  0  0  0  0
  120.2518  109.4735  108.6224 C   0  0  0  0  0  0  0  0  0  0  0  0
  118.4150  104.6132  106.3219 C   0  0  0  0  0  0  0  0  0  0  0  0
  118.8407  106.0252  104.4083 C   0  0  0  0  0  0  0  0  0  0  0  0
  121.4649  107.5089  107.9113 C   0  0  0  0  0  0  0  0  0  0  0  0
  120.4192  105.9595  106.2361 C   0  0  0  0  0  0  0  0  0  0  0  0
  120.9753  109.4886  109.8149 C   0  0  0  0  0  0  0  0  0  0  0  0
  118.0307  105.1057  105.0747 C   0  0  0  0  0  0  0  0  0  0  0  0
  126.2654  105.9606  107.6122 C   0  0  0  0  0  0  0  0  0  0  0  0
  121.7308  106.4270  106.8722 C   0  0  0  0  0  0  0  0  0  0  0  0
  125.0736  105.7569  106.6719 C   0  0  2  0  0  0  0  0  0  0  0  0
  122.8244  106.8007  105.8297 C   0  0  1  0  0  0  0  0  0  0  0  0
  124.2379  107.0305  106.4254 C   0  0  2  0  0  0  0  0  0  0  0  0
  125.8460  106.4291  108.8858 O   0  0  0  0  0  0  0  0  0  0  0  0
  124.2581  104.7130  107.1988 O   0  0  0  0  0  0  0  0  0  0  0  0
  122.8893  105.7433  104.8643 O   0  0  0  0  0  0  0  0  0  0  0  0
  124.9490  107.8943  105.5327 O   0  0  0  0  0  0  0  0  0  0  0  0
  120.6734  110.7094  110.9893 Cl  0  0  0  0  0  0  0  0  0  0  0  0
  116.5576  104.5789  104.3586 Cl  0  0  0  0  0  0  0  0  0  0  0  0
  122.9446  106.7681  109.2987 H   0  0  0  0  0  0  0  0  0  0  0  0
  119.9285  108.4788  106.7441 H   0  0  0  0  0  0  0  0  0  0  0  0
  119.9016  104.6517  107.8746 H   0  0  0  0  0  0  0  0  0  0  0  0
  120.6605  107.1686  104.4631 H   0  0  0  0  0  0  0  0  0  0  0  0
  122.5148  108.5127  110.9804 H   0  0  0  0  0  0  0  0  0  0  0  0
  119.4943  110.2266  108.4211 H   0  0  0  0  0  0  0  0  0  0  0  0
  117.7942  103.8960  106.8528 H   0  0  0  0  0  0  0  0  0  0  0  0
  118.5541  106.4177  103.4360 H   0  0  0  0  0  0  0  0  0  0  0  0
  126.9463  106.7102  107.1953 H   0  0  0  0  0  0  0  0  0  0  0  0
  126.8110  105.0215  107.7489 H   0  0  0  0  0  0  0  0  0  0  0  0
  122.1271  105.5465  107.3984 H   0  0  0  0  0  0  0  0  0  0  0  0
  125.4745  105.3947  105.7202 H   0  0  0  0  0  0  0  0  0  0  0  0
  122.5400  107.7004  105.2718 H   0  0  0  0  0  0  0  0  0  0  0  0
  124.1507  107.5729  107.3732 H   0  0  0  0  0  0  0  0  0  0  0  0
  126.6472  106.5345  109.4243 H   0  0  0  0  0  0  0  0  0  0  0  0
  124.8162  103.9211  107.2397 H   0  0  0  0  0  0  0  0  0  0  0  0
  123.1198  104.9436  105.3577 H   0  0  0  0  0  0  0  0  0  0  0  0
  124.3894  108.6744  105.4087 H   0  0  0  0  0  0  0  0  0  0  0  0
  1  5  1  0  0  0  0
  1  9  2  0  0  0  0
  2  6  2  0  0  0  0
  2  9  1  0  0  0  0
  3  7  2  0  0  0  0
  3 10  1  0  0  0  0
  4  8  1  0  0  0  0
  4 10  2  0  0  0  0
  5 11  2  0  0  0  0
  6 11  1  0  0  0  0
  7 12  1  0  0  0  0
  8 12  2  0  0  0  0
  9 14  1  0  0  0  0
 10 14  1  0  0  0  0
 11 22  1  0  0  0  0
 12 23  1  0  0  0  0
 13 15  1  0  0  0  0
 13 18  1  0  0  0  0
 14 16  1  0  0  0  0
 15 17  1  0  0  0  0
 15 19  1  0  0  0  0
 16 17  1  0  0  0  0
 16 20  1  0  0  0  0
 17 21  1  0  0  0  0
  1 24  1  0  0  0  0
  2 25  1  0  0  0  0
  3 26  1  0  0  0  0
  4 27  1  0  0  0  0
  5 28  1  0  0  0  0
  6 29  1  0  0  0  0
  7 30  1  0  0  0  0
  8 31  1  0  0  0  0
 13 32  1  0  0  0  0
 13 33  1  0  0  0  0
 14 34  1  0  0  0  0
 15 35  1  0  0  0  0
 16 36  1  0  0  0  0
 17 37  1  0  0  0  0
 18 38  1  0  0  0  0
 19 39  1  0  0  0  0
 20 40  1  0  0  0  0
 21 41  1  0  0  0  0
M  END
> <FRED Chemgauss4 score>
-7.897939

$$$$
C41058628	P62323748
  -OEChem-05182014473D

 29 29  0     1  0  0  0  0  0999 V2000
  122.4950  105.7519  106.4181 C   0  0  0  0  0  0  0  0  0  0  0  0
  120.8200  104.5070  106.3787 C   0  0  0  0  0  0  0  0  0  0  0  0
  119.2290  104.7665  103.8283 C   0  0  0  0  0  0  0  0  0  0  0  0
  125.7741  106.0363  106.2206 C   0  0  0  0  0  0  0  0  0  0  0  0
  119.5034  103.8735  106.2018 C   0  0  0  0  0  0  0  0  0  0  0  0
  118.6021  104.6364  105.2074 C   0  0  0  0  0  0  0  0  0  0  0  0
  123.3747  106.9749  106.1979 C   0  0  1  0  0  0  0  0  0  0  0  0
  124.6411  106.6218  105.3803 C   0  0  1  0  0  0  0  0  0  0  0  0
  121.1963  105.7059  105.9988 N   0  0  0  0  0  0  0  0  0  0  0  0
  122.9460  104.6568  107.0335 N   0  0  0  0  0  0  0  0  0  0  0  0
  121.8554  103.8762  106.9951 N   0  0  0  0  0  0  0  0  0  0  0  0
  122.6025  108.0500  105.5651 N   0  0  0  0  0  0  0  0  0  0  0  0
  125.1445  107.8103  104.7606 O   0  0  0  0  0  0  0  0  0  0  0  0
  120.1948  105.2789  103.8833 H   0  0  0  0  0  0  0  0  0  0  0  0
  119.3864  103.7828  103.3746 H   0  0  0  0  0  0  0  0  0  0  0  0
  118.5752  105.3446  103.1677 H   0  0  0  0  0  0  0  0  0  0  0  0
  126.0545  106.6971  107.0455 H   0  0  0  0  0  0  0  0  0  0  0  0
  126.6600  105.8452  105.6050 H   0  0  0  0  0  0  0  0  0  0  0  0
  125.4733  105.0717  106.6449 H   0  0  0  0  0  0  0  0  0  0  0  0
  119.6006  102.8257  105.8469 H   0  0  0  0  0  0  0  0  0  0  0  0
  118.9596  103.7885  107.1662 H   0  0  0  0  0  0  0  0  0  0  0  0
  117.6387  104.1200  105.1164 H   0  0  0  0  0  0  0  0  0  0  0  0
  118.3888  105.6378  105.6006 H   0  0  0  0  0  0  0  0  0  0  0  0
  123.6988  107.3408  107.1814 H   0  0  0  0  0  0  0  0  0  0  0  0
  124.4063  105.9175  104.5740 H   0  0  0  0  0  0  0  0  0  0  0  0
  121.8959  102.9487  107.4011 H   0  0  0  0  0  0  0  0  0  0  0  0
  123.1061  108.7628  105.0899 H   0  0  0  0  0  0  0  0  0  0  0  0
  121.6421  108.1331  105.8067 H   0  0  0  0  0  0  0  0  0  0  0  0
  125.8958  107.5334  104.2168 H   0  0  0  0  0  0  0  0  0  0  0  0
  1  7  1  0  0  0  0
  1  9  1  0  0  0  0
  1 10  2  0  0  0  0
  2  5  1  0  0  0  0
  2  9  2  0  0  0  0
  2 11  1  0  0  0  0
  3  6  1  0  0  0  0
  4  8  1  0  0  0  0
  5  6  1  0  0  0  0
  7  8  1  0  0  0  0
  7 12  1  0  0  0  0
  8 13  1  0  0  0  0
 10 11  1  0  0  0  0
  3 14  1  0  0  0  0
  3 15  1  0  0  0  0
  3 16  1  0  0  0  0
  4 17  1  0  0  0  0
  4 18  1  0  0  0  0
  4 19  1  0  0  0  0
  5 20  1  0  0  0  0
  5 21  1  0  0  0  0
  6 22  1  0  0  0  0
  6 23  1  0  0  0  0
  7 24  1  0  0  0  0
  8 25  1  0  0  0  0
 11 26  1  0  0  0  0
 12 27  1  0  0  0  0
 12 28  1  0  0  0  0
 13 29  1  0  0  0  0
M  END
> <FRED Chemgauss4 score>
-7.897792

$$$$
C40306071	P61188732
  -OEChem-05182014473D

 34 34  0     0  0  0  0  0  0999 V2000
  120.8876  105.1735  106.6326 C   0  0  0  0  0  0  0  0  0  0  0  0
  121.2521  106.0045  104.3936 C   0  0  0  0  0  0  0  0  0  0  0  0
  121.5817  105.9999  105.7489 C   0  0  0  0  0  0  0  0  0  0  0  0
  119.8640  104.3516  106.1610 C   0  0  0  0  0  0  0  0  0  0  0  0
  120.2285  105.1827  103.9219 C   0  0  0  0  0  0  0  0  0  0  0  0
  119.5345  104.3562  104.8056 C   0  0  0  0  0  0  0  0  0  0  0  0
  122.6723  106.8746  106.2514 C   0  0  0  0  0  0  0  0  0  0  0  0
  126.0913  105.2983  107.7877 C   0  0  0  0  0  0  0  0  0  0  0  0
  125.9311  102.9136  107.0403 C   0  0  0  0  0  0  0  0  0  0  0  0
  125.6962  103.4491  109.4338 C   0  0  0  0  0  0  0  0  0  0  0  0
  125.3914  106.2800  108.7221 C   0  0  0  0  0  0  0  0  0  0  0  0
  124.3879  107.1858  108.0166 C   0  0  0  0  0  0  0  0  0  0  0  0
  119.1828  103.5274  107.0860 N   0  0  0  0  0  0  0  0  0  0  0  0
  123.3280  106.4377  107.3961 N   0  0  0  0  0  0  0  0  0  0  0  0
  125.9133  103.9404  108.0750 N   0  0  0  0  0  0  0  0  0  0  0  0
  122.9217  107.9221  105.6606 O   0  0  0  0  0  0  0  0  0  0  0  0
  126.7715  105.7075  106.8432 O   0  0  0  0  0  0  0  0  0  0  0  0
  119.8732  105.2390  102.2300 Cl  0  0  0  0  0  0  0  0  0  0  0  0
  118.2559  103.3268  104.2376 Cl  0  0  0  0  0  0  0  0  0  0  0  0
  121.1458  105.1716  107.6897 H   0  0  0  0  0  0  0  0  0  0  0  0
  121.7985  106.6514  103.7104 H   0  0  0  0  0  0  0  0  0  0  0  0
  126.9492  102.5423  106.8970 H   0  0  0  0  0  0  0  0  0  0  0  0
  125.5699  103.3246  106.0937 H   0  0  0  0  0  0  0  0  0  0  0  0
  125.2884  102.0769  107.3270 H   0  0  0  0  0  0  0  0  0  0  0  0
  124.6269  103.4295  109.6599 H   0  0  0  0  0  0  0  0  0  0  0  0
  126.1966  104.1003  110.1557 H   0  0  0  0  0  0  0  0  0  0  0  0
  126.0967  102.4371  109.5384 H   0  0  0  0  0  0  0  0  0  0  0  0
  124.8810  105.7153  109.5108 H   0  0  0  0  0  0  0  0  0  0  0  0
  126.1627  106.9125  109.1766 H   0  0  0  0  0  0  0  0  0  0  0  0
  124.8650  107.7932  107.2411 H   0  0  0  0  0  0  0  0  0  0  0  0
  123.9193  107.8608  108.7397 H   0  0  0  0  0  0  0  0  0  0  0  0
  119.4809  103.5192  108.0386 H   0  0  0  0  0  0  0  0  0  0  0  0
  118.4810  102.9013  106.7513 H   0  0  0  0  0  0  0  0  0  0  0  0
  123.0191  105.5873  107.8629 H   0  0  0  0  0  0  0  0  0  0  0  0
  1  3  1  0  0  0  0
  1  4  2  0  0  0  0
  2  3  2  0  0  0  0
  2  5  1  0  0  0  0
  3  7  1  0  0  0  0
  4  6  1  0  0  0  0
  4 13  1  0  0  0  0
  5  6  2  0  0  0  0
  5 18  1  0  0  0  0
  6 19  1  0  0  0  0
  7 14  1  0  0  0  0
  7 16  2  0  0  0  0
  8 11  1  0  0  0  0
  8 15  1  0  0  0  0
  8 17  2  0  0  0  0
  9 15  1  0  0  0  0
 10 15  1  0  0  0  0
 11 12  1  0  0  0  0
 12 14  1  0  0  0  0
  1 20  1  0  0  0  0
  2 21  1  0  0  0  0
  9 22  1  0  0  0  0
  9 23  1  0  0  0  0
  9 24  1  0  0  0  0
 10 25  1  0  0  0  0
 10 26  1  0  0  0  0
 10 27  1  0  0  0  0
 11 28  1  0  0  0  0
 11 29  1  0  0  0  0
 12 30  1  0  0  0  0
 12 31  1  0  0  0  0
 13 32  1  0  0  0  0
 13 33  1  0  0  0  0
 14 34  1  0  0  0  0
M  END
> <FRED Chemgauss4 score>
-7.887912

$$$$
C08653312	P88384198
  -OEChem-05182014473D

 27 28  0     1  0  0  0  0  0999 V2000
  125.6142  106.7406  106.3450 C   0  0  0  0  0  0  0  0  0  0  0  0
  123.6569  105.7600  106.1570 C   0  0  0  0  0  0  0  0  0  0  0  0
  123.6851  106.9569  105.4803 C   0  0  0  0  0  0  0  0  0  0  0  0
  122.5201  104.8987  106.2158 C   0  0  0  0  0  0  0  0  0  0  0  0
  121.5138  106.6763  104.8083 C   0  0  0  0  0  0  0  0  0  0  0  0
  125.3862  104.5415  107.5208 C   0  0  0  0  0  0  0  0  0  0  0  0
  124.7492  105.6946  109.6665 C   0  0  0  0  0  0  0  0  0  0  0  0
  125.8729  105.0118  108.8929 C   0  0  2  0  0  0  0  0  0  0  0  0
  124.9069  107.5649  105.6002 N   0  0  0  0  0  0  0  0  0  0  0  0
  122.5748  107.4498  104.7713 N   0  0  0  0  0  0  0  0  0  0  0  0
  124.8979  105.6298  106.7083 N   0  0  0  0  0  0  0  0  0  0  0  0
  121.4624  105.4492  105.4933 N   0  0  0  0  0  0  0  0  0  0  0  0
  120.3546  107.0251  104.1632 N   0  0  0  0  0  0  0  0  0  0  0  0
  122.4629  103.8268  106.8090 O   0  0  0  0  0  0  0  0  0  0  0  0
  124.3174  106.8383  108.9373 O   0  0  0  0  0  0  0  0  0  0  0  0
  126.9276  105.9564  108.7004 O   0  0  0  0  0  0  0  0  0  0  0  0
  126.6403  106.8917  106.6515 H   0  0  0  0  0  0  0  0  0  0  0  0
  124.5615  103.8249  107.6161 H   0  0  0  0  0  0  0  0  0  0  0  0
  126.1911  104.0508  106.9602 H   0  0  0  0  0  0  0  0  0  0  0  0
  125.0940  106.0326  110.6493 H   0  0  0  0  0  0  0  0  0  0  0  0
  123.8912  105.0263  109.7888 H   0  0  0  0  0  0  0  0  0  0  0  0
  126.2843  104.1796  109.4761 H   0  0  0  0  0  0  0  0  0  0  0  0
  120.5921  104.9264  105.4594 H   0  0  0  0  0  0  0  0  0  0  0  0
  120.3352  107.8830  103.6632 H   0  0  0  0  0  0  0  0  0  0  0  0
  119.5800  106.4062  104.2213 H   0  0  0  0  0  0  0  0  0  0  0  0
  123.6059  107.2462  109.4557 H   0  0  0  0  0  0  0  0  0  0  0  0
  127.6260  105.4904  108.2172 H   0  0  0  0  0  0  0  0  0  0  0  0
  1  9  2  0  0  0  0
  1 11  1  0  0  0  0
  2  3  2  0  0  0  0
  2  4  1  0  0  0  0
  2 11  1  0  0  0  0
  3  9  1  0  0  0  0
  3 10  1  0  0  0  0
  4 12  1  0  0  0  0
  4 14  2  0  0  0  0
  5 10  2  0  0  0  0
  5 12  1  0  0  0  0
  5 13  1  0  0  0  0
  6  8  1  0  0  0  0
  6 11  1  0  0  0  0
  7  8  1  0  0  0  0
  7 15  1  0  0  0  0
  8 16  1  0  0  0  0
  1 17  1  0  0  0  0
  6 18  1  0  0  0  0
  6 19  1  0  0  0  0
  7 20  1  0  0  0  0
  7 21  1  0  0  0  0
  8 22  1  0  0  0  0
 12 23  1  0  0  0  0
 13 24  1  0  0  0  0
 13 25  1  0  0  0  0
 15 26  1  0  0  0  0
 16 27  1  0  0  0  0
M  END
> <FRED Chemgauss4 score>
-7.883329

$$$$
C32444249	P47755223
  -OEChem-05182014473D

 34 36  0     1  0  0  0  0  0999 V2000
  117.9930  104.0010  105.4742 C   0  0  0  0  0  0  0  0  0  0  0  0
  118.8132  104.5411  106.4558 C   0  0  0  0  0  0  0  0  0  0  0  0
  118.4115  104.0094  104.1470 C   0  0  0  0  0  0  0  0  0  0  0  0
  120.0456  105.1010  106.1106 C   0  0  0  0  0  0  0  0  0  0  0  0
  123.1068  104.5183  107.0551 C   0  0  0  0  0  0  0  0  0  0  0  0
  124.1011  104.0928  107.9828 C   0  0  0  0  0  0  0  0  0  0  0  0
  119.6504  104.5694  103.7836 C   0  0  0  0  0  0  0  0  0  0  0  0
  120.4674  105.1603  104.7716 C   0  0  0  0  0  0  0  0  0  0  0  0
  123.3492  105.7898  106.5838 C   0  0  0  0  0  0  0  0  0  0  0  0
  125.0658  105.0554  108.1849 C   0  0  0  0  0  0  0  0  0  0  0  0
  121.5715  104.6684  102.1748 C   0  0  0  0  0  0  0  0  0  0  0  0
  122.0993  105.8473  102.9746 C   0  0  0  0  0  0  0  0  0  0  0  0
  120.0537  104.5345  102.3227 C   0  0  2  0  0  0  0  0  0  0  0  0
  119.3036  105.6078  101.5265 C   0  0  0  0  0  0  0  0  0  0  0  0
  121.7958  105.6584  104.4217 N   0  0  1  0  0  0  0  0  0  0  0  0
  121.4490  107.5197  106.1713 O   0  0  0  0  0  0  0  0  0  0  0  0
  123.4907  107.5791  104.6962 O   0  0  0  0  0  0  0  0  0  0  0  0
  124.7707  106.4651  107.2588 S   0  0  0  0  0  0  0  0  0  0  0  0
  122.5003  106.8397  105.4473 S   0  0  0  0  0  0  0  0  0  0  0  0
  126.4375  104.9697  109.2085 Cl  0  0  0  0  0  0  0  0  0  0  0  0
  117.0364  103.5625  105.7417 H   0  0  0  0  0  0  0  0  0  0  0  0
  118.5019  104.5192  107.4963 H   0  0  0  0  0  0  0  0  0  0  0  0
  117.7676  103.5680  103.3897 H   0  0  0  0  0  0  0  0  0  0  0  0
  120.6601  105.4817  106.9204 H   0  0  0  0  0  0  0  0  0  0  0  0
  122.2573  103.9205  106.7513 H   0  0  0  0  0  0  0  0  0  0  0  0
  124.1017  103.1281  108.4743 H   0  0  0  0  0  0  0  0  0  0  0  0
  121.8461  104.7763  101.1191 H   0  0  0  0  0  0  0  0  0  0  0  0
  122.0522  103.7483  102.5344 H   0  0  0  0  0  0  0  0  0  0  0  0
  123.1866  105.8992  102.8459 H   0  0  0  0  0  0  0  0  0  0  0  0
  121.6719  106.7933  102.6251 H   0  0  0  0  0  0  0  0  0  0  0  0
  119.7786  103.5551  101.9083 H   0  0  0  0  0  0  0  0  0  0  0  0
  119.5560  106.5914  101.9142 H   0  0  0  0  0  0  0  0  0  0  0  0
  118.2325  105.4475  101.6193 H   0  0  0  0  0  0  0  0  0  0  0  0
  119.5880  105.5489  100.4790 H   0  0  0  0  0  0  0  0  0  0  0  0
  1  2  2  0  0  0  0
  1  3  1  0  0  0  0
  2  4  1  0  0  0  0
  3  7  2  0  0  0  0
  4  8  2  0  0  0  0
  5  6  1  0  0  0  0
  5  9  2  0  0  0  0
  6 10  2  0  0  0  0
  7  8  1  0  0  0  0
  7 13  1  0  0  0  0
  8 15  1  0  0  0  0
  9 18  1  0  0  0  0
  9 19  1  0  0  0  0
 10 18  1  0  0  0  0
 10 20  1  0  0  0  0
 11 12  1  0  0  0  0
 11 13  1  0  0  0  0
 12 15  1  0  0  0  0
 13 14  1  0  0  0  0
 15 19  1  0  0  0  0
 16 19  2  0  0  0  0
 17 19  2  0  0  0  0
  1 21  1  0  0  0  0
  2 22  1  0  0  0  0
  3 23  1  0  0  0  0
  4 24  1  0  0  0  0
  5 25  1  0  0  0  0
  6 26  1  0  0  0  0
 11 27  1  0  0  0  0
 11 28  1  0  0  0  0
 12 29  1  0  0  0  0
 12 30  1  0  0  0  0
 13 31  1  0  0  0  0
 14 32  1  0  0  0  0
 14 33  1  0  0  0  0
 14 34  1  0  0  0  0
M  END
> <FRED Chemgauss4 score>
-7.880157

$$$$
C03830888	P56794641
  -OEChem-05182014473D

 25 25  0     1  0  0  0  0  0999 V2000
  123.7895  106.2014  105.5539 C   0  0  1  0  0  0  0  0  0  0  0  0
  125.1320  106.8732  105.8622 C   0  0  2  0  0  0  0  0  0  0  0  0
  125.1558  107.5022  107.2601 C   0  0  2  0  0  0  0  0  0  0  0  0
  124.6616  106.5232  108.3348 C   0  0  2  0  0  0  0  0  0  0  0  0
  123.4396  105.2333  106.6908 C   0  0  1  0  0  0  0  0  0  0  0  0
  125.7031  105.4729  108.7138 C   0  0  0  0  0  0  0  0  0  0  0  0
  122.7346  107.1756  105.3577 N   0  0  0  0  0  0  0  0  0  0  0  0
  123.4224  105.9079  107.9505 O   0  0  0  0  0  0  0  0  0  0  0  0
  125.4481  107.8338  104.8613 O   0  0  0  0  0  0  0  0  0  0  0  0
  124.3181  108.6618  107.2881 O   0  0  0  0  0  0  0  0  0  0  0  0
  122.1721  104.6381  106.4197 O   0  0  0  0  0  0  0  0  0  0  0  0
  126.8533  106.1363  109.2053 O   0  0  0  0  0  0  0  0  0  0  0  0
  123.9138  105.6201  104.6490 H   0  0  0  0  0  0  0  0  0  0  0  0
  125.9578  106.1029  105.7960 H   0  0  0  0  0  0  0  0  0  0  0  0
  126.1742  107.8186  107.4920 H   0  0  0  0  0  0  0  0  0  0  0  0
  124.4639  107.1141  109.2856 H   0  0  0  0  0  0  0  0  0  0  0  0
  124.1740  104.4435  106.7400 H   0  0  0  0  0  0  0  0  0  0  0  0
  125.9733  104.8843  107.8372 H   0  0  0  0  0  0  0  0  0  0  0  0
  125.3057  104.8179  109.4890 H   0  0  0  0  0  0  0  0  0  0  0  0
  121.7932  106.8778  105.4889 H   0  0  0  0  0  0  0  0  0  0  0  0
  122.9685  108.0332  104.9081 H   0  0  0  0  0  0  0  0  0  0  0  0
  125.4941  107.3494  104.0236 H   0  0  0  0  0  0  0  0  0  0  0  0
  124.3675  109.0203  108.1887 H   0  0  0  0  0  0  0  0  0  0  0  0
  121.9869  104.0359  107.1568 H   0  0  0  0  0  0  0  0  0  0  0  0
  127.5008  105.4496  109.4395 H   0  0  0  0  0  0  0  0  0  0  0  0
  1  2  1  0  0  0  0
  1  5  1  0  0  0  0
  1  7  1  0  0  0  0
  2  3  1  0  0  0  0
  2  9  1  0  0  0  0
  3  4  1  0  0  0  0
  3 10  1  0  0  0  0
  4  6  1  0  0  0  0
  4  8  1  0  0  0  0
  5  8  1  0  0  0  0
  5 11  1  0  0  0  0
  6 12  1  0  0  0  0
  1 13  1  0  0  0  0
  2 14  1  0  0  0  0
  3 15  1  0  0  0  0
  4 16  1  0  0  0  0
  5 17  1  0  0  0  0
  6 18  1  0  0  0  0
  6 19  1  0  0  0  0
  7 20  1  0  0  0  0
  7 21  1  0  0  0  0
  9 22  1  0  0  0  0
 10 23  1  0  0  0  0
 11 24  1  0  0  0  0
 12 25  1  0  0  0  0
M  END
> <FRED Chemgauss4 score>
-7.878926

$$$$
C93429035	P146298012
  -OEChem-05182014473D

 35 36  0     0  0  0  0  0  0999 V2000
  117.7796  105.4145  103.4393 C   0  0  0  0  0  0  0  0  0  0  0  0
  118.4796  105.1110  102.2716 C   0  0  0  0  0  0  0  0  0  0  0  0
  120.1884  104.0144  103.5809 C   0  0  0  0  0  0  0  0  0  0  0  0
  118.2841  105.0180  104.6779 C   0  0  0  0  0  0  0  0  0  0  0  0
  124.1579  105.2888  107.0778 C   0  0  0  0  0  0  0  0  0  0  0  0
  119.4885  104.3179  104.7487 C   0  0  0  0  0  0  0  0  0  0  0  0
  119.6840  104.4109  102.3424 C   0  0  0  0  0  0  0  0  0  0  0  0
  124.8620  105.9713  106.0676 C   0  0  0  0  0  0  0  0  0  0  0  0
  125.1346  104.8333  107.9293 C   0  0  0  0  0  0  0  0  0  0  0  0
  121.7454  105.9388  106.7809 C   0  0  0  0  0  0  0  0  0  0  0  0
  124.3094  106.6626  104.8889 C   0  0  0  0  0  0  0  0  0  0  0  0
  125.0763  104.0519  109.1769 C   0  0  0  0  0  0  0  0  0  0  0  0
  120.3741  105.3894  107.1110 C   0  0  0  0  0  0  0  0  0  0  0  0
  126.1838  105.9536  106.2584 N   0  0  0  0  0  0  0  0  0  0  0  0
  126.3182  105.2545  107.3983 N   0  0  0  0  0  0  0  0  0  0  0  0
  117.5480  105.3456  105.8395 N   0  0  0  0  0  0  0  0  0  0  0  0
  122.7622  105.0964  107.2146 N   0  0  0  0  0  0  0  0  0  0  0  0
  121.8626  107.0198  106.2093 O   0  0  0  0  0  0  0  0  0  0  0  0
  120.1822  103.7835  106.3099 S   0  0  0  0  0  0  0  0  0  0  0  0
  120.5472  104.0365  100.9013 Cl  0  0  0  0  0  0  0  0  0  0  0  0
  116.8425  105.9614  103.3707 H   0  0  0  0  0  0  0  0  0  0  0  0
  118.0751  105.4261  101.3132 H   0  0  0  0  0  0  0  0  0  0  0  0
  121.1286  103.4681  103.6277 H   0  0  0  0  0  0  0  0  0  0  0  0
  124.0931  107.7210  105.1117 H   0  0  0  0  0  0  0  0  0  0  0  0
  125.0022  106.6377  104.0295 H   0  0  0  0  0  0  0  0  0  0  0  0
  123.3720  106.1978  104.5358 H   0  0  0  0  0  0  0  0  0  0  0  0
  125.1272  102.9687  108.9733 H   0  0  0  0  0  0  0  0  0  0  0  0
  125.9050  104.3007  109.8634 H   0  0  0  0  0  0  0  0  0  0  0  0
  124.1473  104.2407  109.7437 H   0  0  0  0  0  0  0  0  0  0  0  0
  120.2912  105.2745  108.1961 H   0  0  0  0  0  0  0  0  0  0  0  0
  119.5770  106.0615  106.7810 H   0  0  0  0  0  0  0  0  0  0  0  0
  127.2521  105.1023  107.7586 H   0  0  0  0  0  0  0  0  0  0  0  0
  116.7160  105.8897  105.7486 H   0  0  0  0  0  0  0  0  0  0  0  0
  117.9233  105.1081  106.7337 H   0  0  0  0  0  0  0  0  0  0  0  0
  122.4695  104.2428  107.6849 H   0  0  0  0  0  0  0  0  0  0  0  0
  1  2  2  0  0  0  0
  1  4  1  0  0  0  0
  2  7  1  0  0  0  0
  3  6  1  0  0  0  0
  3  7  2  0  0  0  0
  4  6  2  0  0  0  0
  4 16  1  0  0  0  0
  5  8  1  0  0  0  0
  5  9  2  0  0  0  0
  5 17  1  0  0  0  0
  6 19  1  0  0  0  0
  7 20  1  0  0  0  0
  8 11  1  0  0  0  0
  8 14  2  0  0  0  0
  9 12  1  0  0  0  0
  9 15  1  0  0  0  0
 10 13  1  0  0  0  0
 10 17  1  0  0  0  0
 10 18  2  0  0  0  0
 13 19  1  0  0  0  0
 14 15  1  0  0  0  0
  1 21  1  0  0  0  0
  2 22  1  0  0  0  0
  3 23  1  0  0  0  0
 11 24  1  0  0  0  0
 11 25  1  0  0  0  0
 11 26  1  0  0  0  0
 12 27  1  0  0  0  0
 12 28  1  0  0  0  0
 12 29  1  0  0  0  0
 13 30  1  0  0  0  0
 13 31  1  0  0  0  0
 15 32  1  0  0  0  0
 16 33  1  0  0  0  0
 16 34  1  0  0  0  0
 17 35  1  0  0  0  0
M  END
> <FRED Chemgauss4 score>
-7.876396

$$$$
C41118879	P62412466
  -OEChem-05182014473D

 31 32  0     0  0  0  0  0  0999 V2000
  124.6882  106.2037  106.7679 C   0  0  0  0  0  0  0  0  0  0  0  0
  116.9211  105.2921  102.5718 C   0  0  0  0  0  0  0  0  0  0  0  0
  117.8433  105.4001  103.5859 C   0  0  0  0  0  0  0  0  0  0  0  0
  118.7515  104.5760  101.7548 C   0  0  0  0  0  0  0  0  0  0  0  0
  125.7490  105.6060  107.5078 C   0  0  0  0  0  0  0  0  0  0  0  0
  123.6258  105.3432  106.5993 C   0  0  0  0  0  0  0  0  0  0  0  0
  125.4568  104.3112  107.8769 C   0  0  0  0  0  0  0  0  0  0  0  0
  122.3394  105.5779  105.8942 C   0  0  0  0  0  0  0  0  0  0  0  0
  126.2821  103.3519  108.6463 C   0  0  0  0  0  0  0  0  0  0  0  0
  120.2997  104.8455  103.7275 C   0  0  0  0  0  0  0  0  0  0  0  0
  120.1694  104.5796  105.2233 C   0  0  0  0  0  0  0  0  0  0  0  0
  117.4926  104.7782  101.4348 N   0  0  0  0  0  0  0  0  0  0  0  0
  119.0109  104.9372  103.0477 N   0  0  0  0  0  0  0  0  0  0  0  0
  126.9056  106.2419  107.8094 N   0  0  0  0  0  0  0  0  0  0  0  0
  121.4444  104.5148  105.8849 N   0  0  0  0  0  0  0  0  0  0  0  0
  122.1420  106.6617  105.3510 O   0  0  0  0  0  0  0  0  0  0  0  0
  123.9093  103.8214  107.3316 S   0  0  0  0  0  0  0  0  0  0  0  0
  124.7022  107.2145  106.3777 H   0  0  0  0  0  0  0  0  0  0  0  0
  115.8746  105.5583  102.6027 H   0  0  0  0  0  0  0  0  0  0  0  0
  117.7719  105.7529  104.6053 H   0  0  0  0  0  0  0  0  0  0  0  0
  119.5129  104.1748  101.1000 H   0  0  0  0  0  0  0  0  0  0  0  0
  126.0841  103.4412  109.7252 H   0  0  0  0  0  0  0  0  0  0  0  0
  126.0815  102.3102  108.3496 H   0  0  0  0  0  0  0  0  0  0  0  0
  127.3592  103.5172  108.4841 H   0  0  0  0  0  0  0  0  0  0  0  0
  120.8198  105.7958  103.5571 H   0  0  0  0  0  0  0  0  0  0  0  0
  120.8875  104.0618  103.2347 H   0  0  0  0  0  0  0  0  0  0  0  0
  119.6063  105.3882  105.6993 H   0  0  0  0  0  0  0  0  0  0  0  0
  119.6491  103.6366  105.4197 H   0  0  0  0  0  0  0  0  0  0  0  0
  127.1065  107.1939  107.4755 H   0  0  0  0  0  0  0  0  0  0  0  0
  127.6733  105.7690  108.3047 H   0  0  0  0  0  0  0  0  0  0  0  0
  121.7098  103.6264  106.3054 H   0  0  0  0  0  0  0  0  0  0  0  0
  1  5  1  0  0  0  0
  1  6  2  0  0  0  0
  2  3  2  0  0  0  0
  2 12  1  0  0  0  0
  3 13  1  0  0  0  0
  4 12  2  0  0  0  0
  4 13  1  0  0  0  0
  5  7  2  0  0  0  0
  5 14  1  0  0  0  0
  6  8  1  0  0  0  0
  6 17  1  0  0  0  0
  7  9  1  0  0  0  0
  7 17  1  0  0  0  0
  8 15  1  0  0  0  0
  8 16  2  0  0  0  0
 10 11  1  0  0  0  0
 10 13  1  0  0  0  0
 11 15  1  0  0  0  0
  1 18  1  0  0  0  0
  2 19  1  0  0  0  0
  3 20  1  0  0  0  0
  4 21  1  0  0  0  0
  9 22  1  0  0  0  0
  9 23  1  0  0  0  0
  9 24  1  0  0  0  0
 10 25  1  0  0  0  0
 10 26  1  0  0  0  0
 11 27  1  0  0  0  0
 11 28  1  0  0  0  0
 14 29  1  0  0  0  0
 14 30  1  0  0  0  0
 15 31  1  0  0  0  0
M  END
> <FRED Chemgauss4 score>
-7.875400

$$$$
C63179057	P97024353
  -OEChem-05182014473D

 47 48  0     1  0  0  0  0  0999 V2000
  117.4171  106.6457  106.3021 C   0  0  0  0  0  0  0  0  0  0  0  0
  122.1224  105.5006  106.8180 C   0  0  0  0  0  0  0  0  0  0  0  0
  113.2511  106.8153  105.1746 C   0  0  0  0  0  0  0  0  0  0  0  0
  113.6122  106.1284  106.4882 C   0  0  0  0  0  0  0  0  0  0  0  0
  114.2782  106.5192  104.0859 C   0  0  0  0  0  0  0  0  0  0  0  0
  119.6779  104.3598  104.2641 C   0  0  0  0  0  0  0  0  0  0  0  0
  115.0250  106.4867  106.9413 C   0  0  0  0  0  0  0  0  0  0  0  0
  115.6927  106.8781  104.5333 C   0  0  0  0  0  0  0  0  0  0  0  0
  120.7644  104.0823  105.3021 C   0  0  0  0  0  0  0  0  0  0  0  0
  118.3619  104.7540  104.9244 C   0  0  0  0  0  0  0  0  0  0  0  0
  119.8630  106.2917  106.1992 C   0  0  0  0  0  0  0  0  0  0  0  0
  116.0594  106.1940  105.8522 C   0  0  0  0  0  0  0  0  0  0  0  0
  120.7296  105.0652  106.4806 C   0  0  2  0  0  0  0  0  0  0  0  0
  124.8498  104.3743  108.3310 C   0  0  0  0  0  0  0  0  0  0  0  0
  123.8357  105.4684  108.6197 C   0  0  0  0  0  0  0  0  0  0  0  0
  118.5013  105.9105  105.8179 N   0  0  0  0  0  0  0  0  0  0  0  0
  126.1465  104.6795  108.8734 N   0  0  0  0  0  0  0  0  0  0  0  0
  122.5291  105.1487  108.0908 N   0  0  0  0  0  0  0  0  0  0  0  0
  117.5174  107.6189  107.0528 O   0  0  0  0  0  0  0  0  0  0  0  0
  122.7831  106.1104  105.9853 O   0  0  0  0  0  0  0  0  0  0  0  0
  112.2605  106.4776  104.8453 H   0  0  0  0  0  0  0  0  0  0  0  0
  113.1830  107.8978  105.3319 H   0  0  0  0  0  0  0  0  0  0  0  0
  112.8920  106.4206  107.2608 H   0  0  0  0  0  0  0  0  0  0  0  0
  113.5281  105.0430  106.3703 H   0  0  0  0  0  0  0  0  0  0  0  0
  114.2371  105.4552  103.8258 H   0  0  0  0  0  0  0  0  0  0  0  0
  114.0194  107.0744  103.1766 H   0  0  0  0  0  0  0  0  0  0  0  0
  120.0075  105.1661  103.5954 H   0  0  0  0  0  0  0  0  0  0  0  0
  119.5276  103.4709  103.6393 H   0  0  0  0  0  0  0  0  0  0  0  0
  115.0571  107.5349  107.2326 H   0  0  0  0  0  0  0  0  0  0  0  0
  115.2718  105.8895  107.8192 H   0  0  0  0  0  0  0  0  0  0  0  0
  116.3977  106.5527  103.7664 H   0  0  0  0  0  0  0  0  0  0  0  0
  115.7799  107.9609  104.6249 H   0  0  0  0  0  0  0  0  0  0  0  0
  120.6340  103.0601  105.6894 H   0  0  0  0  0  0  0  0  0  0  0  0
  121.7490  104.1067  104.8120 H   0  0  0  0  0  0  0  0  0  0  0  0
  117.6054  104.9534  104.1487 H   0  0  0  0  0  0  0  0  0  0  0  0
  117.9705  103.9203  105.5324 H   0  0  0  0  0  0  0  0  0  0  0  0
  119.7775  106.9049  107.1054 H   0  0  0  0  0  0  0  0  0  0  0  0
  120.3369  106.9146  105.4364 H   0  0  0  0  0  0  0  0  0  0  0  0
  116.1270  105.1281  105.6960 H   0  0  0  0  0  0  0  0  0  0  0  0
  120.3522  104.5512  107.3642 H   0  0  0  0  0  0  0  0  0  0  0  0
  124.9739  104.2187  107.2546 H   0  0  0  0  0  0  0  0  0  0  0  0
  124.5258  103.4323  108.7842 H   0  0  0  0  0  0  0  0  0  0  0  0
  123.7209  105.6032  109.6996 H   0  0  0  0  0  0  0  0  0  0  0  0
  124.1434  106.4232  108.1814 H   0  0  0  0  0  0  0  0  0  0  0  0
  126.4885  105.6260  108.8254 H   0  0  0  0  0  0  0  0  0  0  0  0
  126.7723  103.9243  109.1042 H   0  0  0  0  0  0  0  0  0  0  0  0
  121.8787  104.6411  108.6831 H   0  0  0  0  0  0  0  0  0  0  0  0
  1 12  1  0  0  0  0
  1 16  1  0  0  0  0
  1 19  2  0  0  0  0
  2 13  1  0  0  0  0
  2 18  1  0  0  0  0
  2 20  2  0  0  0  0
  3  4  1  0  0  0  0
  3  5  1  0  0  0  0
  4  7  1  0  0  0  0
  5  8  1  0  0  0  0
  6  9  1  0  0  0  0
  6 10  1  0  0  0  0
  7 12  1  0  0  0  0
  8 12  1  0  0  0  0
  9 13  1  0  0  0  0
 10 16  1  0  0  0  0
 11 13  1  0  0  0  0
 11 16  1  0  0  0  0
 14 15  1  0  0  0  0
 14 17  1  0  0  0  0
 15 18  1  0  0  0  0
  3 21  1  0  0  0  0
  3 22  1  0  0  0  0
  4 23  1  0  0  0  0
  4 24  1  0  0  0  0
  5 25  1  0  0  0  0
  5 26  1  0  0  0  0
  6 27  1  0  0  0  0
  6 28  1  0  0  0  0
  7 29  1  0  0  0  0
  7 30  1  0  0  0  0
  8 31  1  0  0  0  0
  8 32  1  0  0  0  0
  9 33  1  0  0  0  0
  9 34  1  0  0  0  0
 10 35  1  0  0  0  0
 10 36  1  0  0  0  0
 11 37  1  0  0  0  0
 11 38  1  0  0  0  0
 12 39  1  0  0  0  0
 13 40  1  0  0  0  0
 14 41  1  0  0  0  0
 14 42  1  0  0  0  0
 15 43  1  0  0  0  0
 15 44  1  0  0  0  0
 17 45  1  0  0  0  0
 17 46  1  0  0  0  0
 18 47  1  0  0  0  0
M  END
> <FRED Chemgauss4 score>
-7.873666

$$$$
C93630036	P146642512
  -OEChem-05182014473D

 39 40  0     1  0  0  0  0  0999 V2000
  126.6691  106.2582  108.5343 C   0  0  0  0  0  0  0  0  0  0  0  0
  125.8321  104.5703  107.6358 C   0  0  0  0  0  0  0  0  0  0  0  0
  121.3448  107.2357  105.7126 C   0  0  0  0  0  0  0  0  0  0  0  0
  119.2387  104.8663  105.7669 C   0  0  0  0  0  0  0  0  0  0  0  0
  120.6351  104.2629  105.6143 C   0  0  0  0  0  0  0  0  0  0  0  0
  119.3843  106.0914  106.6795 C   0  0  0  0  0  0  0  0  0  0  0  0
  121.4596  104.8936  106.7374 C   0  0  2  0  0  0  0  0  0  0  0  0
  120.8895  106.3115  106.8375 C   0  0  1  0  0  0  0  0  0  0  0  0
  127.3779  107.5418  108.7304 C   0  0  0  0  0  0  0  0  0  0  0  0
  120.5106  108.1838  108.4467 C   0  0  0  0  0  0  0  0  0  0  0  0
  122.9600  104.8045  106.4930 C   0  0  0  0  0  0  0  0  0  0  0  0
  123.4863  103.4116  106.8184 C   0  0  0  0  0  0  0  0  0  0  0  0
  126.4974  105.6571  107.3203 N   0  0  0  0  0  0  0  0  0  0  0  0
  125.6225  104.5358  108.9792 N   0  0  0  0  0  0  0  0  0  0  0  0
  126.1519  105.6117  109.5812 N   0  0  0  0  0  0  0  0  0  0  0  0
  121.1743  106.8799  108.1819 N   0  3  0  0  0  0  0  0  0  0  0  0
  122.5760  107.5136  105.7081 O   0  5  0  0  0  0  0  0  0  0  0  0
  120.4275  107.6057  104.9271 O   0  0  0  0  0  0  0  0  0  0  0  0
  125.2742  103.3220  106.5175 S   0  0  0  0  0  0  0  0  0  0  0  0
  118.8313  105.1451  104.7891 H   0  0  0  0  0  0  0  0  0  0  0  0
  118.5477  104.1432  106.2141 H   0  0  0  0  0  0  0  0  0  0  0  0
  120.6136  103.1706  105.6860 H   0  0  0  0  0  0  0  0  0  0  0  0
  121.0447  104.5180  104.6295 H   0  0  0  0  0  0  0  0  0  0  0  0
  118.8641  106.9576  106.2546 H   0  0  0  0  0  0  0  0  0  0  0  0
  118.9077  105.8717  107.6436 H   0  0  0  0  0  0  0  0  0  0  0  0
  121.2388  104.3452  107.6650 H   0  0  0  0  0  0  0  0  0  0  0  0
  126.6817  108.3917  108.6563 H   0  0  0  0  0  0  0  0  0  0  0  0
  127.8698  107.5929  109.7155 H   0  0  0  0  0  0  0  0  0  0  0  0
  128.1732  107.6901  107.9817 H   0  0  0  0  0  0  0  0  0  0  0  0
  120.8299  108.8842  107.6727 H   0  0  0  0  0  0  0  0  0  0  0  0
  119.4315  108.0231  108.4099 H   0  0  0  0  0  0  0  0  0  0  0  0
  120.8235  108.5231  109.4361 H   0  0  0  0  0  0  0  0  0  0  0  0
  123.4615  105.5576  107.1123 H   0  0  0  0  0  0  0  0  0  0  0  0
  123.1600  105.0540  105.4443 H   0  0  0  0  0  0  0  0  0  0  0  0
  123.2986  103.1626  107.8678 H   0  0  0  0  0  0  0  0  0  0  0  0
  122.9924  102.6569  106.1981 H   0  0  0  0  0  0  0  0  0  0  0  0
  126.0986  105.7668  110.5842 H   0  0  0  0  0  0  0  0  0  0  0  0
  120.8866  106.2029  108.9017 H   0  0  0  0  0  0  0  0  0  0  0  0
  122.1916  106.9906  108.2923 H   0  0  0  0  0  0  0  0  0  0  0  0
  1  9  1  0  0  0  0
  1 13  2  0  0  0  0
  1 15  1  0  0  0  0
  2 13  1  0  0  0  0
  2 14  2  0  0  0  0
  2 19  1  0  0  0  0
  3  8  1  0  0  0  0
  3 17  1  0  0  0  0
  3 18  2  0  0  0  0
  4  5  1  0  0  0  0
  4  6  1  0  0  0  0
  5  7  1  0  0  0  0
  6  8  1  0  0  0  0
  7  8  1  0  0  0  0
  7 11  1  0  0  0  0
  8 16  1  0  0  0  0
 10 16  1  0  0  0  0
 11 12  1  0  0  0  0
 12 19  1  0  0  0  0
 14 15  1  0  0  0  0
  4 20  1  0  0  0  0
  4 21  1  0  0  0  0
  5 22  1  0  0  0  0
  5 23  1  0  0  0  0
  6 24  1  0  0  0  0
  6 25  1  0  0  0  0
  7 26  1  0  0  0  0
  9 27  1  0  0  0  0
  9 28  1  0  0  0  0
  9 29  1  0  0  0  0
 10 30  1  0  0  0  0
 10 31  1  0  0  0  0
 10 32  1  0  0  0  0
 11 33  1  0  0  0  0
 11 34  1  0  0  0  0
 12 35  1  0  0  0  0
 12 36  1  0  0  0  0
 15 37  1  0  0  0  0
 16 38  1  0  0  0  0
 16 39  1  0  0  0  0
M  CHG  2  16   1  17  -1
M  END
> <FRED Chemgauss4 score>
-7.868711

$$$$
C86276238	P135094255
  -OEChem-05182014473D

 29 29  0     0  0  0  0  0  0999 V2000
  123.1794  106.8880  105.6109 C   0  0  0  0  0  0  0  0  0  0  0  0
  124.6153  107.2932  105.7446 C   0  0  0  0  0  0  0  0  0  0  0  0
  119.9433  103.6358  106.2029 C   0  0  0  0  0  0  0  0  0  0  0  0
  116.9224  104.2489  103.9421 C   0  0  0  0  0  0  0  0  0  0  0  0
  116.6879  104.2498  105.4249 C   0  0  0  0  0  0  0  0  0  0  0  0
  117.8588  103.5000  104.8506 C   0  0  0  0  0  0  0  0  0  0  0  0
  121.3357  104.2392  106.1588 C   0  0  0  0  0  0  0  0  0  0  0  0
  121.3872  105.6317  106.7722 C   0  0  0  0  0  0  0  0  0  0  0  0
  126.1132  108.5686  107.0656 N   0  0  0  0  0  0  0  0  0  0  0  0
  122.7290  106.1540  106.6856 N   0  0  0  0  0  0  0  0  0  0  0  0
  124.8367  108.1019  106.8326 N   0  0  0  0  0  0  0  0  0  0  0  0
  119.2148  103.9504  105.0652 N   0  0  0  0  0  0  0  0  0  0  0  0
  122.5840  107.2181  104.5978 O   0  0  0  0  0  0  0  0  0  0  0  0
  125.4019  106.8946  104.9002 O   0  0  0  0  0  0  0  0  0  0  0  0
  119.5351  102.9550  107.1399 O   0  0  0  0  0  0  0  0  0  0  0  0
  116.2377  103.6808  103.3243 H   0  0  0  0  0  0  0  0  0  0  0  0
  117.2843  105.1629  103.4872 H   0  0  0  0  0  0  0  0  0  0  0  0
  116.8925  105.1643  105.9677 H   0  0  0  0  0  0  0  0  0  0  0  0
  115.8454  103.6823  105.8007 H   0  0  0  0  0  0  0  0  0  0  0  0
  117.7847  102.4180  104.8422 H   0  0  0  0  0  0  0  0  0  0  0  0
  122.0201  103.5679  106.6924 H   0  0  0  0  0  0  0  0  0  0  0  0
  121.6629  104.2772  105.1122 H   0  0  0  0  0  0  0  0  0  0  0  0
  121.0778  105.6012  107.8226 H   0  0  0  0  0  0  0  0  0  0  0  0
  120.7013  106.3077  106.2504 H   0  0  0  0  0  0  0  0  0  0  0  0
  126.0186  109.4972  107.4750 H   0  0  0  0  0  0  0  0  0  0  0  0
  126.5487  108.7063  106.1546 H   0  0  0  0  0  0  0  0  0  0  0  0
  123.3658  105.9572  107.4531 H   0  0  0  0  0  0  0  0  0  0  0  0
  124.0740  108.3515  107.4542 H   0  0  0  0  0  0  0  0  0  0  0  0
  119.6544  104.5232  104.3507 H   0  0  0  0  0  0  0  0  0  0  0  0
  1  2  1  0  0  0  0
  1 10  1  0  0  0  0
  1 13  2  0  0  0  0
  2 11  1  0  0  0  0
  2 14  2  0  0  0  0
  3  7  1  0  0  0  0
  3 12  1  0  0  0  0
  3 15  2  0  0  0  0
  4  5  1  0  0  0  0
  4  6  1  0  0  0  0
  5  6  1  0  0  0  0
  6 12  1  0  0  0  0
  7  8  1  0  0  0  0
  8 10  1  0  0  0  0
  9 11  1  0  0  0  0
  4 16  1  0  0  0  0
  4 17  1  0  0  0  0
  5 18  1  0  0  0  0
  5 19  1  0  0  0  0
  6 20  1  0  0  0  0
  7 21  1  0  0  0  0
  7 22  1  0  0  0  0
  8 23  1  0  0  0  0
  8 24  1  0  0  0  0
  9 25  1  0  0  0  0
  9 26  1  0  0  0  0
 10 27  1  0  0  0  0
 11 28  1  0  0  0  0
 12 29  1  0  0  0  0
M  END
> <FRED Chemgauss4 score>
-7.867970

$$$$
C42440727	P64190320
  -OEChem-05182014473D

 32 32  0     0  0  0  0  0  0999 V2000
  121.1771  106.3941  106.6838 C   0  0  0  0  0  0  0  0  0  0  0  0
  121.1785  106.4368  105.2078 C   0  0  0  0  0  0  0  0  0  0  0  0
  126.4568  105.7048  108.5656 C   0  0  0  0  0  0  0  0  0  0  0  0
  124.2420  104.5459  106.8846 C   0  0  0  0  0  0  0  0  0  0  0  0
  123.5520  105.2243  109.2036 C   0  0  0  0  0  0  0  0  0  0  0  0
  122.7710  104.5259  106.4809 C   0  0  0  0  0  0  0  0  0  0  0  0
  122.0901  105.2108  108.7554 C   0  0  0  0  0  0  0  0  0  0  0  0
  124.4054  104.2496  108.3813 C   0  0  0  0  0  0  0  0  0  0  0  0
  125.8730  104.3293  108.7946 C   0  0  0  0  0  0  0  0  0  0  0  0
  121.9768  105.4390  107.3072 N   0  0  0  0  0  0  0  0  0  0  0  0
  126.2861  106.5269  109.6587 N   0  0  0  0  0  0  0  0  0  0  0  0
  120.0899  105.5672  103.2907 N   0  0  0  0  0  0  0  0  0  0  0  0
  120.2073  105.6282  104.6650 N   0  0  0  0  0  0  0  0  0  0  0  0
  120.4696  107.2111  107.2759 O   0  0  0  0  0  0  0  0  0  0  0  0
  121.9845  107.1372  104.6110 O   0  0  0  0  0  0  0  0  0  0  0  0
  127.0170  106.0537  107.5305 O   0  0  0  0  0  0  0  0  0  0  0  0
  124.7945  103.8083  106.2909 H   0  0  0  0  0  0  0  0  0  0  0  0
  124.6672  105.5311  106.6534 H   0  0  0  0  0  0  0  0  0  0  0  0
  123.9489  106.2422  109.0950 H   0  0  0  0  0  0  0  0  0  0  0  0
  123.6085  104.9693  110.2683 H   0  0  0  0  0  0  0  0  0  0  0  0
  122.6731  104.7895  105.4226 H   0  0  0  0  0  0  0  0  0  0  0  0
  122.3510  103.5210  106.6084 H   0  0  0  0  0  0  0  0  0  0  0  0
  121.6368  104.2344  108.9636 H   0  0  0  0  0  0  0  0  0  0  0  0
  121.5285  105.9580  109.3217 H   0  0  0  0  0  0  0  0  0  0  0  0
  124.0528  103.2278  108.5755 H   0  0  0  0  0  0  0  0  0  0  0  0
  126.4484  103.6001  108.2186 H   0  0  0  0  0  0  0  0  0  0  0  0
  125.9615  104.0796  109.8550 H   0  0  0  0  0  0  0  0  0  0  0  0
  125.8121  106.1714  110.4829 H   0  0  0  0  0  0  0  0  0  0  0  0
  126.6276  107.4823  109.6514 H   0  0  0  0  0  0  0  0  0  0  0  0
  119.7965  104.6185  103.0609 H   0  0  0  0  0  0  0  0  0  0  0  0
  121.0293  105.6716  102.9090 H   0  0  0  0  0  0  0  0  0  0  0  0
  119.5687  105.0693  105.2226 H   0  0  0  0  0  0  0  0  0  0  0  0
  1  2  1  0  0  0  0
  1 10  1  0  0  0  0
  1 14  2  0  0  0  0
  2 13  1  0  0  0  0
  2 15  2  0  0  0  0
  3  9  1  0  0  0  0
  3 11  1  0  0  0  0
  3 16  2  0  0  0  0
  4  6  1  0  0  0  0
  4  8  1  0  0  0  0
  5  7  1  0  0  0  0
  5  8  1  0  0  0  0
  6 10  1  0  0  0  0
  7 10  1  0  0  0  0
  8  9  1  0  0  0  0
 12 13  1  0  0  0  0
  4 17  1  0  0  0  0
  4 18  1  0  0  0  0
  5 19  1  0  0  0  0
  5 20  1  0  0  0  0
  6 21  1  0  0  0  0
  6 22  1  0  0  0  0
  7 23  1  0  0  0  0
  7 24  1  0  0  0  0
  8 25  1  0  0  0  0
  9 26  1  0  0  0  0
  9 27  1  0  0  0  0
 11 28  1  0  0  0  0
 11 29  1  0  0  0  0
 12 30  1  0  0  0  0
 12 31  1  0  0  0  0
 13 32  1  0  0  0  0
M  END
> <FRED Chemgauss4 score>
-7.865966

$$$$
C80531866	P125774789
  -OEChem-05182014473D

 40 41  0     1  0  0  0  0  0999 V2000
  120.8166  102.9718  103.8703 C   0  0  0  0  0  0  0  0  0  0  0  0
  120.4587  103.5696  102.6619 C   0  0  0  0  0  0  0  0  0  0  0  0
  121.2440  103.7601  104.9388 C   0  0  0  0  0  0  0  0  0  0  0  0
  120.9557  105.7440  103.5905 C   0  0  0  0  0  0  0  0  0  0  0  0
  126.9640  106.0965  108.5258 C   0  0  0  0  0  0  0  0  0  0  0  0
  120.5283  104.9557  102.5220 C   0  0  0  0  0  0  0  0  0  0  0  0
  121.3135  105.1462  104.7989 C   0  0  0  0  0  0  0  0  0  0  0  0
  125.3499  105.3952  107.4034 C   0  0  0  0  0  0  0  0  0  0  0  0
  117.6928  105.8176  101.8836 C   0  0  0  0  0  0  0  0  0  0  0  0
  124.0529  106.8244  104.6386 C   0  0  0  0  0  0  0  0  0  0  0  0
  124.3741  105.0509  106.3155 C   0  0  0  0  0  0  0  0  0  0  0  0
  118.6765  105.3060  100.8383 C   0  0  0  0  0  0  0  0  0  0  0  0
  120.1393  105.6043  101.2089 C   0  0  2  0  0  0  0  0  0  0  0  0
  126.4693  106.0644  107.2534 N   0  0  0  0  0  0  0  0  0  0  0  0
  125.1949  105.0493  108.7096 N   0  0  0  0  0  0  0  0  0  0  0  0
  126.2211  105.4893  109.4536 N   0  0  0  0  0  0  0  0  0  0  0  0
  121.0411  105.2012  100.1530 N   0  0  0  0  0  0  0  0  0  0  0  0
  123.5621  106.2247  105.9054 N   0  0  2  0  0  0  0  0  0  0  0  0
  121.2818  107.4663  105.9756 O   0  0  0  0  0  0  0  0  0  0  0  0
  121.5811  105.4070  107.3733 O   0  0  0  0  0  0  0  0  0  0  0  0
  121.8498  106.1320  106.1361 S   0  0  0  0  0  0  0  0  0  0  0  0
  120.7617  101.8926  103.9796 H   0  0  0  0  0  0  0  0  0  0  0  0
  120.1259  102.9476  101.8352 H   0  0  0  0  0  0  0  0  0  0  0  0
  121.5208  103.2835  105.8754 H   0  0  0  0  0  0  0  0  0  0  0  0
  121.0092  106.8244  103.4801 H   0  0  0  0  0  0  0  0  0  0  0  0
  127.8995  106.5834  108.7682 H   0  0  0  0  0  0  0  0  0  0  0  0
  117.8150  106.8936  102.0436 H   0  0  0  0  0  0  0  0  0  0  0  0
  116.6650  105.6396  101.5517 H   0  0  0  0  0  0  0  0  0  0  0  0
  117.8284  105.3083  102.8427 H   0  0  0  0  0  0  0  0  0  0  0  0
  123.4350  107.6838  104.3656 H   0  0  0  0  0  0  0  0  0  0  0  0
  124.0096  106.0890  103.8306 H   0  0  0  0  0  0  0  0  0  0  0  0
  125.0878  107.1575  104.7541 H   0  0  0  0  0  0  0  0  0  0  0  0
  124.8994  104.6779  105.4295 H   0  0  0  0  0  0  0  0  0  0  0  0
  123.6850  104.2642  106.6403 H   0  0  0  0  0  0  0  0  0  0  0  0
  118.5206  104.2276  100.7090 H   0  0  0  0  0  0  0  0  0  0  0  0
  118.4352  105.7786   99.8775 H   0  0  0  0  0  0  0  0  0  0  0  0
  120.2609  106.6911  101.2976 H   0  0  0  0  0  0  0  0  0  0  0  0
  126.2884  105.3305  110.4551 H   0  0  0  0  0  0  0  0  0  0  0  0
  122.0074  105.0451  100.3758 H   0  0  0  0  0  0  0  0  0  0  0  0
  120.7368  105.2831   99.1999 H   0  0  0  0  0  0  0  0  0  0  0  0
  1  2  2  0  0  0  0
  1  3  1  0  0  0  0
  2  6  1  0  0  0  0
  3  7  2  0  0  0  0
  4  6  2  0  0  0  0
  4  7  1  0  0  0  0
  5 14  2  0  0  0  0
  5 16  1  0  0  0  0
  6 13  1  0  0  0  0
  7 21  1  0  0  0  0
  8 11  1  0  0  0  0
  8 14  1  0  0  0  0
  8 15  2  0  0  0  0
  9 12  1  0  0  0  0
 10 18  1  0  0  0  0
 11 18  1  0  0  0  0
 12 13  1  0  0  0  0
 13 17  1  0  0  0  0
 15 16  1  0  0  0  0
 18 21  1  0  0  0  0
 19 21  2  0  0  0  0
 20 21  2  0  0  0  0
  1 22  1  0  0  0  0
  2 23  1  0  0  0  0
  3 24  1  0  0  0  0
  4 25  1  0  0  0  0
  5 26  1  0  0  0  0
  9 27  1  0  0  0  0
  9 28  1  0  0  0  0
  9 29  1  0  0  0  0
 10 30  1  0  0  0  0
 10 31  1  0  0  0  0
 10 32  1  0  0  0  0
 11 33  1  0  0  0  0
 11 34  1  0  0  0  0
 12 35  1  0  0  0  0
 12 36  1  0  0  0  0
 13 37  1  0  0  0  0
 16 38  1  0  0  0  0
 17 39  1  0  0  0  0
 17 40  1  0  0  0  0
M  END
> <FRED Chemgauss4 score>
-7.863595

$$$$
C22936959	P104234106
  -OEChem-05182014473D

 46 47  0     1  0  0  0  0  0999 V2000
  123.0146  106.7917  108.9253 C   0  0  0  0  0  0  0  0  0  0  0  0
  118.0386  104.7866  105.4374 C   0  0  0  0  0  0  0  0  0  0  0  0
  124.4843  107.5779  106.9790 C   0  0  0  0  0  0  0  0  0  0  0  0
  123.0960  106.5488  105.2758 C   0  0  0  0  0  0  0  0  0  0  0  0
  121.5721  104.8732  108.3252 C   0  0  0  0  0  0  0  0  0  0  0  0
  123.6407  106.4708  107.5835 C   0  0  2  0  0  0  0  0  0  0  0  0
  124.4667  107.2031  105.4989 C   0  0  1  0  0  0  0  0  0  0  0  0
  121.6339  105.2677  106.8318 C   0  0  1  0  0  0  0  0  0  0  0  0
  119.1463  103.4500  102.5900 C   0  0  0  0  0  0  0  0  0  0  0  0
  115.8823  104.0829  103.0967 C   0  0  0  0  0  0  0  0  0  0  0  0
  119.4214  104.4251  105.9641 C   0  0  0  0  0  0  0  0  0  0  0  0
  120.2435  105.6583  106.3246 C   0  0  0  0  0  0  0  0  0  0  0  0
  119.0329  104.8464  103.0998 C   0  0  0  0  0  0  0  0  0  0  0  0
  116.6416  105.3101  103.4712 C   0  0  0  0  0  0  0  0  0  0  0  0
  121.9345  105.9670  109.2110 N   0  0  0  0  0  0  0  0  0  0  0  0
  122.5470  106.3891  106.6206 N   0  0  2  0  0  0  0  0  0  0  0  0
  124.7180  108.3341  104.6230 N   0  0  0  0  0  0  0  0  0  0  0  0
  117.9339  104.9714  104.0546 N   0  0  0  0  0  0  0  0  0  0  0  0
  123.4406  107.6570  109.6841 O   0  0  0  0  0  0  0  0  0  0  0  0
  117.0850  104.9015  106.2117 O   0  0  0  0  0  0  0  0  0  0  0  0
  124.0568  108.5638  107.1391 H   0  0  0  0  0  0  0  0  0  0  0  0
  125.5028  107.5692  107.3559 H   0  0  0  0  0  0  0  0  0  0  0  0
  122.4540  107.1892  104.6351 H   0  0  0  0  0  0  0  0  0  0  0  0
  123.2147  105.5806  104.7494 H   0  0  0  0  0  0  0  0  0  0  0  0
  120.5684  104.5406  108.6152 H   0  0  0  0  0  0  0  0  0  0  0  0
  122.2630  104.0468  108.5291 H   0  0  0  0  0  0  0  0  0  0  0  0
  124.1322  105.5298  107.6453 H   0  0  0  0  0  0  0  0  0  0  0  0
  125.2571  106.4522  105.3157 H   0  0  0  0  0  0  0  0  0  0  0  0
  121.9732  104.4385  106.2494 H   0  0  0  0  0  0  0  0  0  0  0  0
  119.3391  102.7492  103.4095 H   0  0  0  0  0  0  0  0  0  0  0  0
  118.2320  103.1503  102.0663 H   0  0  0  0  0  0  0  0  0  0  0  0
  119.9807  103.3797  101.8820 H   0  0  0  0  0  0  0  0  0  0  0  0
  116.4341  103.4924  102.3573 H   0  0  0  0  0  0  0  0  0  0  0  0
  115.6829  103.4633  103.9777 H   0  0  0  0  0  0  0  0  0  0  0  0
  114.9187  104.3630  102.6544 H   0  0  0  0  0  0  0  0  0  0  0  0
  119.3004  103.7982  106.8548 H   0  0  0  0  0  0  0  0  0  0  0  0
  119.9477  103.8523  105.1921 H   0  0  0  0  0  0  0  0  0  0  0  0
  119.7367  106.2401  107.0997 H   0  0  0  0  0  0  0  0  0  0  0  0
  120.3567  106.3085  105.4526 H   0  0  0  0  0  0  0  0  0  0  0  0
  118.8404  105.5407  102.2764 H   0  0  0  0  0  0  0  0  0  0  0  0
  119.9526  105.1495  103.6087 H   0  0  0  0  0  0  0  0  0  0  0  0
  116.0850  105.8950  104.2096 H   0  0  0  0  0  0  0  0  0  0  0  0
  116.8261  105.9354  102.5927 H   0  0  0  0  0  0  0  0  0  0  0  0
  121.4060  106.1271  110.0280 H   0  0  0  0  0  0  0  0  0  0  0  0
  124.3888  108.2874  103.6800 H   0  0  0  0  0  0  0  0  0  0  0  0
  125.3773  109.0259  104.9174 H   0  0  0  0  0  0  0  0  0  0  0  0
  1  6  1  0  0  0  0
  1 15  1  0  0  0  0
  1 19  2  0  0  0  0
  2 11  1  0  0  0  0
  2 18  1  0  0  0  0
  2 20  2  0  0  0  0
  3  6  1  0  0  0  0
  3  7  1  0  0  0  0
  4  7  1  0  0  0  0
  4 16  1  0  0  0  0
  5  8  1  0  0  0  0
  5 15  1  0  0  0  0
  6 16  1  0  0  0  0
  7 17  1  0  0  0  0
  8 12  1  0  0  0  0
  8 16  1  0  0  0  0
  9 13  1  0  0  0  0
 10 14  1  0  0  0  0
 11 12  1  0  0  0  0
 13 18  1  0  0  0  0
 14 18  1  0  0  0  0
  3 21  1  0  0  0  0
  3 22  1  0  0  0  0
  4 23  1  0  0  0  0
  4 24  1  0  0  0  0
  5 25  1  0  0  0  0
  5 26  1  0  0  0  0
  6 27  1  0  0  0  0
  7 28  1  0  0  0  0
  8 29  1  0  0  0  0
  9 30  1  0  0  0  0
  9 31  1  0  0  0  0
  9 32  1  0  0  0  0
 10 33  1  0  0  0  0
 10 34  1  0  0  0  0
 10 35  1  0  0  0  0
 11 36  1  0  0  0  0
 11 37  1  0  0  0  0
 12 38  1  0  0  0  0
 12 39  1  0  0  0  0
 13 40  1  0  0  0  0
 13 41  1  0  0  0  0
 14 42  1  0  0  0  0
 14 43  1  0  0  0  0
 15 44  1  0  0  0  0
 17 45  1  0  0  0  0
 17 46  1  0  0  0  0
M  END
> <FRED Chemgauss4 score>
-7.860179

$$$$
C94262800	P147740251
  -OEChem-05182014473D

 39 40  0     1  0  0  0  0  0999 V2000
  120.3030  107.6464  107.4082 C   0  0  0  0  0  0  0  0  0  0  0  0
  119.5947  108.2454  108.4502 C   0  0  0  0  0  0  0  0  0  0  0  0
  121.7014  107.6703  107.4870 C   0  0  0  0  0  0  0  0  0  0  0  0
  122.2766  108.2851  108.5905 C   0  0  0  0  0  0  0  0  0  0  0  0
  120.3008  108.8269  109.4986 C   0  0  0  0  0  0  0  0  0  0  0  0
  123.8113  107.4919  107.2256 C   0  0  0  0  0  0  0  0  0  0  0  0
  125.3732  103.2232  107.0268 C   0  0  0  0  0  0  0  0  0  0  0  0
  125.8910  105.7129  108.6739 C   0  0  0  0  0  0  0  0  0  0  0  0
  118.0791  109.4000  110.4451 C   0  0  0  0  0  0  0  0  0  0  0  0
  120.1679  110.0371  111.6615 C   0  0  0  0  0  0  0  0  0  0  0  0
  124.8823  104.6090  106.6295 C   0  0  0  0  0  0  0  0  0  0  0  0
  125.2052  107.1807  106.7095 C   0  0  1  0  0  0  0  0  0  0  0  0
  125.7382  105.7894  107.1461 C   0  0  1  0  0  0  0  0  0  0  0  0
  122.6711  107.1812  106.6459 N   0  0  0  0  0  0  0  0  0  0  0  0
  121.6497  108.8762  109.6210 N   0  0  0  0  0  0  0  0  0  0  0  0
  123.6246  108.1608  108.4055 N   0  0  0  0  0  0  0  0  0  0  0  0
  125.1717  107.3099  105.2673 N   0  0  0  0  0  0  0  0  0  0  0  0
  119.5206  109.4219  110.5266 N   0  0  0  0  0  0  0  0  0  0  0  0
  119.7860  107.1838  106.5750 H   0  0  0  0  0  0  0  0  0  0  0  0
  118.5088  108.2505  108.4276 H   0  0  0  0  0  0  0  0  0  0  0  0
  126.3971  103.0762  106.6674 H   0  0  0  0  0  0  0  0  0  0  0  0
  124.7548  102.4357  106.5871 H   0  0  0  0  0  0  0  0  0  0  0  0
  125.3834  103.0914  108.1118 H   0  0  0  0  0  0  0  0  0  0  0  0
  124.9230  105.8418  109.1698 H   0  0  0  0  0  0  0  0  0  0  0  0
  126.3123  104.7535  108.9905 H   0  0  0  0  0  0  0  0  0  0  0  0
  126.5514  106.5047  109.0427 H   0  0  0  0  0  0  0  0  0  0  0  0
  117.6459  109.8999  111.3153 H   0  0  0  0  0  0  0  0  0  0  0  0
  117.7179  108.3684  110.4157 H   0  0  0  0  0  0  0  0  0  0  0  0
  117.7439  109.9146  109.5406 H   0  0  0  0  0  0  0  0  0  0  0  0
  119.4190  110.4407  112.3479 H   0  0  0  0  0  0  0  0  0  0  0  0
  120.8172  110.8521  111.3303 H   0  0  0  0  0  0  0  0  0  0  0  0
  120.7744  109.3008  112.1957 H   0  0  0  0  0  0  0  0  0  0  0  0
  123.8565  104.7295  107.0012 H   0  0  0  0  0  0  0  0  0  0  0  0
  124.8077  104.6551  105.5368 H   0  0  0  0  0  0  0  0  0  0  0  0
  125.9083  107.9525  107.0457 H   0  0  0  0  0  0  0  0  0  0  0  0
  126.7459  105.6517  106.7295 H   0  0  0  0  0  0  0  0  0  0  0  0
  124.3471  108.5009  109.0263 H   0  0  0  0  0  0  0  0  0  0  0  0
  125.8863  106.8594  104.7273 H   0  0  0  0  0  0  0  0  0  0  0  0
  124.5698  108.0008  104.8602 H   0  0  0  0  0  0  0  0  0  0  0  0
  1  2  1  0  0  0  0
  1  3  2  0  0  0  0
  2  5  2  0  0  0  0
  3  4  1  0  0  0  0
  3 14  1  0  0  0  0
  4 15  2  0  0  0  0
  4 16  1  0  0  0  0
  5 15  1  0  0  0  0
  5 18  1  0  0  0  0
  6 12  1  0  0  0  0
  6 14  2  0  0  0  0
  6 16  1  0  0  0  0
  7 11  1  0  0  0  0
  8 13  1  0  0  0  0
  9 18  1  0  0  0  0
 10 18  1  0  0  0  0
 11 13  1  0  0  0  0
 12 13  1  0  0  0  0
 12 17  1  0  0  0  0
  1 19  1  0  0  0  0
  2 20  1  0  0  0  0
  7 21  1  0  0  0  0
  7 22  1  0  0  0  0
  7 23  1  0  0  0  0
  8 24  1  0  0  0  0
  8 25  1  0  0  0  0
  8 26  1  0  0  0  0
  9 27  1  0  0  0  0
  9 28  1  0  0  0  0
  9 29  1  0  0  0  0
 10 30  1  0  0  0  0
 10 31  1  0  0  0  0
 10 32  1  0  0  0  0
 11 33  1  0  0  0  0
 11 34  1  0  0  0  0
 12 35  1  0  0  0  0
 13 36  1  0  0  0  0
 16 37  1  0  0  0  0
 17 38  1  0  0  0  0
 17 39  1  0  0  0  0
M  END
> <FRED Chemgauss4 score>
-7.855241

$$$$
C89508612	P139912302
  -OEChem-05182014473D

 40 42  0     1  0  0  0  0  0999 V2000
  119.9414  105.6553  100.7273 C   0  0  0  0  0  0  0  0  0  0  0  0
  119.0704  105.3227  101.8048 C   0  0  0  0  0  0  0  0  0  0  0  0
  121.1975  105.1143  100.8914 C   0  0  0  0  0  0  0  0  0  0  0  0
  119.6941  104.5398  102.7514 C   0  0  0  0  0  0  0  0  0  0  0  0
  124.4126  106.2402  109.0555 C   0  0  0  0  0  0  0  0  0  0  0  0
  124.1934  107.0593  108.0192 C   0  0  0  0  0  0  0  0  0  0  0  0
  126.1130  105.9894  107.2234 C   0  0  0  0  0  0  0  0  0  0  0  0
  121.2203  106.7985  106.8146 C   0  0  0  0  0  0  0  0  0  0  0  0
  119.8911  104.4458  105.2372 C   0  0  0  0  0  0  0  0  0  0  0  0
  118.2188  107.5767  106.3393 C   0  0  0  0  0  0  0  0  0  0  0  0
  118.8630  107.0504  107.6196 C   0  0  0  0  0  0  0  0  0  0  0  0
  118.2504  106.3719  105.4113 C   0  0  0  0  0  0  0  0  0  0  0  0
  119.9321  106.0909  107.1099 C   0  0  1  0  0  0  0  0  0  0  0  0
  119.1264  103.9828  104.0228 C   0  0  0  0  0  0  0  0  0  0  0  0
  123.0922  108.0472  107.8725 C   0  0  0  0  0  0  0  0  0  0  0  0
  125.1198  106.9280  107.0122 N   0  0  0  0  0  0  0  0  0  0  0  0
  119.4125  105.5981  105.8409 N   0  0  0  0  0  0  0  0  0  0  0  0
  121.8403  107.3274  107.9306 N   0  0  0  0  0  0  0  0  0  0  0  0
  127.0415  105.6870  106.4912 O   0  0  0  0  0  0  0  0  0  0  0  0
  121.6249  106.8600  105.6596 O   0  0  0  0  0  0  0  0  0  0  0  0
  120.8767  103.8184  105.6286 O   0  0  0  0  0  0  0  0  0  0  0  0
  121.3231  104.2093  102.3397 S   0  0  0  0  0  0  0  0  0  0  0  0
  125.8192  105.2481  108.8090 S   0  0  0  0  0  0  0  0  0  0  0  0
  119.6613  106.2598   99.8745 H   0  0  0  0  0  0  0  0  0  0  0  0
  118.0386  105.6428  101.8765 H   0  0  0  0  0  0  0  0  0  0  0  0
  122.0475  105.2074  100.2303 H   0  0  0  0  0  0  0  0  0  0  0  0
  123.8081  106.1798  109.9495 H   0  0  0  0  0  0  0  0  0  0  0  0
  117.2063  107.9581  106.4980 H   0  0  0  0  0  0  0  0  0  0  0  0
  118.8253  108.3891  105.9219 H   0  0  0  0  0  0  0  0  0  0  0  0
  119.2574  107.8561  108.2461 H   0  0  0  0  0  0  0  0  0  0  0  0
  118.1144  106.4971  108.1997 H   0  0  0  0  0  0  0  0  0  0  0  0
  117.3613  105.7457  105.5428 H   0  0  0  0  0  0  0  0  0  0  0  0
  118.3364  106.6532  104.3582 H   0  0  0  0  0  0  0  0  0  0  0  0
  120.1334  105.2651  107.7989 H   0  0  0  0  0  0  0  0  0  0  0  0
  118.0833  104.2841  104.1333 H   0  0  0  0  0  0  0  0  0  0  0  0
  119.1351  102.8919  104.0056 H   0  0  0  0  0  0  0  0  0  0  0  0
  123.1929  108.5587  106.9121 H   0  0  0  0  0  0  0  0  0  0  0  0
  123.1509  108.7755  108.6852 H   0  0  0  0  0  0  0  0  0  0  0  0
  125.0775  107.4855  106.1660 H   0  0  0  0  0  0  0  0  0  0  0  0
  121.3948  107.2044  108.8350 H   0  0  0  0  0  0  0  0  0  0  0  0
  1  2  1  0  0  0  0
  1  3  2  0  0  0  0
  2  4  2  0  0  0  0
  3 22  1  0  0  0  0
  4 14  1  0  0  0  0
  4 22  1  0  0  0  0
  5  6  2  0  0  0  0
  5 23  1  0  0  0  0
  6 15  1  0  0  0  0
  6 16  1  0  0  0  0
  7 16  1  0  0  0  0
  7 19  2  0  0  0  0
  7 23  1  0  0  0  0
  8 13  1  0  0  0  0
  8 18  1  0  0  0  0
  8 20  2  0  0  0  0
  9 14  1  0  0  0  0
  9 17  1  0  0  0  0
  9 21  2  0  0  0  0
 10 11  1  0  0  0  0
 10 12  1  0  0  0  0
 11 13  1  0  0  0  0
 12 17  1  0  0  0  0
 13 17  1  0  0  0  0
 15 18  1  0  0  0  0
  1 24  1  0  0  0  0
  2 25  1  0  0  0  0
  3 26  1  0  0  0  0
  5 27  1  0  0  0  0
 10 28  1  0  0  0  0
 10 29  1  0  0  0  0
 11 30  1  0  0  0  0
 11 31  1  0  0  0  0
 12 32  1  0  0  0  0
 12 33  1  0  0  0  0
 13 34  1  0  0  0  0
 14 35  1  0  0  0  0
 14 36  1  0  0  0  0
 15 37  1  0  0  0  0
 15 38  1  0  0  0  0
 16 39  1  0  0  0  0
 18 40  1  0  0  0  0
M  END
> <FRED Chemgauss4 score>
-7.853811

$$$$
C82988366	P129757104
  -OEChem-05182014473D

 34 34  0     1  0  0  0  0  0999 V2000
  116.4198  107.0531  106.1885 C   0  0  0  0  0  0  0  0  0  0  0  0
  117.5086  106.5226  106.8714 C   0  0  0  0  0  0  0  0  0  0  0  0
  116.6733  107.8823  105.1077 C   0  0  0  0  0  0  0  0  0  0  0  0
  118.9465  107.6719  105.3654 C   0  0  0  0  0  0  0  0  0  0  0  0
  118.7995  106.8331  106.4584 C   0  0  0  0  0  0  0  0  0  0  0  0
  119.8990  103.9436  106.6049 C   0  0  0  0  0  0  0  0  0  0  0  0
  119.9957  106.2757  107.1744 C   0  0  0  0  0  0  0  0  0  0  0  0
  124.3856  106.0161  106.7014 C   0  0  0  0  0  0  0  0  0  0  0  0
  122.0259  105.0393  106.8246 C   0  0  0  0  0  0  0  0  0  0  0  0
  125.2003  107.2940  106.5113 C   0  0  0  0  0  0  0  0  0  0  0  0
  122.9194  106.1544  106.2529 C   0  0  2  0  0  0  0  0  0  0  0  0
  117.9131  108.2065  104.6771 N   0  0  0  0  0  0  0  0  0  0  0  0
  122.8367  106.1220  104.7889 N   0  0  0  0  0  0  0  0  0  0  0  0
  120.6322  105.1963  106.4189 N   0  0  1  0  0  0  0  0  0  0  0  0
  125.2087  107.6577  105.1361 O   0  0  0  0  0  0  0  0  0  0  0  0
  115.4046  106.8246  106.4925 H   0  0  0  0  0  0  0  0  0  0  0  0
  117.3419  105.8688  107.7231 H   0  0  0  0  0  0  0  0  0  0  0  0
  115.8580  108.3215  104.5423 H   0  0  0  0  0  0  0  0  0  0  0  0
  119.9294  107.9494  104.9973 H   0  0  0  0  0  0  0  0  0  0  0  0
  120.3779  103.1404  106.0390 H   0  0  0  0  0  0  0  0  0  0  0  0
  118.8685  104.0536  106.2566 H   0  0  0  0  0  0  0  0  0  0  0  0
  119.8839  103.6681  107.6628 H   0  0  0  0  0  0  0  0  0  0  0  0
  120.7446  107.0576  107.3415 H   0  0  0  0  0  0  0  0  0  0  0  0
  119.7162  105.8780  108.1557 H   0  0  0  0  0  0  0  0  0  0  0  0
  124.4391  105.7090  107.7545 H   0  0  0  0  0  0  0  0  0  0  0  0
  124.8764  105.2110  106.1401 H   0  0  0  0  0  0  0  0  0  0  0  0
  122.3814  104.0567  106.4927 H   0  0  0  0  0  0  0  0  0  0  0  0
  122.0688  105.0482  107.9204 H   0  0  0  0  0  0  0  0  0  0  0  0
  124.7766  108.1242  107.0856 H   0  0  0  0  0  0  0  0  0  0  0  0
  126.2401  107.1556  106.8214 H   0  0  0  0  0  0  0  0  0  0  0  0
  122.5381  107.1273  106.5876 H   0  0  0  0  0  0  0  0  0  0  0  0
  123.5769  106.5407  104.2743 H   0  0  0  0  0  0  0  0  0  0  0  0
  121.9656  105.8726  104.3802 H   0  0  0  0  0  0  0  0  0  0  0  0
  125.7350  108.4700  105.0656 H   0  0  0  0  0  0  0  0  0  0  0  0
  1  2  2  0  0  0  0
  1  3  1  0  0  0  0
  2  5  1  0  0  0  0
  3 12  2  0  0  0  0
  4  5  2  0  0  0  0
  4 12  1  0  0  0  0
  5  7  1  0  0  0  0
  6 14  1  0  0  0  0
  7 14  1  0  0  0  0
  8 10  1  0  0  0  0
  8 11  1  0  0  0  0
  9 11  1  0  0  0  0
  9 14  1  0  0  0  0
 10 15  1  0  0  0  0
 11 13  1  0  0  0  0
  1 16  1  0  0  0  0
  2 17  1  0  0  0  0
  3 18  1  0  0  0  0
  4 19  1  0  0  0  0
  6 20  1  0  0  0  0
  6 21  1  0  0  0  0
  6 22  1  0  0  0  0
  7 23  1  0  0  0  0
  7 24  1  0  0  0  0
  8 25  1  0  0  0  0
  8 26  1  0  0  0  0
  9 27  1  0  0  0  0
  9 28  1  0  0  0  0
 10 29  1  0  0  0  0
 10 30  1  0  0  0  0
 11 31  1  0  0  0  0
 13 32  1  0  0  0  0
 13 33  1  0  0  0  0
 15 34  1  0  0  0  0
M  END
> <FRED Chemgauss4 score>
-7.852555

$$$$
C16735860	P25239542
  -OEChem-05182014473D

 45 47  0     1  0  0  0  0  0999 V2000
  117.9527  109.9771  109.5561 C   0  0  0  0  0  0  0  0  0  0  0  0
  120.9576  106.7159  105.1697 C   0  0  0  0  0  0  0  0  0  0  0  0
  120.5346  105.8788  104.0940 C   0  0  0  0  0  0  0  0  0  0  0  0
  119.1571  105.7774  104.0472 C   0  0  0  0  0  0  0  0  0  0  0  0
  119.8933  107.2178  105.8875 C   0  0  0  0  0  0  0  0  0  0  0  0
  122.3266  107.0219  105.5029 C   0  0  0  0  0  0  0  0  0  0  0  0
  118.7148  108.5356  107.6826 C   0  0  0  0  0  0  0  0  0  0  0  0
  121.4198  105.1556  103.1268 C   0  0  0  0  0  0  0  0  0  0  0  0
  118.3864  104.9989  103.0274 C   0  0  0  0  0  0  0  0  0  0  0  0
  120.6406  104.6708  101.8941 C   0  0  0  0  0  0  0  0  0  0  0  0
  119.3085  104.0161  102.2883 C   0  0  0  0  0  0  0  0  0  0  0  0
  125.9364  103.7157  107.6626 C   0  0  0  0  0  0  0  0  0  0  0  0
  124.6192  104.4436  107.5654 C   0  0  0  0  0  0  0  0  0  0  0  0
  126.8847  104.8338  108.0410 C   0  0  0  0  0  0  0  0  0  0  0  0
  125.0479  105.7637  106.9484 C   0  0  1  0  0  0  0  0  0  0  0  0
  119.1131  109.4348  108.8407 C   0  0  0  0  0  0  0  0  0  0  0  0
  124.1146  106.9143  107.2716 C   0  0  0  0  0  0  0  0  0  0  0  0
  117.0377  110.4084  110.1246 N   0  0  0  0  0  0  0  0  0  0  0  0
  119.8474  108.0457  106.9766 N   0  0  0  0  0  0  0  0  0  0  0  0
  122.7795  106.6560  106.7821 N   0  0  0  0  0  0  0  0  0  0  0  0
  123.0717  107.6090  104.6885 O   0  0  0  0  0  0  0  0  0  0  0  0
  117.5426  108.2864  107.4192 O   0  0  0  0  0  0  0  0  0  0  0  0
  126.3607  106.0399  107.4655 O   0  0  0  0  0  0  0  0  0  0  0  0
  118.3894  106.6813  105.2686 S   0  0  0  0  0  0  0  0  0  0  0  0
  122.2434  105.8013  102.8016 H   0  0  0  0  0  0  0  0  0  0  0  0
  121.8622  104.2915  103.6380 H   0  0  0  0  0  0  0  0  0  0  0  0
  117.5631  104.4451  103.4925 H   0  0  0  0  0  0  0  0  0  0  0  0
  117.9492  105.6981  102.3039 H   0  0  0  0  0  0  0  0  0  0  0  0
  120.4390  105.5204  101.2290 H   0  0  0  0  0  0  0  0  0  0  0  0
  121.2550  103.9604  101.3296 H   0  0  0  0  0  0  0  0  0  0  0  0
  119.5123  103.1503  102.9315 H   0  0  0  0  0  0  0  0  0  0  0  0
  118.7979  103.6377  101.3955 H   0  0  0  0  0  0  0  0  0  0  0  0
  125.9342  102.8950  108.3847 H   0  0  0  0  0  0  0  0  0  0  0  0
  126.2098  103.3086  106.6820 H   0  0  0  0  0  0  0  0  0  0  0  0
  123.8741  103.9153  106.9643 H   0  0  0  0  0  0  0  0  0  0  0  0
  124.2071  104.5937  108.5707 H   0  0  0  0  0  0  0  0  0  0  0  0
  126.9208  104.9719  109.1268 H   0  0  0  0  0  0  0  0  0  0  0  0
  127.9016  104.6629  107.6769 H   0  0  0  0  0  0  0  0  0  0  0  0
  125.1374  105.6682  105.8618 H   0  0  0  0  0  0  0  0  0  0  0  0
  119.7358  108.8554  109.5320 H   0  0  0  0  0  0  0  0  0  0  0  0
  119.7227  110.2564  108.4472 H   0  0  0  0  0  0  0  0  0  0  0  0
  124.4686  107.8381  106.8043 H   0  0  0  0  0  0  0  0  0  0  0  0
  124.0491  107.0689  108.3526 H   0  0  0  0  0  0  0  0  0  0  0  0
  120.7507  108.3799  107.3652 H   0  0  0  0  0  0  0  0  0  0  0  0
  122.1221  106.2384  107.4327 H   0  0  0  0  0  0  0  0  0  0  0  0
  1 16  1  0  0  0  0
  1 18  3  0  0  0  0
  2  3  1  0  0  0  0
  2  5  2  0  0  0  0
  2  6  1  0  0  0  0
  3  4  2  0  0  0  0
  3  8  1  0  0  0  0
  4  9  1  0  0  0  0
  4 24  1  0  0  0  0
  5 19  1  0  0  0  0
  5 24  1  0  0  0  0
  6 20  1  0  0  0  0
  6 21  2  0  0  0  0
  7 16  1  0  0  0  0
  7 19  1  0  0  0  0
  7 22  2  0  0  0  0
  8 10  1  0  0  0  0
  9 11  1  0  0  0  0
 10 11  1  0  0  0  0
 12 13  1  0  0  0  0
 12 14  1  0  0  0  0
 13 15  1  0  0  0  0
 14 23  1  0  0  0  0
 15 17  1  0  0  0  0
 15 23  1  0  0  0  0
 17 20  1  0  0  0  0
  8 25  1  0  0  0  0
  8 26  1  0  0  0  0
  9 27  1  0  0  0  0
  9 28  1  0  0  0  0
 10 29  1  0  0  0  0
 10 30  1  0  0  0  0
 11 31  1  0  0  0  0
 11 32  1  0  0  0  0
 12 33  1  0  0  0  0
 12 34  1  0  0  0  0
 13 35  1  0  0  0  0
 13 36  1  0  0  0  0
 14 37  1  0  0  0  0
 14 38  1  0  0  0  0
 15 39  1  0  0  0  0
 16 40  1  0  0  0  0
 16 41  1  0  0  0  0
 17 42  1  0  0  0  0
 17 43  1  0  0  0  0
 19 44  1  0  0  0  0
 20 45  1  0  0  0  0
M  END
> <FRED Chemgauss4 score>
-7.851846

$$$$
C77286850	P120571487
  -OEChem-05182014473D

 30 30  0     1  0  0  0  0  0999 V2000
  125.2408  105.9013  106.8574 C   0  0  0  0  0  0  0  0  0  0  0  0
  125.3478  107.3901  106.5256 C   0  0  2  0  0  0  0  0  0  0  0  0
  124.0651  108.1221  106.9216 C   0  0  2  0  0  0  0  0  0  0  0  0
  123.7470  107.8406  108.3961 C   0  0  1  0  0  0  0  0  0  0  0  0
  124.8442  105.6954  108.3258 C   0  0  2  0  0  0  0  0  0  0  0  0
  124.5474  104.2180  108.5826 C   0  0  0  0  0  0  0  0  0  0  0  0
  122.1826  108.2224  110.3293 C   0  0  0  0  0  0  0  0  0  0  0  0
  122.4304  108.4624  108.8467 C   0  0  1  0  0  0  0  0  0  0  0  0
  123.6509  106.4288  108.6313 O   0  0  0  0  0  0  0  0  0  0  0  0
  125.6031  107.5416  105.1341 O   0  0  0  0  0  0  0  0  0  0  0  0
  123.0000  107.6595  106.0895 O   0  0  0  0  0  0  0  0  0  0  0  0
  125.9390  106.0916  109.1545 O   0  0  0  0  0  0  0  0  0  0  0  0
  120.9298  108.7975  110.6852 O   0  0  0  0  0  0  0  0  0  0  0  0
  122.4870  109.8693  108.6218 O   0  0  0  0  0  0  0  0  0  0  0  0
  124.4988  105.4414  106.1913 H   0  0  0  0  0  0  0  0  0  0  0  0
  126.1997  105.4150  106.6379 H   0  0  0  0  0  0  0  0  0  0  0  0
  126.2006  107.8211  107.0639 H   0  0  0  0  0  0  0  0  0  0  0  0
  124.1765  109.1965  106.7366 H   0  0  0  0  0  0  0  0  0  0  0  0
  124.5464  108.2470  109.0285 H   0  0  0  0  0  0  0  0  0  0  0  0
  124.2666  104.0750  109.6243 H   0  0  0  0  0  0  0  0  0  0  0  0
  125.4318  103.6221  108.3656 H   0  0  0  0  0  0  0  0  0  0  0  0
  123.7296  103.8907  107.9434 H   0  0  0  0  0  0  0  0  0  0  0  0
  122.1374  107.1521  110.5562 H   0  0  0  0  0  0  0  0  0  0  0  0
  122.9584  108.6932  110.9410 H   0  0  0  0  0  0  0  0  0  0  0  0
  121.5998  108.0666  108.2537 H   0  0  0  0  0  0  0  0  0  0  0  0
  126.4397  107.0843  104.9529 H   0  0  0  0  0  0  0  0  0  0  0  0
  122.9256  106.7063  106.2463 H   0  0  0  0  0  0  0  0  0  0  0  0
  126.6859  105.5264  108.9076 H   0  0  0  0  0  0  0  0  0  0  0  0
  120.8047  108.6267  111.6320 H   0  0  0  0  0  0  0  0  0  0  0  0
  121.6374  110.2301  108.9184 H   0  0  0  0  0  0  0  0  0  0  0  0
  1  2  1  0  0  0  0
  1  5  1  0  0  0  0
  2  3  1  0  0  0  0
  2 10  1  0  0  0  0
  3  4  1  0  0  0  0
  3 11  1  0  0  0  0
  4  8  1  0  0  0  0
  4  9  1  0  0  0  0
  5  6  1  0  0  0  0
  5  9  1  0  0  0  0
  5 12  1  0  0  0  0
  7  8  1  0  0  0  0
  7 13  1  0  0  0  0
  8 14  1  0  0  0  0
  1 15  1  0  0  0  0
  1 16  1  0  0  0  0
  2 17  1  0  0  0  0
  3 18  1  0  0  0  0
  4 19  1  0  0  0  0
  6 20  1  0  0  0  0
  6 21  1  0  0  0  0
  6 22  1  0  0  0  0
  7 23  1  0  0  0  0
  7 24  1  0  0  0  0
  8 25  1  0  0  0  0
 10 26  1  0  0  0  0
 11 27  1  0  0  0  0
 12 28  1  0  0  0  0
 13 29  1  0  0  0  0
 14 30  1  0  0  0  0
M  END
> <FRED Chemgauss4 score>
-7.845251

$$$$
C94718071	P148459693
  -OEChem-05182014473D

 39 40  0     0  0  0  0  0  0999 V2000
  122.3638  104.9189  106.6937 C   0  0  0  0  0  0  0  0  0  0  0  0
  123.6601  104.7612  107.1839 C   0  0  0  0  0  0  0  0  0  0  0  0
  117.0895  104.6673  101.4843 C   0  0  0  0  0  0  0  0  0  0  0  0
  117.8273  104.4881  103.7779 C   0  0  0  0  0  0  0  0  0  0  0  0
  119.4459  104.7735  102.0071 C   0  0  0  0  0  0  0  0  0  0  0  0
  124.3392  106.7760  106.0366 C   0  0  0  0  0  0  0  0  0  0  0  0
  116.7959  104.5124  102.8391 C   0  0  0  0  0  0  0  0  0  0  0  0
  118.4145  104.7978  101.0683 C   0  0  0  0  0  0  0  0  0  0  0  0
  119.1523  104.6186  103.3619 C   0  0  0  0  0  0  0  0  0  0  0  0
  123.0429  106.9337  105.5463 C   0  0  0  0  0  0  0  0  0  0  0  0
  122.0552  106.0052  105.8748 C   0  0  0  0  0  0  0  0  0  0  0  0
  124.6478  105.6897  106.8554 C   0  0  0  0  0  0  0  0  0  0  0  0
  115.3790  104.3732  103.2833 C   0  0  0  0  0  0  0  0  0  0  0  0
  118.7290  104.9639   99.6198 C   0  0  0  0  0  0  0  0  0  0  0  0
  120.2549  104.5925  104.3661 C   0  0  0  0  0  0  0  0  0  0  0  0
  122.7674  108.0466  104.7192 N   0  0  0  0  0  0  0  0  0  0  0  0
  126.9727  104.5479  106.2264 N   0  0  0  0  0  0  0  0  0  0  0  0
  126.9173  106.7941  107.4901 O   0  0  0  0  0  0  0  0  0  0  0  0
  126.2113  104.6905  108.6833 O   0  0  0  0  0  0  0  0  0  0  0  0
  120.3977  106.1556  105.2848 S   0  0  0  0  0  0  0  0  0  0  0  0
  126.2707  105.4895  107.4673 S   0  0  0  0  0  0  0  0  0  0  0  0
  121.6095  104.1831  106.9627 H   0  0  0  0  0  0  0  0  0  0  0  0
  123.8888  103.9115  107.8218 H   0  0  0  0  0  0  0  0  0  0  0  0
  116.2858  104.6859  100.7519 H   0  0  0  0  0  0  0  0  0  0  0  0
  117.5982  104.3673  104.8342 H   0  0  0  0  0  0  0  0  0  0  0  0
  120.4789  104.8752  101.6831 H   0  0  0  0  0  0  0  0  0  0  0  0
  125.1115  107.4979  105.7811 H   0  0  0  0  0  0  0  0  0  0  0  0
  115.0845  103.3167  103.2951 H   0  0  0  0  0  0  0  0  0  0  0  0
  115.2347  104.7859  104.2902 H   0  0  0  0  0  0  0  0  0  0  0  0
  114.6972  104.9171  102.6165 H   0  0  0  0  0  0  0  0  0  0  0  0
  118.7411  106.0272   99.3512 H   0  0  0  0  0  0  0  0  0  0  0  0
  119.7071  104.5313   99.3724 H   0  0  0  0  0  0  0  0  0  0  0  0
  117.9880  104.4542   98.9904 H   0  0  0  0  0  0  0  0  0  0  0  0
  120.1058  103.7782  105.0903 H   0  0  0  0  0  0  0  0  0  0  0  0
  121.2201  104.3908  103.8786 H   0  0  0  0  0  0  0  0  0  0  0  0
  123.4906  108.7129  104.5466 H   0  0  0  0  0  0  0  0  0  0  0  0
  121.8325  108.1945  104.4018 H   0  0  0  0  0  0  0  0  0  0  0  0
  126.6798  103.5668  106.1415 H   0  0  0  0  0  0  0  0  0  0  0  0
  127.1645  105.0032  105.3257 H   0  0  0  0  0  0  0  0  0  0  0  0
  1  2  2  0  0  0  0
  1 11  1  0  0  0  0
  2 12  1  0  0  0  0
  3  7  2  0  0  0  0
  3  8  1  0  0  0  0
  4  7  1  0  0  0  0
  4  9  2  0  0  0  0
  5  8  2  0  0  0  0
  5  9  1  0  0  0  0
  6 10  1  0  0  0  0
  6 12  2  0  0  0  0
  7 13  1  0  0  0  0
  8 14  1  0  0  0  0
  9 15  1  0  0  0  0
 10 11  2  0  0  0  0
 10 16  1  0  0  0  0
 11 20  1  0  0  0  0
 12 21  1  0  0  0  0
 15 20  1  0  0  0  0
 17 21  1  0  0  0  0
 18 21  2  0  0  0  0
 19 21  2  0  0  0  0
  1 22  1  0  0  0  0
  2 23  1  0  0  0  0
  3 24  1  0  0  0  0
  4 25  1  0  0  0  0
  5 26  1  0  0  0  0
  6 27  1  0  0  0  0
 13 28  1  0  0  0  0
 13 29  1  0  0  0  0
 13 30  1  0  0  0  0
 14 31  1  0  0  0  0
 14 32  1  0  0  0  0
 14 33  1  0  0  0  0
 15 34  1  0  0  0  0
 15 35  1  0  0  0  0
 16 36  1  0  0  0  0
 16 37  1  0  0  0  0
 17 38  1  0  0  0  0
 17 39  1  0  0  0  0
M  END
> <FRED Chemgauss4 score>
-7.843276

$$$$
C12504391	P18375293
  -OEChem-05182014473D

 28 28  0     1  0  0  0  0  0999 V2000
  125.7833  106.1478  107.7521 C   0  0  1  0  0  0  0  0  0  0  0  0
  124.4423  105.6171  108.2657 C   0  0  1  0  0  0  0  0  0  0  0  0
  125.5712  107.2649  106.7308 C   0  0  1  0  0  0  0  0  0  0  0  0
  123.5188  105.2667  107.0906 C   0  0  1  0  0  0  0  0  0  0  0  0
  124.6236  106.7881  105.6305 C   0  0  1  0  0  0  0  0  0  0  0  0
  121.1971  104.6100  106.3771 C   0  0  0  0  0  0  0  0  0  0  0  0
  122.1170  104.8860  107.5575 C   0  0  2  0  0  0  0  0  0  0  0  0
  123.3785  106.3801  106.2021 O   0  0  0  0  0  0  0  0  0  0  0  0
  126.5517  106.6289  108.8519 O   0  0  0  0  0  0  0  0  0  0  0  0
  124.6974  104.4577  109.0550 O   0  0  0  0  0  0  0  0  0  0  0  0
  124.9880  108.3919  107.3925 O   0  0  0  0  0  0  0  0  0  0  0  0
  124.4266  107.8543  104.7069 O   0  0  0  0  0  0  0  0  0  0  0  0
  120.0775  103.8588  106.8342 O   0  0  0  0  0  0  0  0  0  0  0  0
  121.5756  105.9698  108.3084 O   0  0  0  0  0  0  0  0  0  0  0  0
  126.3528  105.3263  107.2996 H   0  0  0  0  0  0  0  0  0  0  0  0
  123.9814  106.3687  108.9189 H   0  0  0  0  0  0  0  0  0  0  0  0
  126.5273  107.6050  106.3180 H   0  0  0  0  0  0  0  0  0  0  0  0
  123.9240  104.4136  106.5305 H   0  0  0  0  0  0  0  0  0  0  0  0
  125.0673  105.9475  105.0823 H   0  0  0  0  0  0  0  0  0  0  0  0
  120.8212  105.5409  105.9400 H   0  0  0  0  0  0  0  0  0  0  0  0
  121.7073  104.0241  105.6062 H   0  0  0  0  0  0  0  0  0  0  0  0
  122.1608  104.0151  108.2181 H   0  0  0  0  0  0  0  0  0  0  0  0
  127.3879  106.9537  108.4835 H   0  0  0  0  0  0  0  0  0  0  0  0
  125.1338  103.8176  108.4718 H   0  0  0  0  0  0  0  0  0  0  0  0
  124.1462  108.0846  107.7587 H   0  0  0  0  0  0  0  0  0  0  0  0
  123.8234  107.5215  104.0240 H   0  0  0  0  0  0  0  0  0  0  0  0
  119.5142  103.7010  106.0602 H   0  0  0  0  0  0  0  0  0  0  0  0
  122.1712  106.1091  109.0608 H   0  0  0  0  0  0  0  0  0  0  0  0
  1  2  1  0  0  0  0
  1  3  1  0  0  0  0
  1  9  1  0  0  0  0
  2  4  1  0  0  0  0
  2 10  1  0  0  0  0
  3  5  1  0  0  0  0
  3 11  1  0  0  0  0
  4  7  1  0  0  0  0
  4  8  1  0  0  0  0
  5  8  1  0  0  0  0
  5 12  1  0  0  0  0
  6  7  1  0  0  0  0
  6 13  1  0  0  0  0
  7 14  1  0  0  0  0
  1 15  1  0  0  0  0
  2 16  1  0  0  0  0
  3 17  1  0  0  0  0
  4 18  1  0  0  0  0
  5 19  1  0  0  0  0
  6 20  1  0  0  0  0
  6 21  1  0  0  0  0
  7 22  1  0  0  0  0
  9 23  1  0  0  0  0
 10 24  1  0  0  0  0
 11 25  1  0  0  0  0
 12 26  1  0  0  0  0
 13 27  1  0  0  0  0
 14 28  1  0  0  0  0
M  END
> <FRED Chemgauss4 score>
-7.835329

$$$$
C98077085	P155853031
  -OEChem-05182014473D

 51 53  0     0  0  0  0  0  0999 V2000
  118.2778  105.1643  101.9686 C   0  0  0  0  0  0  0  0  0  0  0  0
  117.7385  105.0864  103.2545 C   0  0  0  0  0  0  0  0  0  0  0  0
  119.7501  103.9951  104.0820 C   0  0  0  0  0  0  0  0  0  0  0  0
  119.5533  104.6666  101.7611 C   0  0  0  0  0  0  0  0  0  0  0  0
  120.2817  104.0877  102.8070 C   0  0  0  0  0  0  0  0  0  0  0  0
  118.4694  104.5063  104.3036 C   0  0  0  0  0  0  0  0  0  0  0  0
  121.7234  107.7792  106.6059 C   0  0  0  0  0  0  0  0  0  0  0  0
  120.3206  104.6033  100.4784 C   0  0  0  0  0  0  0  0  0  0  0  0
  121.6031  103.5824  102.3202 C   0  0  0  0  0  0  0  0  0  0  0  0
  121.7443  104.3479  100.9959 C   0  0  0  0  0  0  0  0  0  0  0  0
  119.2859  107.9193  107.2022 C   0  0  0  0  0  0  0  0  0  0  0  0
  120.7519  106.0411  108.0657 C   0  0  0  0  0  0  0  0  0  0  0  0
  118.6847  106.9441  106.1920 C   0  0  0  0  0  0  0  0  0  0  0  0
  120.1295  105.1201  107.0192 C   0  0  0  0  0  0  0  0  0  0  0  0
  120.6775  107.5154  107.6773 C   0  0  0  0  0  0  0  0  0  0  0  0
  124.8716  106.2988  105.8345 C   0  0  0  0  0  0  0  0  0  0  0  0
  124.1554  107.6131  106.1158 C   0  0  0  0  0  0  0  0  0  0  0  0
  125.3760  105.6181  107.1012 C   0  0  0  0  0  0  0  0  0  0  0  0
  118.7324  105.5581  106.7386 N   0  0  0  0  0  0  0  0  0  0  0  0
  123.0105  107.4455  106.9819 N   0  0  0  0  0  0  0  0  0  0  0  0
  121.3784  108.2470  105.5271 O   0  0  0  0  0  0  0  0  0  0  0  0
  116.4047  104.9196  105.8331 O   0  0  0  0  0  0  0  0  0  0  0  0
  118.0306  103.0962  106.4492 O   0  0  0  0  0  0  0  0  0  0  0  0
  126.2762  106.4957  107.7646 O   0  0  0  0  0  0  0  0  0  0  0  0
  117.7574  104.4131  105.9160 S   0  0  0  0  0  0  0  0  0  0  0  0
  117.7072  105.6026  101.1571 H   0  0  0  0  0  0  0  0  0  0  0  0
  116.7397  105.4761  103.4345 H   0  0  0  0  0  0  0  0  0  0  0  0
  120.3175  103.5341  104.8842 H   0  0  0  0  0  0  0  0  0  0  0  0
  119.9655  103.7669   99.8677 H   0  0  0  0  0  0  0  0  0  0  0  0
  120.2643  105.5352   99.9091 H   0  0  0  0  0  0  0  0  0  0  0  0
  122.4217  103.8182  103.0062 H   0  0  0  0  0  0  0  0  0  0  0  0
  121.5539  102.5020  102.1498 H   0  0  0  0  0  0  0  0  0  0  0  0
  122.3640  103.8139  100.2686 H   0  0  0  0  0  0  0  0  0  0  0  0
  122.2335  105.3127  101.1904 H   0  0  0  0  0  0  0  0  0  0  0  0
  119.3034  108.9253  106.7660 H   0  0  0  0  0  0  0  0  0  0  0  0
  118.6228  107.9644  108.0763 H   0  0  0  0  0  0  0  0  0  0  0  0
  120.2173  105.9042  109.0147 H   0  0  0  0  0  0  0  0  0  0  0  0
  121.7915  105.7386  108.2405 H   0  0  0  0  0  0  0  0  0  0  0  0
  117.6424  107.2261  106.0061 H   0  0  0  0  0  0  0  0  0  0  0  0
  119.2223  106.9836  105.2381 H   0  0  0  0  0  0  0  0  0  0  0  0
  120.7137  105.1262  106.0921 H   0  0  0  0  0  0  0  0  0  0  0  0
  120.1191  104.0970  107.4107 H   0  0  0  0  0  0  0  0  0  0  0  0
  120.9711  108.1235  108.5265 H   0  0  0  0  0  0  0  0  0  0  0  0
  124.1870  105.6177  105.3137 H   0  0  0  0  0  0  0  0  0  0  0  0
  125.7131  106.4601  105.1489 H   0  0  0  0  0  0  0  0  0  0  0  0
  124.8337  108.3116  106.6155 H   0  0  0  0  0  0  0  0  0  0  0  0
  123.8078  108.0784  105.1879 H   0  0  0  0  0  0  0  0  0  0  0  0
  124.5520  105.3893  107.7840 H   0  0  0  0  0  0  0  0  0  0  0  0
  125.9078  104.6920  106.8606 H   0  0  0  0  0  0  0  0  0  0  0  0
  123.1592  107.0642  107.9114 H   0  0  0  0  0  0  0  0  0  0  0  0
  126.5784  106.0349  108.5638 H   0  0  0  0  0  0  0  0  0  0  0  0
  1  2  1  0  0  0  0
  1  4  2  0  0  0  0
  2  6  2  0  0  0  0
  3  5  2  0  0  0  0
  3  6  1  0  0  0  0
  4  5  1  0  0  0  0
  4  8  1  0  0  0  0
  5  9  1  0  0  0  0
  6 25  1  0  0  0  0
  7 15  1  0  0  0  0
  7 20  1  0  0  0  0
  7 21  2  0  0  0  0
  8 10  1  0  0  0  0
  9 10  1  0  0  0  0
 11 13  1  0  0  0  0
 11 15  1  0  0  0  0
 12 14  1  0  0  0  0
 12 15  1  0  0  0  0
 13 19  1  0  0  0  0
 14 19  1  0  0  0  0
 16 17  1  0  0  0  0
 16 18  1  0  0  0  0
 17 20  1  0  0  0  0
 18 24  1  0  0  0  0
 19 25  1  0  0  0  0
 22 25  2  0  0  0  0
 23 25  2  0  0  0  0
  1 26  1  0  0  0  0
  2 27  1  0  0  0  0
  3 28  1  0  0  0  0
  8 29  1  0  0  0  0
  8 30  1  0  0  0  0
  9 31  1  0  0  0  0
  9 32  1  0  0  0  0
 10 33  1  0  0  0  0
 10 34  1  0  0  0  0
 11 35  1  0  0  0  0
 11 36  1  0  0  0  0
 12 37  1  0  0  0  0
 12 38  1  0  0  0  0
 13 39  1  0  0  0  0
 13 40  1  0  0  0  0
 14 41  1  0  0  0  0
 14 42  1  0  0  0  0
 15 43  1  0  0  0  0
 16 44  1  0  0  0  0
 16 45  1  0  0  0  0
 17 46  1  0  0  0  0
 17 47  1  0  0  0  0
 18 48  1  0  0  0  0
 18 49  1  0  0  0  0
 20 50  1  0  0  0  0
 24 51  1  0  0  0  0
M  END
> <FRED Chemgauss4 score>
-7.828307

$$$$
C68634020	P105372851
  -OEChem-05182014473D

 44 46  0     1  0  0  0  0  0999 V2000
  117.0667  104.8437  105.3988 C   0  0  0  0  0  0  0  0  0  0  0  0
  119.0594  104.3663  106.1129 C   0  0  0  0  0  0  0  0  0  0  0  0
  124.3186  107.6953  105.5961 C   0  0  0  0  0  0  0  0  0  0  0  0
  115.2467  105.4524  103.6157 C   0  0  0  0  0  0  0  0  0  0  0  0
  115.8741  106.7420  104.0437 C   0  0  0  0  0  0  0  0  0  0  0  0
  118.8240  107.3132  107.5955 C   0  0  0  0  0  0  0  0  0  0  0  0
  117.4453  107.6167  107.0989 C   0  0  0  0  0  0  0  0  0  0  0  0
  115.8083  105.5842  105.0120 C   0  0  0  0  0  0  0  0  0  0  0  0
  118.4117  106.8666  106.2124 C   0  0  0  0  0  0  0  0  0  0  0  0
  121.7604  103.4776  104.5272 C   0  0  0  0  0  0  0  0  0  0  0  0
  122.8438  106.9696  107.5164 C   0  0  0  0  0  0  0  0  0  0  0  0
  122.9980  105.4755  105.4452 C   0  0  0  0  0  0  0  0  0  0  0  0
  121.6112  104.8309  105.2264 C   0  0  2  0  0  0  0  0  0  0  0  0
  123.0451  106.9287  105.9940 C   0  0  2  0  0  0  0  0  0  0  0  0
  117.2283  103.5453  105.2789 N   0  0  0  0  0  0  0  0  0  0  0  0
  118.4962  103.2415  105.7332 N   0  0  0  0  0  0  0  0  0  0  0  0
  118.1949  105.4007  105.9198 N   0  0  0  0  0  0  0  0  0  0  0  0
  124.3263  109.0289  105.9463 N   0  0  0  0  0  0  0  0  0  0  0  0
  121.9368  107.6805  105.3753 N   0  0  0  0  0  0  0  0  0  0  0  0
  125.2621  107.1633  105.0114 O   0  0  0  0  0  0  0  0  0  0  0  0
  120.6834  104.5617  106.7753 S   0  0  0  0  0  0  0  0  0  0  0  0
  114.1691  105.4290  103.5029 H   0  0  0  0  0  0  0  0  0  0  0  0
  115.7826  104.8456  102.8953 H   0  0  0  0  0  0  0  0  0  0  0  0
  116.8330  107.0030  103.6113 H   0  0  0  0  0  0  0  0  0  0  0  0
  115.2205  107.5884  104.2197 H   0  0  0  0  0  0  0  0  0  0  0  0
  119.5259  108.1346  107.6715 H   0  0  0  0  0  0  0  0  0  0  0  0
  118.9256  106.5634  108.3709 H   0  0  0  0  0  0  0  0  0  0  0  0
  116.6198  107.0718  107.5404 H   0  0  0  0  0  0  0  0  0  0  0  0
  117.2168  108.6428  106.8380 H   0  0  0  0  0  0  0  0  0  0  0  0
  115.0618  105.6803  105.8198 H   0  0  0  0  0  0  0  0  0  0  0  0
  118.8275  107.3736  105.3689 H   0  0  0  0  0  0  0  0  0  0  0  0
  122.3661  102.7785  105.1153 H   0  0  0  0  0  0  0  0  0  0  0  0
  120.7855  103.0146  104.3367 H   0  0  0  0  0  0  0  0  0  0  0  0
  122.2520  103.6024  103.5559 H   0  0  0  0  0  0  0  0  0  0  0  0
  121.9408  106.4282  107.8186 H   0  0  0  0  0  0  0  0  0  0  0  0
  122.7619  107.9993  107.8826 H   0  0  0  0  0  0  0  0  0  0  0  0
  123.6794  106.4939  108.0450 H   0  0  0  0  0  0  0  0  0  0  0  0
  123.6070  104.8083  106.0700 H   0  0  0  0  0  0  0  0  0  0  0  0
  123.4963  105.4783  104.4637 H   0  0  0  0  0  0  0  0  0  0  0  0
  120.9987  105.4703  104.5836 H   0  0  0  0  0  0  0  0  0  0  0  0
  123.5198  109.4112  106.4286 H   0  0  0  0  0  0  0  0  0  0  0  0
  125.1075  109.6425  105.7402 H   0  0  0  0  0  0  0  0  0  0  0  0
  121.7327  107.4892  104.4256 H   0  0  0  0  0  0  0  0  0  0  0  0
  121.5932  108.4688  105.8659 H   0  0  0  0  0  0  0  0  0  0  0  0
  1  8  1  0  0  0  0
  1 15  2  0  0  0  0
  1 17  1  0  0  0  0
  2 16  2  0  0  0  0
  2 17  1  0  0  0  0
  2 21  1  0  0  0  0
  3 14  1  0  0  0  0
  3 18  1  0  0  0  0
  3 20  2  0  0  0  0
  4  5  1  0  0  0  0
  4  8  1  0  0  0  0
  5  8  1  0  0  0  0
  6  7  1  0  0  0  0
  6  9  1  0  0  0  0
  7  9  1  0  0  0  0
  9 17  1  0  0  0  0
 10 13  1  0  0  0  0
 11 14  1  0  0  0  0
 12 13  1  0  0  0  0
 12 14  1  0  0  0  0
 13 21  1  0  0  0  0
 14 19  1  0  0  0  0
 15 16  1  0  0  0  0
  4 22  1  0  0  0  0
  4 23  1  0  0  0  0
  5 24  1  0  0  0  0
  5 25  1  0  0  0  0
  6 26  1  0  0  0  0
  6 27  1  0  0  0  0
  7 28  1  0  0  0  0
  7 29  1  0  0  0  0
  8 30  1  0  0  0  0
  9 31  1  0  0  0  0
 10 32  1  0  0  0  0
 10 33  1  0  0  0  0
 10 34  1  0  0  0  0
 11 35  1  0  0  0  0
 11 36  1  0  0  0  0
 11 37  1  0  0  0  0
 12 38  1  0  0  0  0
 12 39  1  0  0  0  0
 13 40  1  0  0  0  0
 18 41  1  0  0  0  0
 18 42  1  0  0  0  0
 19 43  1  0  0  0  0
 19 44  1  0  0  0  0
M  END
> <FRED Chemgauss4 score>
-7.818264

$$$$
C48262969	P72208098
  -OEChem-05182014473D

 27 27  0     0  0  0  0  0  0999 V2000
  118.8240  103.9402  106.0114 C   0  0  0  0  0  0  0  0  0  0  0  0
  119.6343  104.0383  103.7491 C   0  0  0  0  0  0  0  0  0  0  0  0
  117.5436  103.8408  105.4914 C   0  0  0  0  0  0  0  0  0  0  0  0
  118.3177  103.9343  103.3303 C   0  0  0  0  0  0  0  0  0  0  0  0
  119.8838  104.0405  105.1170 C   0  0  0  0  0  0  0  0  0  0  0  0
  123.9149  106.7702  106.0312 C   0  0  0  0  0  0  0  0  0  0  0  0
  125.2921  106.6242  106.6019 C   0  0  0  0  0  0  0  0  0  0  0  0
  121.2990  104.1520  105.6287 C   0  0  0  0  0  0  0  0  0  0  0  0
  121.7402  105.5967  105.8498 C   0  0  0  0  0  0  0  0  0  0  0  0
  117.2621  103.8353  104.1691 N   0  0  0  0  0  0  0  0  0  0  0  0
  126.4940  106.4282  108.6348 N   0  0  0  0  0  0  0  0  0  0  0  0
  123.1040  105.6948  106.3144 N   0  0  0  0  0  0  0  0  0  0  0  0
  125.2897  106.5438  107.9731 N   0  0  0  0  0  0  0  0  0  0  0  0
  123.6674  107.7753  105.3844 O   0  0  0  0  0  0  0  0  0  0  0  0
  126.2336  106.6099  105.8247 O   0  0  0  0  0  0  0  0  0  0  0  0
  118.9851  103.9399  107.0842 H   0  0  0  0  0  0  0  0  0  0  0  0
  120.4397  104.1149  103.0268 H   0  0  0  0  0  0  0  0  0  0  0  0
  116.6825  103.7615  106.1470 H   0  0  0  0  0  0  0  0  0  0  0  0
  118.0702  103.9281  102.2739 H   0  0  0  0  0  0  0  0  0  0  0  0
  121.9700  103.6750  104.9031 H   0  0  0  0  0  0  0  0  0  0  0  0
  121.4035  103.5786  106.5587 H   0  0  0  0  0  0  0  0  0  0  0  0
  121.6871  106.1513  104.9076 H   0  0  0  0  0  0  0  0  0  0  0  0
  121.1045  106.1057  106.5818 H   0  0  0  0  0  0  0  0  0  0  0  0
  126.3936  106.9219  109.5207 H   0  0  0  0  0  0  0  0  0  0  0  0
  127.1796  106.9553  108.0956 H   0  0  0  0  0  0  0  0  0  0  0  0
  123.4729  104.9251  106.8651 H   0  0  0  0  0  0  0  0  0  0  0  0
  124.4166  106.5690  108.4904 H   0  0  0  0  0  0  0  0  0  0  0  0
  1  3  1  0  0  0  0
  1  5  2  0  0  0  0
  2  4  2  0  0  0  0
  2  5  1  0  0  0  0
  3 10  2  0  0  0  0
  4 10  1  0  0  0  0
  5  8  1  0  0  0  0
  6  7  1  0  0  0  0
  6 12  1  0  0  0  0
  6 14  2  0  0  0  0
  7 13  1  0  0  0  0
  7 15  2  0  0  0  0
  8  9  1  0  0  0  0
  9 12  1  0  0  0  0
 11 13  1  0  0  0  0
  1 16  1  0  0  0  0
  2 17  1  0  0  0  0
  3 18  1  0  0  0  0
  4 19  1  0  0  0  0
  8 20  1  0  0  0  0
  8 21  1  0  0  0  0
  9 22  1  0  0  0  0
  9 23  1  0  0  0  0
 11 24  1  0  0  0  0
 11 25  1  0  0  0  0
 12 26  1  0  0  0  0
 13 27  1  0  0  0  0
M  END
> <FRED Chemgauss4 score>
-7.810490

$$$$
C50499210	P75511884
  -OEChem-05182014473D

 40 40  0     1  0  0  0  0  0999 V2000
  125.7555  105.9936  108.0221 C   0  0  0  0  0  0  0  0  0  0  0  0
  117.1367  104.9545  104.4830 C   0  0  0  0  0  0  0  0  0  0  0  0
  117.5392  104.2876  105.7890 C   0  0  0  0  0  0  0  0  0  0  0  0
  118.1362  104.6086  103.3870 C   0  0  0  0  0  0  0  0  0  0  0  0
  118.9858  104.6185  106.1489 C   0  0  0  0  0  0  0  0  0  0  0  0
  119.5851  104.9294  103.8066 C   0  0  2  0  0  0  0  0  0  0  0  0
  124.3666  106.3282  108.5341 C   0  0  0  0  0  0  0  0  0  0  0  0
  120.5160  104.5316  102.6522 C   0  0  0  0  0  0  0  0  0  0  0  0
  121.2918  104.5015  105.5128 C   0  0  0  0  0  0  0  0  0  0  0  0
  123.2501  105.7247  107.6989 C   0  0  0  0  0  0  0  0  0  0  0  0
  121.6409  105.9759  105.4461 C   0  0  0  0  0  0  0  0  0  0  0  0
  119.9184  104.2379  105.0733 N   0  0  1  0  0  0  0  0  0  0  0  0
  126.6705  106.9853  108.3045 N   0  0  0  0  0  0  0  0  0  0  0  0
  126.0408  104.9508  107.4410 O   0  0  0  0  0  0  0  0  0  0  0  0
  124.1972  105.4569  105.2774 O   0  0  0  0  0  0  0  0  0  0  0  0
  123.4667  107.7448  106.0544 O   0  0  0  0  0  0  0  0  0  0  0  0
  120.1409  105.2714  101.5086 O   0  0  0  0  0  0  0  0  0  0  0  0
  123.2787  106.3045  106.0182 S   0  0  0  0  0  0  0  0  0  0  0  0
  116.1313  104.6327  104.1901 H   0  0  0  0  0  0  0  0  0  0  0  0
  117.1013  106.0423  104.6188 H   0  0  0  0  0  0  0  0  0  0  0  0
  116.8723  104.6166  106.5939 H   0  0  0  0  0  0  0  0  0  0  0  0
  117.4210  103.2003  105.6992 H   0  0  0  0  0  0  0  0  0  0  0  0
  118.0460  103.5423  103.1401 H   0  0  0  0  0  0  0  0  0  0  0  0
  117.8756  105.1665  102.4793 H   0  0  0  0  0  0  0  0  0  0  0  0
  119.0729  105.6894  106.3761 H   0  0  0  0  0  0  0  0  0  0  0  0
  119.2351  104.0713  107.0665 H   0  0  0  0  0  0  0  0  0  0  0  0
  119.6698  106.0158  103.9495 H   0  0  0  0  0  0  0  0  0  0  0  0
  124.3000  105.9352  109.5558 H   0  0  0  0  0  0  0  0  0  0  0  0
  124.2601  107.4181  108.5877 H   0  0  0  0  0  0  0  0  0  0  0  0
  120.4110  103.4687  102.4522 H   0  0  0  0  0  0  0  0  0  0  0  0
  121.5435  104.7641  102.9188 H   0  0  0  0  0  0  0  0  0  0  0  0
  121.9597  103.9017  104.8867 H   0  0  0  0  0  0  0  0  0  0  0  0
  121.3702  104.1425  106.5434 H   0  0  0  0  0  0  0  0  0  0  0  0
  123.2999  104.6325  107.6653 H   0  0  0  0  0  0  0  0  0  0  0  0
  122.2758  106.0168  108.1029 H   0  0  0  0  0  0  0  0  0  0  0  0
  120.9707  106.5554  106.0880 H   0  0  0  0  0  0  0  0  0  0  0  0
  121.5744  106.3636  104.4250 H   0  0  0  0  0  0  0  0  0  0  0  0
  126.3697  107.8164  108.8034 H   0  0  0  0  0  0  0  0  0  0  0  0
  127.6405  106.8960  108.0208 H   0  0  0  0  0  0  0  0  0  0  0  0
  120.7386  105.0092  100.7864 H   0  0  0  0  0  0  0  0  0  0  0  0
  1  7  1  0  0  0  0
  1 13  1  0  0  0  0
  1 14  2  0  0  0  0
  2  3  1  0  0  0  0
  2  4  1  0  0  0  0
  3  5  1  0  0  0  0
  4  6  1  0  0  0  0
  5 12  1  0  0  0  0
  6  8  1  0  0  0  0
  6 12  1  0  0  0  0
  7 10  1  0  0  0  0
  8 17  1  0  0  0  0
  9 11  1  0  0  0  0
  9 12  1  0  0  0  0
 10 18  1  0  0  0  0
 11 18  1  0  0  0  0
 15 18  2  0  0  0  0
 16 18  2  0  0  0  0
  2 19  1  0  0  0  0
  2 20  1  0  0  0  0
  3 21  1  0  0  0  0
  3 22  1  0  0  0  0
  4 23  1  0  0  0  0
  4 24  1  0  0  0  0
  5 25  1  0  0  0  0
  5 26  1  0  0  0  0
  6 27  1  0  0  0  0
  7 28  1  0  0  0  0
  7 29  1  0  0  0  0
  8 30  1  0  0  0  0
  8 31  1  0  0  0  0
  9 32  1  0  0  0  0
  9 33  1  0  0  0  0
 10 34  1  0  0  0  0
 10 35  1  0  0  0  0
 11 36  1  0  0  0  0
 11 37  1  0  0  0  0
 13 38  1  0  0  0  0
 13 39  1  0  0  0  0
 17 40  1  0  0  0  0
M  END
> <FRED Chemgauss4 score>
-7.807979

$$$$
C82468597	P128880427
  -OEChem-05182014473D

 34 34  0     1  0  0  0  0  0999 V2000
  124.3454  107.2731  105.7869 C   0  0  0  0  0  0  0  0  0  0  0  0
  119.8899  103.8769  105.7722 C   0  0  0  0  0  0  0  0  0  0  0  0
  121.0011  104.8643  106.1134 C   0  0  0  0  0  0  0  0  0  0  0  0
  119.7426  103.7083  104.2580 C   0  0  0  0  0  0  0  0  0  0  0  0
  120.6322  105.9283  103.8537 C   0  0  0  0  0  0  0  0  0  0  0  0
  120.8098  106.1803  105.3577 C   0  0  2  0  0  0  0  0  0  0  0  0
  118.2349  105.5371  103.7101 C   0  0  0  0  0  0  0  0  0  0  0  0
  121.7773  107.7410  106.8841 C   0  0  0  0  0  0  0  0  0  0  0  0
  123.1857  106.3335  105.5394 C   0  0  0  0  0  0  0  0  0  0  0  0
  119.5683  104.9696  103.5265 N   0  0  2  0  0  0  0  0  0  0  0  0
  126.1638  107.6453  107.2819 N   0  0  0  0  0  0  0  0  0  0  0  0
  125.0658  106.8977  106.9090 N   0  0  0  0  0  0  0  0  0  0  0  0
  121.9226  107.0693  105.5929 N   0  0  1  0  0  0  0  0  0  0  0  0
  124.5972  108.2378  105.0687 O   0  0  0  0  0  0  0  0  0  0  0  0
  120.1032  102.9066  106.2329 H   0  0  0  0  0  0  0  0  0  0  0  0
  118.9425  104.2320  106.1958 H   0  0  0  0  0  0  0  0  0  0  0  0
  121.0165  105.0410  107.1969 H   0  0  0  0  0  0  0  0  0  0  0  0
  121.9698  104.4147  105.8527 H   0  0  0  0  0  0  0  0  0  0  0  0
  120.6202  103.1500  103.8660 H   0  0  0  0  0  0  0  0  0  0  0  0
  118.8679  103.0506  104.0743 H   0  0  0  0  0  0  0  0  0  0  0  0
  120.4076  106.8982  103.3613 H   0  0  0  0  0  0  0  0  0  0  0  0
  121.5960  105.5921  103.4111 H   0  0  0  0  0  0  0  0  0  0  0  0
  119.8913  106.6669  105.7374 H   0  0  0  0  0  0  0  0  0  0  0  0
  118.1445  106.4725  103.1517 H   0  0  0  0  0  0  0  0  0  0  0  0
  118.0531  105.7404  104.7689 H   0  0  0  0  0  0  0  0  0  0  0  0
  117.4741  104.8384  103.3517 H   0  0  0  0  0  0  0  0  0  0  0  0
  122.6227  108.4122  107.0557 H   0  0  0  0  0  0  0  0  0  0  0  0
  121.7431  107.0045  107.6915 H   0  0  0  0  0  0  0  0  0  0  0  0
  120.8538  108.3259  106.9040 H   0  0  0  0  0  0  0  0  0  0  0  0
  123.3038  105.8719  104.5540 H   0  0  0  0  0  0  0  0  0  0  0  0
  123.1856  105.5472  106.3007 H   0  0  0  0  0  0  0  0  0  0  0  0
  126.2084  107.6177  108.2998 H   0  0  0  0  0  0  0  0  0  0  0  0
  125.9601  108.6132  107.0355 H   0  0  0  0  0  0  0  0  0  0  0  0
  124.7895  106.0837  107.4494 H   0  0  0  0  0  0  0  0  0  0  0  0
  1  9  1  0  0  0  0
  1 12  1  0  0  0  0
  1 14  2  0  0  0  0
  2  3  1  0  0  0  0
  2  4  1  0  0  0  0
  3  6  1  0  0  0  0
  4 10  1  0  0  0  0
  5  6  1  0  0  0  0
  5 10  1  0  0  0  0
  6 13  1  0  0  0  0
  7 10  1  0  0  0  0
  8 13  1  0  0  0  0
  9 13  1  0  0  0  0
 11 12  1  0  0  0  0
  2 15  1  0  0  0  0
  2 16  1  0  0  0  0
  3 17  1  0  0  0  0
  3 18  1  0  0  0  0
  4 19  1  0  0  0  0
  4 20  1  0  0  0  0
  5 21  1  0  0  0  0
  5 22  1  0  0  0  0
  6 23  1  0  0  0  0
  7 24  1  0  0  0  0
  7 25  1  0  0  0  0
  7 26  1  0  0  0  0
  8 27  1  0  0  0  0
  8 28  1  0  0  0  0
  8 29  1  0  0  0  0
  9 30  1  0  0  0  0
  9 31  1  0  0  0  0
 11 32  1  0  0  0  0
 11 33  1  0  0  0  0
 12 34  1  0  0  0  0
M  END
> <FRED Chemgauss4 score>
-7.794514

$$$$
C87362366	P136701184
  -OEChem-05182014473D

 34 34  0     1  0  0  0  0  0999 V2000
  122.9410  106.6840  105.9473 C   0  0  0  0  0  0  0  0  0  0  0  0
  124.7673  105.8520  108.0770 C   0  0  0  0  0  0  0  0  0  0  0  0
  125.2409  106.8711  107.0601 C   0  0  0  0  0  0  0  0  0  0  0  0
  123.8776  104.8383  107.3832 C   0  0  0  0  0  0  0  0  0  0  0  0
  124.0361  107.6015  106.4909 C   0  0  1  0  0  0  0  0  0  0  0  0
  121.8901  104.1652  104.7005 C   0  0  0  0  0  0  0  0  0  0  0  0
  119.2496  104.1320  106.5216 C   0  0  0  0  0  0  0  0  0  0  0  0
  120.3692  105.1721  106.4388 C   0  0  0  0  0  0  0  0  0  0  0  0
  117.8908  104.7875  106.7280 C   0  0  0  0  0  0  0  0  0  0  0  0
  121.7425  104.5394  106.1718 C   0  0  2  0  0  0  0  0  0  0  0  0
  122.8243  105.4339  106.5616 N   0  0  0  0  0  0  0  0  0  0  0  0
  124.4350  108.4976  105.4340 N   0  0  0  0  0  0  0  0  0  0  0  0
  122.1532  107.0964  105.0908 O   0  0  0  0  0  0  0  0  0  0  0  0
  117.6215  105.6431  105.6261 O   0  0  0  0  0  0  0  0  0  0  0  0
  125.6218  105.3457  108.5389 H   0  0  0  0  0  0  0  0  0  0  0  0
  124.2124  106.3535  108.8793 H   0  0  0  0  0  0  0  0  0  0  0  0
  125.9259  107.5808  107.5393 H   0  0  0  0  0  0  0  0  0  0  0  0
  125.8046  106.3628  106.2668 H   0  0  0  0  0  0  0  0  0  0  0  0
  124.4767  104.2025  106.7202 H   0  0  0  0  0  0  0  0  0  0  0  0
  123.4106  104.1923  108.1352 H   0  0  0  0  0  0  0  0  0  0  0  0
  123.5606  108.1918  107.2927 H   0  0  0  0  0  0  0  0  0  0  0  0
  121.7861  105.0465  104.0592 H   0  0  0  0  0  0  0  0  0  0  0  0
  121.1236  103.4402  104.4053 H   0  0  0  0  0  0  0  0  0  0  0  0
  122.8670  103.7102  104.5022 H   0  0  0  0  0  0  0  0  0  0  0  0
  119.4351  103.4272  107.3412 H   0  0  0  0  0  0  0  0  0  0  0  0
  119.2251  103.5281  105.6058 H   0  0  0  0  0  0  0  0  0  0  0  0
  120.3983  105.7482  107.3727 H   0  0  0  0  0  0  0  0  0  0  0  0
  120.1354  105.8794  105.6330 H   0  0  0  0  0  0  0  0  0  0  0  0
  117.0987  104.0342  106.7856 H   0  0  0  0  0  0  0  0  0  0  0  0
  117.8807  105.3864  107.6441 H   0  0  0  0  0  0  0  0  0  0  0  0
  121.8525  103.6333  106.7787 H   0  0  0  0  0  0  0  0  0  0  0  0
  125.3047  108.9727  105.5290 H   0  0  0  0  0  0  0  0  0  0  0  0
  123.7487  108.7609  104.7623 H   0  0  0  0  0  0  0  0  0  0  0  0
  116.7519  106.0437  105.7879 H   0  0  0  0  0  0  0  0  0  0  0  0
  1  5  1  0  0  0  0
  1 11  1  0  0  0  0
  1 13  2  0  0  0  0
  2  3  1  0  0  0  0
  2  4  1  0  0  0  0
  3  5  1  0  0  0  0
  4 11  1  0  0  0  0
  5 12  1  0  0  0  0
  6 10  1  0  0  0  0
  7  8  1  0  0  0  0
  7  9  1  0  0  0  0
  8 10  1  0  0  0  0
  9 14  1  0  0  0  0
 10 11  1  0  0  0  0
  2 15  1  0  0  0  0
  2 16  1  0  0  0  0
  3 17  1  0  0  0  0
  3 18  1  0  0  0  0
  4 19  1  0  0  0  0
  4 20  1  0  0  0  0
  5 21  1  0  0  0  0
  6 22  1  0  0  0  0
  6 23  1  0  0  0  0
  6 24  1  0  0  0  0
  7 25  1  0  0  0  0
  7 26  1  0  0  0  0
  8 27  1  0  0  0  0
  8 28  1  0  0  0  0
  9 29  1  0  0  0  0
  9 30  1  0  0  0  0
 10 31  1  0  0  0  0
 12 32  1  0  0  0  0
 12 33  1  0  0  0  0
 14 34  1  0  0  0  0
M  END
> <FRED Chemgauss4 score>
-7.793235

$$$$
C37269428	P55419407
  -OEChem-05182014473D

 22 21  0     0  0  0  0  0  0999 V2000
  124.9573  107.1239  105.9236 C   0  0  0  0  0  0  0  0  0  0  0  0
  123.5900  106.5442  105.7466 C   0  0  0  0  0  0  0  0  0  0  0  0
  124.3392  104.9445  108.5086 C   0  0  0  0  0  0  0  0  0  0  0  0
  122.0832  104.6142  106.2014 C   0  0  0  0  0  0  0  0  0  0  0  0
  124.4048  104.5758  107.0444 C   0  0  0  0  0  0  0  0  0  0  0  0
  125.2895  104.2847  109.2580 N   0  0  0  0  0  0  0  0  0  0  0  0
  126.2494  108.5296  107.3265 N   0  0  0  0  0  0  0  0  0  0  0  0
  125.0517  107.9056  107.0492 N   0  0  0  0  0  0  0  0  0  0  0  0
  123.3665  105.2918  106.3092 N   0  0  0  0  0  0  0  0  0  0  0  0
  125.8003  106.8719  105.0773 O   0  0  0  0  0  0  0  0  0  0  0  0
  122.7997  107.2337  105.1130 O   0  0  0  0  0  0  0  0  0  0  0  0
  123.5595  105.7719  108.9727 O   0  0  0  0  0  0  0  0  0  0  0  0
  122.0609  103.9927  105.3024 H   0  0  0  0  0  0  0  0  0  0  0  0
  121.2730  105.3461  106.1435 H   0  0  0  0  0  0  0  0  0  0  0  0
  121.9179  103.9766  107.0741 H   0  0  0  0  0  0  0  0  0  0  0  0
  124.2413  103.5039  106.9040 H   0  0  0  0  0  0  0  0  0  0  0  0
  125.3793  104.8609  106.6388 H   0  0  0  0  0  0  0  0  0  0  0  0
  125.9368  103.6350  108.8240 H   0  0  0  0  0  0  0  0  0  0  0  0
  125.3819  104.4196  110.2598 H   0  0  0  0  0  0  0  0  0  0  0  0
  126.3386  108.5616  108.3412 H   0  0  0  0  0  0  0  0  0  0  0  0
  126.9890  107.9097  106.9987 H   0  0  0  0  0  0  0  0  0  0  0  0
  124.2537  108.0218  107.6658 H   0  0  0  0  0  0  0  0  0  0  0  0
  1  2  1  0  0  0  0
  1  8  1  0  0  0  0
  1 10  2  0  0  0  0
  2  9  1  0  0  0  0
  2 11  2  0  0  0  0
  3  5  1  0  0  0  0
  3  6  1  0  0  0  0
  3 12  2  0  0  0  0
  4  9  1  0  0  0  0
  5  9  1  0  0  0  0
  7  8  1  0  0  0  0
  4 13  1  0  0  0  0
  4 14  1  0  0  0  0
  4 15  1  0  0  0  0
  5 16  1  0  0  0  0
  5 17  1  0  0  0  0
  6 18  1  0  0  0  0
  6 19  1  0  0  0  0
  7 20  1  0  0  0  0
  7 21  1  0  0  0  0
  8 22  1  0  0  0  0
M  END
> <FRED Chemgauss4 score>
-7.788126

$$$$
C39113384	P151023224
  -OEChem-05182014473D

 15 16  0     0  0  0  0  0  0999 V2000
  124.6925  105.7055  109.7892 C   0  0  0  0  0  0  0  0  0  0  0  0
  124.4852  106.2431  108.5491 C   0  0  0  0  0  0  0  0  0  0  0  0
  123.5750  105.4002  107.9074 C   0  0  0  0  0  0  0  0  0  0  0  0
  124.6288  107.6974  106.6666 C   0  0  0  0  0  0  0  0  0  0  0  0
  123.6327  106.7861  105.9488 C   0  0  0  0  0  0  0  0  0  0  0  0
  123.2086  104.3742  108.6791 N   0  0  0  0  0  0  0  0  0  0  0  0
  123.9044  104.5867  109.8168 N   0  0  0  0  0  0  0  0  0  0  0  0
  125.0059  107.3636  107.9579 N   0  0  0  0  0  0  0  0  0  0  0  0
  123.1566  105.6718  106.6237 N   0  0  0  0  0  0  0  0  0  0  0  0
  125.0391  108.6767  106.0541 O   0  0  0  0  0  0  0  0  0  0  0  0
  123.3098  107.0953  104.8073 O   0  0  0  0  0  0  0  0  0  0  0  0
  125.3027  105.9956  110.6324 H   0  0  0  0  0  0  0  0  0  0  0  0
  123.7933  103.9262  110.5758 H   0  0  0  0  0  0  0  0  0  0  0  0
  125.6649  107.9469  108.4632 H   0  0  0  0  0  0  0  0  0  0  0  0
  122.4947  105.0389  106.1870 H   0  0  0  0  0  0  0  0  0  0  0  0
  1  2  2  0  0  0  0
  1  7  1  0  0  0  0
  2  3  1  0  0  0  0
  2  8  1  0  0  0  0
  3  6  2  0  0  0  0
  3  9  1  0  0  0  0
  4  5  1  0  0  0  0
  4  8  1  0  0  0  0
  4 10  2  0  0  0  0
  5  9  1  0  0  0  0
  5 11  2  0  0  0  0
  6  7  1  0  0  0  0
  1 12  1  0  0  0  0
  7 13  1  0  0  0  0
  8 14  1  0  0  0  0
  9 15  1  0  0  0  0
M  END
> <FRED Chemgauss4 score>
-7.785948

$$$$
C61808721	P94689477
  -OEChem-05182014473D

 33 33  0     1  0  0  0  0  0999 V2000
  122.7490  106.0920  106.0018 C   0  0  0  0  0  0  0  0  0  0  0  0
  125.4498  107.9285  106.3340 C   0  0  0  0  0  0  0  0  0  0  0  0
  125.4759  104.7212  107.2186 C   0  0  0  0  0  0  0  0  0  0  0  0
  119.1348  104.1035  106.4437 C   0  0  0  0  0  0  0  0  0  0  0  0
  120.9468  105.2647  107.4993 C   0  0  0  0  0  0  0  0  0  0  0  0
  120.0349  103.8302  105.2436 C   0  0  0  0  0  0  0  0  0  0  0  0
  121.8131  104.9632  106.2810 C   0  0  1  0  0  0  0  0  0  0  0  0
  124.2299  107.7104  107.1992 C   0  0  0  0  0  0  0  0  0  0  0  0
  124.2496  105.3338  107.8550 C   0  0  0  0  0  0  0  0  0  0  0  0
  119.9267  104.2253  107.6722 N   0  0  0  0  0  0  0  0  0  0  0  0
  126.3400  108.8169  106.8981 N   0  0  0  0  0  0  0  0  0  0  0  0
  125.3391  103.3645  107.0172 N   0  0  0  0  0  0  0  0  0  0  0  0
  123.7051  106.3687  106.9798 N   0  0  0  0  0  0  0  0  0  0  0  0
  122.6396  106.7169  104.9435 O   0  0  0  0  0  0  0  0  0  0  0  0
  125.6492  107.3465  105.2712 O   0  0  0  0  0  0  0  0  0  0  0  0
  126.4645  105.3645  106.8767 O   0  0  0  0  0  0  0  0  0  0  0  0
  121.0090  104.8670  105.1071 O   0  0  0  0  0  0  0  0  0  0  0  0
  118.5698  105.0300  106.2846 H   0  0  0  0  0  0  0  0  0  0  0  0
  118.4124  103.2889  106.5577 H   0  0  0  0  0  0  0  0  0  0  0  0
  121.5693  105.3156  108.3996 H   0  0  0  0  0  0  0  0  0  0  0  0
  120.4532  106.2398  107.3951 H   0  0  0  0  0  0  0  0  0  0  0  0
  120.5432  102.8624  105.3321 H   0  0  0  0  0  0  0  0  0  0  0  0
  119.4390  103.8099  104.3257 H   0  0  0  0  0  0  0  0  0  0  0  0
  122.4002  104.0459  106.4060 H   0  0  0  0  0  0  0  0  0  0  0  0
  123.4422  108.4270  106.9512 H   0  0  0  0  0  0  0  0  0  0  0  0
  124.5063  107.8091  108.2524 H   0  0  0  0  0  0  0  0  0  0  0  0
  124.4974  105.7971  108.8139 H   0  0  0  0  0  0  0  0  0  0  0  0
  123.4882  104.5624  107.9989 H   0  0  0  0  0  0  0  0  0  0  0  0
  119.3145  104.4752  108.4481 H   0  0  0  0  0  0  0  0  0  0  0  0
  126.1484  109.2471  107.7968 H   0  0  0  0  0  0  0  0  0  0  0  0
  127.2120  109.0735  106.4465 H   0  0  0  0  0  0  0  0  0  0  0  0
  124.4881  102.8810  107.2843 H   0  0  0  0  0  0  0  0  0  0  0  0
  126.0717  102.8004  106.5983 H   0  0  0  0  0  0  0  0  0  0  0  0
  1  7  1  0  0  0  0
  1 13  1  0  0  0  0
  1 14  2  0  0  0  0
  2  8  1  0  0  0  0
  2 11  1  0  0  0  0
  2 15  2  0  0  0  0
  3  9  1  0  0  0  0
  3 12  1  0  0  0  0
  3 16  2  0  0  0  0
  4  6  1  0  0  0  0
  4 10  1  0  0  0  0
  5  7  1  0  0  0  0
  5 10  1  0  0  0  0
  6 17  1  0  0  0  0
  7 17  1  0  0  0  0
  8 13  1  0  0  0  0
  9 13  1  0  0  0  0
  4 18  1  0  0  0  0
  4 19  1  0  0  0  0
  5 20  1  0  0  0  0
  5 21  1  0  0  0  0
  6 22  1  0  0  0  0
  6 23  1  0  0  0  0
  7 24  1  0  0  0  0
  8 25  1  0  0  0  0
  8 26  1  0  0  0  0
  9 27  1  0  0  0  0
  9 28  1  0  0  0  0
 10 29  1  0  0  0  0
 11 30  1  0  0  0  0
 11 31  1  0  0  0  0
 12 32  1  0  0  0  0
 12 33  1  0  0  0  0
M  END
> <FRED Chemgauss4 score>
-7.757913

$$$$
C26511060	P39122575
  -OEChem-05182014473D

 19 19  0     0  0  0  0  0  0999 V2000
  125.2968  106.0839  106.7927 C   0  0  0  0  0  0  0  0  0  0  0  0
  122.8742  106.3245  105.6601 C   0  0  0  0  0  0  0  0  0  0  0  0
  124.2943  105.1580  106.9978 C   0  0  0  0  0  0  0  0  0  0  0  0
  124.9731  107.1414  105.9674 C   0  0  0  0  0  0  0  0  0  0  0  0
  124.5529  103.9696  107.8781 C   0  0  0  0  0  0  0  0  0  0  0  0
  124.2135  104.2044  109.3465 C   0  0  0  0  0  0  0  0  0  0  0  0
  123.0668  105.2476  106.4453 N   0  0  0  0  0  0  0  0  0  0  0  0
  123.7671  107.2936  105.3820 N   0  0  0  0  0  0  0  0  0  0  0  0
  122.7913  104.6020  109.4911 N   0  3  0  0  0  0  0  0  0  0  0  0
  125.8203  108.0608  105.7028 O   0  5  0  0  0  0  0  0  0  0  0  0
  126.2717  105.9735  107.2560 H   0  0  0  0  0  0  0  0  0  0  0  0
  121.8970  106.4215  105.2030 H   0  0  0  0  0  0  0  0  0  0  0  0
  123.9490  103.1277  107.5140 H   0  0  0  0  0  0  0  0  0  0  0  0
  125.5976  103.6458  107.7843 H   0  0  0  0  0  0  0  0  0  0  0  0
  124.8061  105.0284  109.7548 H   0  0  0  0  0  0  0  0  0  0  0  0
  124.3592  103.3128  109.9638 H   0  0  0  0  0  0  0  0  0  0  0  0
  122.3667  104.1541  110.3101 H   0  0  0  0  0  0  0  0  0  0  0  0
  122.2489  104.3288  108.6645 H   0  0  0  0  0  0  0  0  0  0  0  0
  122.7043  105.6175  109.6052 H   0  0  0  0  0  0  0  0  0  0  0  0
  1  3  1  0  0  0  0
  1  4  2  0  0  0  0
  2  7  1  0  0  0  0
  2  8  2  0  0  0  0
  3  5  1  0  0  0  0
  3  7  2  0  0  0  0
  4  8  1  0  0  0  0
  4 10  1  0  0  0  0
  5  6  1  0  0  0  0
  6  9  1  0  0  0  0
  1 11  1  0  0  0  0
  2 12  1  0  0  0  0
  5 13  1  0  0  0  0
  5 14  1  0  0  0  0
  6 15  1  0  0  0  0
  6 16  1  0  0  0  0
  9 17  1  0  0  0  0
  9 18  1  0  0  0  0
  9 19  1  0  0  0  0
M  CHG  2   9   1  10  -1
M  END
> <FRED Chemgauss4 score>
-7.753670

$$$$
C42040419	P63626314
  -OEChem-05182014473D

 18 18  0     1  0  0  0  0  0999 V2000
  124.4239  106.7323  107.7101 C   0  0  0  0  0  0  0  0  0  0  0  0
  124.1741  104.9091  108.7901 C   0  0  0  0  0  0  0  0  0  0  0  0
  124.7535  107.3268  105.2975 C   0  0  0  0  0  0  0  0  0  0  0  0
  124.3070  107.8015  106.6718 C   0  0  1  0  0  0  0  0  0  0  0  0
  123.8170  105.5728  107.6178 N   0  0  0  0  0  0  0  0  0  0  0  0
  125.1489  106.8961  108.8525 N   0  0  0  0  0  0  0  0  0  0  0  0
  124.9921  105.7390  109.5418 N   0  0  0  0  0  0  0  0  0  0  0  0
  122.9284  108.2037  106.6957 N   0  0  0  0  0  0  0  0  0  0  0  0
  123.8232  103.7794  109.1075 O   0  0  0  0  0  0  0  0  0  0  0  0
  125.0719  108.4328  104.4608 O   0  0  0  0  0  0  0  0  0  0  0  0
  125.6433  106.6935  105.3786 H   0  0  0  0  0  0  0  0  0  0  0  0
  123.9554  106.7551  104.8122 H   0  0  0  0  0  0  0  0  0  0  0  0
  124.9072  108.6590  106.9913 H   0  0  0  0  0  0  0  0  0  0  0  0
  125.6798  107.6860  109.1913 H   0  0  0  0  0  0  0  0  0  0  0  0
  125.3983  105.5207  110.4416 H   0  0  0  0  0  0  0  0  0  0  0  0
  122.5460  108.7006  105.9058 H   0  0  0  0  0  0  0  0  0  0  0  0
  122.4200  108.1702  107.5661 H   0  0  0  0  0  0  0  0  0  0  0  0
  125.3472  108.0652  103.6060 H   0  0  0  0  0  0  0  0  0  0  0  0
  1  4  1  0  0  0  0
  1  5  2  0  0  0  0
  1  6  1  0  0  0  0
  2  5  1  0  0  0  0
  2  7  1  0  0  0  0
  2  9  2  0  0  0  0
  3  4  1  0  0  0  0
  3 10  1  0  0  0  0
  4  8  1  0  0  0  0
  6  7  1  0  0  0  0
  3 11  1  0  0  0  0
  3 12  1  0  0  0  0
  4 13  1  0  0  0  0
  6 14  1  0  0  0  0
  7 15  1  0  0  0  0
  8 16  1  0  0  0  0
  8 17  1  0  0  0  0
 10 18  1  0  0  0  0
M  END
> <FRED Chemgauss4 score>
-7.753052

$$$$
C49587665	P74065899
  -OEChem-05182014473D

 41 41  0     1  0  0  0  0  0999 V2000
  119.6279  105.2244  102.7763 C   0  0  0  0  0  0  0  0  0  0  0  0
  120.0844  105.5092  101.7022 C   0  0  0  0  0  0  0  0  0  0  0  0
  117.1569  104.6964  105.5011 C   0  0  0  0  0  0  0  0  0  0  0  0
  117.9748  104.2308  106.5306 C   0  0  0  0  0  0  0  0  0  0  0  0
  117.7112  105.0226  104.2633 C   0  0  0  0  0  0  0  0  0  0  0  0
  119.3469  104.0913  106.3223 C   0  0  0  0  0  0  0  0  0  0  0  0
  119.0834  104.8831  104.0550 C   0  0  0  0  0  0  0  0  0  0  0  0
  119.9013  104.4175  105.0846 C   0  0  0  0  0  0  0  0  0  0  0  0
  125.3992  106.5119  107.9096 C   0  0  0  0  0  0  0  0  0  0  0  0
  124.1574  104.5882  108.9599 C   0  0  0  0  0  0  0  0  0  0  0  0
  124.7206  104.6913  105.9524 C   0  0  0  0  0  0  0  0  0  0  0  0
  120.6425  105.8569  100.3963 C   0  0  0  0  0  0  0  0  0  0  0  0
  121.3820  104.2545  104.8972 C   0  0  0  0  0  0  0  0  0  0  0  0
  124.0614  105.7989  108.0431 C   0  0  0  0  0  0  0  0  0  0  0  0
  119.8418  105.3189   99.3324 N   0  0  0  0  0  0  0  0  0  0  0  0
  122.0372  105.5284  104.5425 N   0  0  0  0  0  0  0  0  0  0  0  0
  123.6119  105.3497  106.6972 N   0  0  1  0  0  0  0  0  0  0  0  0
  123.5567  107.4855  105.2308 O   0  0  0  0  0  0  0  0  0  0  0  0
  121.5558  106.9327  106.6467 O   0  0  0  0  0  0  0  0  0  0  0  0
  122.6627  106.5006  105.8122 S   0  0  0  0  0  0  0  0  0  0  0  0
  116.0885  104.8050  105.6635 H   0  0  0  0  0  0  0  0  0  0  0  0
  117.5431  103.9769  107.4943 H   0  0  0  0  0  0  0  0  0  0  0  0
  117.0594  105.3842  103.4714 H   0  0  0  0  0  0  0  0  0  0  0  0
  119.9752  103.7276  107.1312 H   0  0  0  0  0  0  0  0  0  0  0  0
  126.1649  105.8341  107.5186 H   0  0  0  0  0  0  0  0  0  0  0  0
  125.3282  107.3724  107.2348 H   0  0  0  0  0  0  0  0  0  0  0  0
  125.7400  106.8838  108.8821 H   0  0  0  0  0  0  0  0  0  0  0  0
  124.9024  103.8768  108.5869 H   0  0  0  0  0  0  0  0  0  0  0  0
  123.1952  104.0694  109.0228 H   0  0  0  0  0  0  0  0  0  0  0  0
  124.4566  104.8764  109.9739 H   0  0  0  0  0  0  0  0  0  0  0  0
  124.3723  104.3687  104.9678 H   0  0  0  0  0  0  0  0  0  0  0  0
  125.0789  103.8172  106.5028 H   0  0  0  0  0  0  0  0  0  0  0  0
  125.5531  105.3877  105.8204 H   0  0  0  0  0  0  0  0  0  0  0  0
  121.6536  105.4547  100.2841 H   0  0  0  0  0  0  0  0  0  0  0  0
  120.6845  106.9413  100.2599 H   0  0  0  0  0  0  0  0  0  0  0  0
  121.8483  103.8795  105.8148 H   0  0  0  0  0  0  0  0  0  0  0  0
  121.6006  103.5331  104.1030 H   0  0  0  0  0  0  0  0  0  0  0  0
  123.3118  106.4949  108.4353 H   0  0  0  0  0  0  0  0  0  0  0  0
  119.4339  104.4024   99.4369 H   0  0  0  0  0  0  0  0  0  0  0  0
  119.8627  105.7623   98.4267 H   0  0  0  0  0  0  0  0  0  0  0  0
  122.6038  105.4755  103.6860 H   0  0  0  0  0  0  0  0  0  0  0  0
  1  2  3  0  0  0  0
  1  7  1  0  0  0  0
  2 12  1  0  0  0  0
  3  4  1  0  0  0  0
  3  5  2  0  0  0  0
  4  6  2  0  0  0  0
  5  7  1  0  0  0  0
  6  8  1  0  0  0  0
  7  8  2  0  0  0  0
  8 13  1  0  0  0  0
  9 14  1  0  0  0  0
 10 14  1  0  0  0  0
 11 17  1  0  0  0  0
 12 15  1  0  0  0  0
 13 16  1  0  0  0  0
 14 17  1  0  0  0  0
 16 20  1  0  0  0  0
 17 20  1  0  0  0  0
 18 20  2  0  0  0  0
 19 20  2  0  0  0  0
  3 21  1  0  0  0  0
  4 22  1  0  0  0  0
  5 23  1  0  0  0  0
  6 24  1  0  0  0  0
  9 25  1  0  0  0  0
  9 26  1  0  0  0  0
  9 27  1  0  0  0  0
 10 28  1  0  0  0  0
 10 29  1  0  0  0  0
 10 30  1  0  0  0  0
 11 31  1  0  0  0  0
 11 32  1  0  0  0  0
 11 33  1  0  0  0  0
 12 34  1  0  0  0  0
 12 35  1  0  0  0  0
 13 36  1  0  0  0  0
 13 37  1  0  0  0  0
 14 38  1  0  0  0  0
 15 39  1  0  0  0  0
 15 40  1  0  0  0  0
 16 41  1  0  0  0  0
M  END
> <FRED Chemgauss4 score>
-7.752341

$$$$
C82510254	P128945651
  -OEChem-05182014473D

 27 28  0     1  0  0  0  0  0999 V2000
  121.5115  105.9294  104.6316 C   0  0  0  0  0  0  0  0  0  0  0  0
  123.2336  106.6248  105.5844 C   0  0  0  0  0  0  0  0  0  0  0  0
  119.2490  104.5175  102.0934 C   0  0  0  0  0  0  0  0  0  0  0  0
  120.6265  105.0336  102.4284 C   0  0  0  0  0  0  0  0  0  0  0  0
  118.6660  104.2664  103.4668 C   0  0  0  0  0  0  0  0  0  0  0  0
  120.3525  105.8653  103.6729 C   0  0  1  0  0  0  0  0  0  0  0  0
  125.5288  106.4495  106.6384 C   0  0  0  0  0  0  0  0  0  0  0  0
  124.4250  107.3535  106.0488 C   0  0  1  0  0  0  0  0  0  0  0  0
  122.4146  106.9535  104.6125 N   0  0  0  0  0  0  0  0  0  0  0  0
  121.7202  104.9878  105.5543 N   0  0  0  0  0  0  0  0  0  0  0  0
  122.8274  105.4565  106.1498 N   0  0  0  0  0  0  0  0  0  0  0  0
  125.0365  108.1776  105.0094 N   0  0  0  0  0  0  0  0  0  0  0  0
  119.2284  105.2570  104.3398 O   0  0  0  0  0  0  0  0  0  0  0  0
  118.6753  105.2987  101.5811 H   0  0  0  0  0  0  0  0  0  0  0  0
  119.2553  103.6256  101.4614 H   0  0  0  0  0  0  0  0  0  0  0  0
  121.2916  104.1893  102.6508 H   0  0  0  0  0  0  0  0  0  0  0  0
  121.0810  105.6141  101.6199 H   0  0  0  0  0  0  0  0  0  0  0  0
  117.5750  104.3396  103.4807 H   0  0  0  0  0  0  0  0  0  0  0  0
  118.9575  103.2815  103.8470 H   0  0  0  0  0  0  0  0  0  0  0  0
  120.0606  106.8778  103.4149 H   0  0  0  0  0  0  0  0  0  0  0  0
  125.8400  105.7003  105.9023 H   0  0  0  0  0  0  0  0  0  0  0  0
  126.4143  107.0239  106.9331 H   0  0  0  0  0  0  0  0  0  0  0  0
  125.1769  105.9203  107.5311 H   0  0  0  0  0  0  0  0  0  0  0  0
  124.1644  108.0809  106.8476 H   0  0  0  0  0  0  0  0  0  0  0  0
  123.2359  104.9346  106.9163 H   0  0  0  0  0  0  0  0  0  0  0  0
  126.0028  108.4051  105.0996 H   0  0  0  0  0  0  0  0  0  0  0  0
  124.4342  108.6464  104.3681 H   0  0  0  0  0  0  0  0  0  0  0  0
  1  6  1  0  0  0  0
  1  9  1  0  0  0  0
  1 10  2  0  0  0  0
  2  8  1  0  0  0  0
  2  9  2  0  0  0  0
  2 11  1  0  0  0  0
  3  4  1  0  0  0  0
  3  5  1  0  0  0  0
  4  6  1  0  0  0  0
  5 13  1  0  0  0  0
  6 13  1  0  0  0  0
  7  8  1  0  0  0  0
  8 12  1  0  0  0  0
 10 11  1  0  0  0  0
  3 14  1  0  0  0  0
  3 15  1  0  0  0  0
  4 16  1  0  0  0  0
  4 17  1  0  0  0  0
  5 18  1  0  0  0  0
  5 19  1  0  0  0  0
  6 20  1  0  0  0  0
  7 21  1  0  0  0  0
  7 22  1  0  0  0  0
  7 23  1  0  0  0  0
  8 24  1  0  0  0  0
 11 25  1  0  0  0  0
 12 26  1  0  0  0  0
 12 27  1  0  0  0  0
M  END
> <FRED Chemgauss4 score>
-7.749799

$$$$
C49184176	P73460942
  -OEChem-05182014473D

 39 40  0     0  0  0  0  0  0999 V2000
  117.3676  103.7255  105.3851 C   0  0  0  0  0  0  0  0  0  0  0  0
  116.5858  103.8128  104.2543 C   0  0  0  0  0  0  0  0  0  0  0  0
  117.6143  105.9702  104.8350 C   0  0  0  0  0  0  0  0  0  0  0  0
  117.9634  104.9753  105.7216 C   0  0  0  0  0  0  0  0  0  0  0  0
  122.4750  105.9352  107.4875 C   0  0  0  0  0  0  0  0  0  0  0  0
  123.4030  105.3633  108.2948 C   0  0  0  0  0  0  0  0  0  0  0  0
  122.9071  106.7215  106.2957 C   0  0  0  0  0  0  0  0  0  0  0  0
  125.2503  106.2381  106.9054 C   0  0  0  0  0  0  0  0  0  0  0  0
  126.2073  101.7889  106.9535 C   0  0  0  0  0  0  0  0  0  0  0  0
  118.8706  105.1823  106.9096 C   0  0  0  0  0  0  0  0  0  0  0  0
  125.7451  104.8814  108.9010 C   0  0  0  0  0  0  0  0  0  0  0  0
  120.2536  105.6983  106.5199 C   0  0  0  0  0  0  0  0  0  0  0  0
  125.7976  103.3901  108.6242 C   0  0  0  0  0  0  0  0  0  0  0  0
  124.2682  106.8065  106.1064 N   0  0  0  0  0  0  0  0  0  0  0  0
  124.7722  105.5130  108.0072 N   0  0  0  0  0  0  0  0  0  0  0  0
  122.9830  104.6377  109.3929 N   0  0  0  0  0  0  0  0  0  0  0  0
  121.1175  105.8674  107.6529 N   0  0  0  0  0  0  0  0  0  0  0  0
  122.0918  107.2511  105.5431 O   0  0  0  0  0  0  0  0  0  0  0  0
  126.4437  106.3848  106.6290 O   0  0  0  0  0  0  0  0  0  0  0  0
  126.1511  103.1744  107.2639 O   0  0  0  0  0  0  0  0  0  0  0  0
  116.5722  105.3965  103.6032 S   0  0  0  0  0  0  0  0  0  0  0  0
  117.5033  102.8065  105.9412 H   0  0  0  0  0  0  0  0  0  0  0  0
  116.0225  103.0222  103.7789 H   0  0  0  0  0  0  0  0  0  0  0  0
  117.9200  107.0073  104.8473 H   0  0  0  0  0  0  0  0  0  0  0  0
  126.4809  101.6609  105.9033 H   0  0  0  0  0  0  0  0  0  0  0  0
  125.2334  101.3317  107.1457 H   0  0  0  0  0  0  0  0  0  0  0  0
  126.9617  101.3135  107.5847 H   0  0  0  0  0  0  0  0  0  0  0  0
  118.9759  104.2262  107.4378 H   0  0  0  0  0  0  0  0  0  0  0  0
  118.3978  105.8703  107.6221 H   0  0  0  0  0  0  0  0  0  0  0  0
  125.4434  105.0830  109.9337 H   0  0  0  0  0  0  0  0  0  0  0  0
  126.7228  105.3374  108.7179 H   0  0  0  0  0  0  0  0  0  0  0  0
  120.7444  104.9826  105.8528 H   0  0  0  0  0  0  0  0  0  0  0  0
  120.1945  106.6618  106.0030 H   0  0  0  0  0  0  0  0  0  0  0  0
  124.8130  102.9428  108.7924 H   0  0  0  0  0  0  0  0  0  0  0  0
  126.5316  102.8877  109.2626 H   0  0  0  0  0  0  0  0  0  0  0  0
  124.5866  107.3374  105.3006 H   0  0  0  0  0  0  0  0  0  0  0  0
  122.0098  104.5626  109.5496 H   0  0  0  0  0  0  0  0  0  0  0  0
  123.6764  104.2297  109.9673 H   0  0  0  0  0  0  0  0  0  0  0  0
  120.7794  105.9399  108.5805 H   0  0  0  0  0  0  0  0  0  0  0  0
  1  2  2  0  0  0  0
  1  4  1  0  0  0  0
  2 21  1  0  0  0  0
  3  4  2  0  0  0  0
  3 21  1  0  0  0  0
  4 10  1  0  0  0  0
  5  6  2  0  0  0  0
  5  7  1  0  0  0  0
  5 17  1  0  0  0  0
  6 15  1  0  0  0  0
  6 16  1  0  0  0  0
  7 14  1  0  0  0  0
  7 18  2  0  0  0  0
  8 14  1  0  0  0  0
  8 15  1  0  0  0  0
  8 19  2  0  0  0  0
  9 20  1  0  0  0  0
 10 12  1  0  0  0  0
 11 13  1  0  0  0  0
 11 15  1  0  0  0  0
 12 17  1  0  0  0  0
 13 20  1  0  0  0  0
  1 22  1  0  0  0  0
  2 23  1  0  0  0  0
  3 24  1  0  0  0  0
  9 25  1  0  0  0  0
  9 26  1  0  0  0  0
  9 27  1  0  0  0  0
 10 28  1  0  0  0  0
 10 29  1  0  0  0  0
 11 30  1  0  0  0  0
 11 31  1  0  0  0  0
 12 32  1  0  0  0  0
 12 33  1  0  0  0  0
 13 34  1  0  0  0  0
 13 35  1  0  0  0  0
 14 36  1  0  0  0  0
 16 37  1  0  0  0  0
 16 38  1  0  0  0  0
 17 39  1  0  0  0  0
M  END
> <FRED Chemgauss4 score>
-7.749094

$$$$
C97236316	P153968216
  -OEChem-05182014473D

 38 40  0     1  0  0  0  0  0999 V2000
  125.0087  105.5090  107.8780 C   0  0  0  0  0  0  0  0  0  0  0  0
  119.8258  105.2011  103.1508 C   0  0  0  0  0  0  0  0  0  0  0  0
  126.4002  105.5702  107.6738 C   0  0  0  0  0  0  0  0  0  0  0  0
  119.6378  104.5543  101.9488 C   0  0  0  0  0  0  0  0  0  0  0  0
  118.5889  105.5573  103.7736 C   0  0  0  0  0  0  0  0  0  0  0  0
  124.4779  106.2492  106.8499 C   0  0  0  0  0  0  0  0  0  0  0  0
  117.5100  105.1707  102.9984 C   0  0  0  0  0  0  0  0  0  0  0  0
  123.0568  106.5477  106.5360 C   0  0  0  0  0  0  0  0  0  0  0  0
  116.0719  105.4337  103.3224 C   0  0  0  0  0  0  0  0  0  0  0  0
  115.9084  105.8554  104.7907 C   0  0  0  0  0  0  0  0  0  0  0  0
  116.9984  106.8513  105.2217 C   0  0  0  0  0  0  0  0  0  0  0  0
  118.4194  106.2591  105.0919 C   0  0  1  0  0  0  0  0  0  0  0  0
  120.6983  106.1850  107.2155 C   0  0  0  0  0  0  0  0  0  0  0  0
  120.0883  105.0882  106.3589 C   0  0  0  0  0  0  0  0  0  0  0  0
  126.7326  106.2921  106.6003 N   0  0  0  0  0  0  0  0  0  0  0  0
  125.5423  106.6912  106.1206 N   0  0  0  0  0  0  0  0  0  0  0  0
  122.1133  106.0056  107.4002 N   0  0  0  0  0  0  0  0  0  0  0  0
  118.6618  105.2844  106.1574 N   0  0  0  0  0  0  0  0  0  0  0  0
  122.7902  107.2224  105.5450 O   0  0  0  0  0  0  0  0  0  0  0  0
  117.9791  104.3831  101.5631 S   0  0  0  0  0  0  0  0  0  0  0  0
  124.4700  104.9994  108.6636 H   0  0  0  0  0  0  0  0  0  0  0  0
  120.8043  105.4045  103.5670 H   0  0  0  0  0  0  0  0  0  0  0  0
  127.1856  105.1183  108.2625 H   0  0  0  0  0  0  0  0  0  0  0  0
  120.3963  104.1764  101.2779 H   0  0  0  0  0  0  0  0  0  0  0  0
  115.7072  106.2401  102.6741 H   0  0  0  0  0  0  0  0  0  0  0  0
  115.4558  104.5485  103.1277 H   0  0  0  0  0  0  0  0  0  0  0  0
  114.9188  106.3060  104.9295 H   0  0  0  0  0  0  0  0  0  0  0  0
  115.9401  104.9685  105.4348 H   0  0  0  0  0  0  0  0  0  0  0  0
  116.9238  107.7478  104.5915 H   0  0  0  0  0  0  0  0  0  0  0  0
  116.8147  107.1797  106.2519 H   0  0  0  0  0  0  0  0  0  0  0  0
  119.1477  107.0604  105.1839 H   0  0  0  0  0  0  0  0  0  0  0  0
  120.2402  106.2170  108.2091 H   0  0  0  0  0  0  0  0  0  0  0  0
  120.5580  107.1586  106.7356 H   0  0  0  0  0  0  0  0  0  0  0  0
  120.5541  105.0777  105.3687 H   0  0  0  0  0  0  0  0  0  0  0  0
  120.2236  104.1030  106.8166 H   0  0  0  0  0  0  0  0  0  0  0  0
  125.5309  107.2674  105.2880 H   0  0  0  0  0  0  0  0  0  0  0  0
  122.4135  105.4042  108.1647 H   0  0  0  0  0  0  0  0  0  0  0  0
  118.2404  105.6270  107.0175 H   0  0  0  0  0  0  0  0  0  0  0  0
  1  3  1  0  0  0  0
  1  6  2  0  0  0  0
  2  4  2  0  0  0  0
  2  5  1  0  0  0  0
  3 15  2  0  0  0  0
  4 20  1  0  0  0  0
  5  7  2  0  0  0  0
  5 12  1  0  0  0  0
  6  8  1  0  0  0  0
  6 16  1  0  0  0  0
  7  9  1  0  0  0  0
  7 20  1  0  0  0  0
  8 17  1  0  0  0  0
  8 19  2  0  0  0  0
  9 10  1  0  0  0  0
 10 11  1  0  0  0  0
 11 12  1  0  0  0  0
 12 18  1  0  0  0  0
 13 14  1  0  0  0  0
 13 17  1  0  0  0  0
 14 18  1  0  0  0  0
 15 16  1  0  0  0  0
  1 21  1  0  0  0  0
  2 22  1  0  0  0  0
  3 23  1  0  0  0  0
  4 24  1  0  0  0  0
  9 25  1  0  0  0  0
  9 26  1  0  0  0  0
 10 27  1  0  0  0  0
 10 28  1  0  0  0  0
 11 29  1  0  0  0  0
 11 30  1  0  0  0  0
 12 31  1  0  0  0  0
 13 32  1  0  0  0  0
 13 33  1  0  0  0  0
 14 34  1  0  0  0  0
 14 35  1  0  0  0  0
 16 36  1  0  0  0  0
 17 37  1  0  0  0  0
 18 38  1  0  0  0  0
M  END
> <FRED Chemgauss4 score>
-7.748512

$$$$
C36227544	P53841356
  -OEChem-05182014473D

 40 40  0     1  0  0  0  0  0999 V2000
  120.5745  105.4969  106.7098 C   0  0  0  0  0  0  0  0  0  0  0  0
  117.9229  106.0717  104.3813 C   0  0  0  0  0  0  0  0  0  0  0  0
  118.4712  105.5124  103.0688 C   0  0  0  0  0  0  0  0  0  0  0  0
  118.3923  105.2431  105.5730 C   0  0  0  0  0  0  0  0  0  0  0  0
  120.4250  104.5550  104.3504 C   0  0  0  0  0  0  0  0  0  0  0  0
  120.0006  105.3759  103.1243 C   0  0  1  0  0  0  0  0  0  0  0  0
  126.0571  106.4618  106.6274 C   0  0  0  0  0  0  0  0  0  0  0  0
  120.5345  104.7472  101.8397 C   0  0  0  0  0  0  0  0  0  0  0  0
  123.0264  105.7410  107.0419 C   0  0  0  0  0  0  0  0  0  0  0  0
  123.4632  106.2087  105.6601 C   0  0  0  0  0  0  0  0  0  0  0  0
  121.8662  104.7612  106.9623 C   0  0  1  0  0  0  0  0  0  0  0  0
  119.8508  105.1198  105.5791 N   0  0  0  0  0  0  0  0  0  0  0  0
  121.6260  104.0656  108.1923 N   0  0  0  0  0  0  0  0  0  0  0  0
  120.2221  106.3818  107.4940 O   0  0  0  0  0  0  0  0  0  0  0  0
  125.2772  107.6243  104.4199 O   0  0  0  0  0  0  0  0  0  0  0  0
  124.3739  108.4615  106.6233 O   0  0  0  0  0  0  0  0  0  0  0  0
  121.9437  104.6540  101.9366 O   0  0  0  0  0  0  0  0  0  0  0  0
  124.7919  107.3660  105.7650 S   0  0  0  0  0  0  0  0  0  0  0  0
  118.2632  107.1079  104.5003 H   0  0  0  0  0  0  0  0  0  0  0  0
  116.8281  106.0914  104.3491 H   0  0  0  0  0  0  0  0  0  0  0  0
  118.0143  104.5338  102.8738 H   0  0  0  0  0  0  0  0  0  0  0  0
  118.1816  106.1715  102.2420 H   0  0  0  0  0  0  0  0  0  0  0  0
  118.0344  105.6972  106.5023 H   0  0  0  0  0  0  0  0  0  0  0  0
  117.9780  104.2292  105.5228 H   0  0  0  0  0  0  0  0  0  0  0  0
  120.0597  103.5233  104.2722 H   0  0  0  0  0  0  0  0  0  0  0  0
  121.5145  104.5043  104.4000 H   0  0  0  0  0  0  0  0  0  0  0  0
  120.4299  106.3827  103.2171 H   0  0  0  0  0  0  0  0  0  0  0  0
  126.9282  107.1094  106.7384 H   0  0  0  0  0  0  0  0  0  0  0  0
  125.6683  106.1729  107.6050 H   0  0  0  0  0  0  0  0  0  0  0  0
  126.3099  105.5780  106.0397 H   0  0  0  0  0  0  0  0  0  0  0  0
  120.2719  105.3700  100.9849 H   0  0  0  0  0  0  0  0  0  0  0  0
  120.1147  103.7498  101.7121 H   0  0  0  0  0  0  0  0  0  0  0  0
  123.8806  105.2877  107.5625 H   0  0  0  0  0  0  0  0  0  0  0  0
  122.7346  106.6117  107.6436 H   0  0  0  0  0  0  0  0  0  0  0  0
  122.6461  106.7114  105.1341 H   0  0  0  0  0  0  0  0  0  0  0  0
  123.8197  105.3765  105.0463 H   0  0  0  0  0  0  0  0  0  0  0  0
  121.9988  104.0274  106.1673 H   0  0  0  0  0  0  0  0  0  0  0  0
  122.4092  103.7185  108.7272 H   0  0  0  0  0  0  0  0  0  0  0  0
  120.6911  103.7516  108.4101 H   0  0  0  0  0  0  0  0  0  0  0  0
  122.2611  104.2520  101.1099 H   0  0  0  0  0  0  0  0  0  0  0  0
  1 11  1  0  0  0  0
  1 12  1  0  0  0  0
  1 14  2  0  0  0  0
  2  3  1  0  0  0  0
  2  4  1  0  0  0  0
  3  6  1  0  0  0  0
  4 12  1  0  0  0  0
  5  6  1  0  0  0  0
  5 12  1  0  0  0  0
  6  8  1  0  0  0  0
  7 18  1  0  0  0  0
  8 17  1  0  0  0  0
  9 10  1  0  0  0  0
  9 11  1  0  0  0  0
 10 18  1  0  0  0  0
 11 13  1  0  0  0  0
 15 18  2  0  0  0  0
 16 18  2  0  0  0  0
  2 19  1  0  0  0  0
  2 20  1  0  0  0  0
  3 21  1  0  0  0  0
  3 22  1  0  0  0  0
  4 23  1  0  0  0  0
  4 24  1  0  0  0  0
  5 25  1  0  0  0  0
  5 26  1  0  0  0  0
  6 27  1  0  0  0  0
  7 28  1  0  0  0  0
  7 29  1  0  0  0  0
  7 30  1  0  0  0  0
  8 31  1  0  0  0  0
  8 32  1  0  0  0  0
  9 33  1  0  0  0  0
  9 34  1  0  0  0  0
 10 35  1  0  0  0  0
 10 36  1  0  0  0  0
 11 37  1  0  0  0  0
 13 38  1  0  0  0  0
 13 39  1  0  0  0  0
 17 40  1  0  0  0  0
M  END
> <FRED Chemgauss4 score>
-7.738865

$$$$
C90654700	P141782913
  -OEChem-05182014473D

 44 47  0     1  0  0  0  0  0999 V2000
  117.9489  104.9106  103.5956 C   0  0  0  0  0  0  0  0  0  0  0  0
  117.8736  104.9074  102.2037 C   0  0  0  0  0  0  0  0  0  0  0  0
  120.1819  104.2097  102.0838 C   0  0  0  0  0  0  0  0  0  0  0  0
  120.2713  104.2178  103.4828 C   0  0  0  0  0  0  0  0  0  0  0  0
  119.1393  104.5524  104.2342 C   0  0  0  0  0  0  0  0  0  0  0  0
  118.9885  104.5532  101.4478 C   0  0  0  0  0  0  0  0  0  0  0  0
  126.0514  105.4258  108.1148 C   0  0  0  0  0  0  0  0  0  0  0  0
  125.9236  106.9129  106.5496 C   0  0  0  0  0  0  0  0  0  0  0  0
  121.9007  105.6113  105.8926 C   0  0  0  0  0  0  0  0  0  0  0  0
  121.5703  103.8533  104.1461 C   0  0  0  0  0  0  0  0  0  0  0  0
  126.1547  103.2214  109.4235 C   0  0  0  0  0  0  0  0  0  0  0  0
  124.7060  103.5824  109.2859 C   0  0  0  0  0  0  0  0  0  0  0  0
  120.1893  103.8796  106.2418 C   0  0  0  0  0  0  0  0  0  0  0  0
  125.7465  104.6642  109.3385 C   0  0  0  0  0  0  0  0  0  0  0  0
  121.5569  104.1511  105.6368 C   0  0  2  0  0  0  0  0  0  0  0  0
  124.1917  107.0854  108.4221 C   0  0  0  0  0  0  0  0  0  0  0  0
  122.9585  107.1478  107.5366 C   0  0  0  0  0  0  0  0  0  0  0  0
  127.0337  105.1005  107.3250 N   0  0  0  0  0  0  0  0  0  0  0  0
  126.9751  106.0245  106.3268 N   0  0  0  0  0  0  0  0  0  0  0  0
  125.3224  106.5171  107.7385 N   0  0  0  0  0  0  0  0  0  0  0  0
  122.5413  105.8359  107.0962 N   0  0  0  0  0  0  0  0  0  0  0  0
  121.6049  106.4570  105.0567 O   0  0  0  0  0  0  0  0  0  0  0  0
  119.1273  104.5957  105.6029 O   0  0  0  0  0  0  0  0  0  0  0  0
  118.9167  104.5466  100.1102 F   0  0  0  0  0  0  0  0  0  0  0  0
  125.5341  108.1688  105.5348 S   0  0  0  0  0  0  0  0  0  0  0  0
  117.0739  105.1874  104.1781 H   0  0  0  0  0  0  0  0  0  0  0  0
  116.9461  105.1798  101.7089 H   0  0  0  0  0  0  0  0  0  0  0  0
  121.0458  103.9406  101.4811 H   0  0  0  0  0  0  0  0  0  0  0  0
  121.7252  102.7767  103.9997 H   0  0  0  0  0  0  0  0  0  0  0  0
  122.3983  104.3787  103.6542 H   0  0  0  0  0  0  0  0  0  0  0  0
  126.4868  102.8270  110.3762 H   0  0  0  0  0  0  0  0  0  0  0  0
  126.6512  102.7897  108.5629 H   0  0  0  0  0  0  0  0  0  0  0  0
  124.2273  103.3936  108.3328 H   0  0  0  0  0  0  0  0  0  0  0  0
  124.0657  103.4301  110.1462 H   0  0  0  0  0  0  0  0  0  0  0  0
  119.9542  102.8083  106.2033 H   0  0  0  0  0  0  0  0  0  0  0  0
  120.1773  104.1717  107.2981 H   0  0  0  0  0  0  0  0  0  0  0  0
  125.8048  105.2452  110.2498 H   0  0  0  0  0  0  0  0  0  0  0  0
  122.3164  103.5742  106.1478 H   0  0  0  0  0  0  0  0  0  0  0  0
  124.0115  106.4796  109.3158 H   0  0  0  0  0  0  0  0  0  0  0  0
  124.4800  108.0932  108.7366 H   0  0  0  0  0  0  0  0  0  0  0  0
  122.1190  107.5842  108.0865 H   0  0  0  0  0  0  0  0  0  0  0  0
  123.1398  107.7528  106.6424 H   0  0  0  0  0  0  0  0  0  0  0  0
  127.6340  106.0013  105.5590 H   0  0  0  0  0  0  0  0  0  0  0  0
  122.7278  105.0412  107.7004 H   0  0  0  0  0  0  0  0  0  0  0  0
  1  2  1  0  0  0  0
  1  5  2  0  0  0  0
  2  6  2  0  0  0  0
  3  4  2  0  0  0  0
  3  6  1  0  0  0  0
  4  5  1  0  0  0  0
  4 10  1  0  0  0  0
  5 23  1  0  0  0  0
  6 24  1  0  0  0  0
  7 14  1  0  0  0  0
  7 18  2  0  0  0  0
  7 20  1  0  0  0  0
  8 19  1  0  0  0  0
  8 20  1  0  0  0  0
  8 25  2  0  0  0  0
  9 15  1  0  0  0  0
  9 21  1  0  0  0  0
  9 22  2  0  0  0  0
 10 15  1  0  0  0  0
 11 12  1  0  0  0  0
 11 14  1  0  0  0  0
 12 14  1  0  0  0  0
 13 15  1  0  0  0  0
 13 23  1  0  0  0  0
 16 17  1  0  0  0  0
 16 20  1  0  0  0  0
 17 21  1  0  0  0  0
 18 19  1  0  0  0  0
  1 26  1  0  0  0  0
  2 27  1  0  0  0  0
  3 28  1  0  0  0  0
 10 29  1  0  0  0  0
 10 30  1  0  0  0  0
 11 31  1  0  0  0  0
 11 32  1  0  0  0  0
 12 33  1  0  0  0  0
 12 34  1  0  0  0  0
 13 35  1  0  0  0  0
 13 36  1  0  0  0  0
 14 37  1  0  0  0  0
 15 38  1  0  0  0  0
 16 39  1  0  0  0  0
 16 40  1  0  0  0  0
 17 41  1  0  0  0  0
 17 42  1  0  0  0  0
 19 43  1  0  0  0  0
 21 44  1  0  0  0  0
M  END
> <FRED Chemgauss4 score>
-7.734418

$$$$
C45014850	P67846596
  -OEChem-05182014473D

 24 24  0     0  0  0  0  0  0999 V2000
  119.4726  105.5107  106.1440 C   0  0  0  0  0  0  0  0  0  0  0  0
  118.8661  106.6181  106.7617 C   0  0  0  0  0  0  0  0  0  0  0  0
  120.7807  105.5917  106.5420 C   0  0  0  0  0  0  0  0  0  0  0  0
  123.4117  106.6312  105.4706 C   0  0  0  0  0  0  0  0  0  0  0  0
  124.7530  107.2687  105.6660 C   0  0  0  0  0  0  0  0  0  0  0  0
  117.4566  107.0342  106.6842 C   0  0  0  0  0  0  0  0  0  0  0  0
  122.0016  104.7596  106.2756 C   0  0  0  0  0  0  0  0  0  0  0  0
  119.7318  107.3313  107.4874 N   0  0  0  0  0  0  0  0  0  0  0  0
  126.1041  108.4023  107.2487 N   0  0  0  0  0  0  0  0  0  0  0  0
  123.2099  105.5502  106.2982 N   0  0  0  0  0  0  0  0  0  0  0  0
  124.9208  107.7677  106.9346 N   0  0  0  0  0  0  0  0  0  0  0  0
  122.6730  107.1022  104.6207 O   0  0  0  0  0  0  0  0  0  0  0  0
  125.5176  107.2931  104.7144 O   0  0  0  0  0  0  0  0  0  0  0  0
  120.9479  106.6741  107.3442 O   0  0  0  0  0  0  0  0  0  0  0  0
  119.0260  104.7641  105.5037 H   0  0  0  0  0  0  0  0  0  0  0  0
  116.8562  106.5705  107.4861 H   0  0  0  0  0  0  0  0  0  0  0  0
  117.3384  108.1293  106.7728 H   0  0  0  0  0  0  0  0  0  0  0  0
  116.9916  106.7584  105.7203 H   0  0  0  0  0  0  0  0  0  0  0  0
  122.1017  103.9691  107.0273 H   0  0  0  0  0  0  0  0  0  0  0  0
  121.9389  104.2719  105.2971 H   0  0  0  0  0  0  0  0  0  0  0  0
  125.8769  109.1389  107.9154 H   0  0  0  0  0  0  0  0  0  0  0  0
  126.4191  108.8761  106.4032 H   0  0  0  0  0  0  0  0  0  0  0  0
  123.9399  105.2805  106.9511 H   0  0  0  0  0  0  0  0  0  0  0  0
  124.1866  107.6710  107.6289 H   0  0  0  0  0  0  0  0  0  0  0  0
  1  2  1  0  0  0  0
  1  3  2  0  0  0  0
  2  6  1  0  0  0  0
  2  8  2  0  0  0  0
  3  7  1  0  0  0  0
  3 14  1  0  0  0  0
  4  5  1  0  0  0  0
  4 10  1  0  0  0  0
  4 12  2  0  0  0  0
  5 11  1  0  0  0  0
  5 13  2  0  0  0  0
  7 10  1  0  0  0  0
  8 14  1  0  0  0  0
  9 11  1  0  0  0  0
  1 15  1  0  0  0  0
  6 16  1  0  0  0  0
  6 17  1  0  0  0  0
  6 18  1  0  0  0  0
  7 19  1  0  0  0  0
  7 20  1  0  0  0  0
  9 21  1  0  0  0  0
  9 22  1  0  0  0  0
 10 23  1  0  0  0  0
 11 24  1  0  0  0  0
M  END
> <FRED Chemgauss4 score>
-7.715377

$$$$
C36239306	P53850107
  -OEChem-05182014473D

 34 35  0     1  0  0  0  0  0999 V2000
  122.9661  106.9726  105.9589 C   0  0  0  0  0  0  0  0  0  0  0  0
  125.1101  106.2309  106.6070 C   0  0  0  0  0  0  0  0  0  0  0  0
  118.6759  103.9373  105.5747 C   0  0  0  0  0  0  0  0  0  0  0  0
  118.5378  105.0181  106.6396 C   0  0  0  0  0  0  0  0  0  0  0  0
  120.1477  103.6910  105.2566 C   0  0  0  0  0  0  0  0  0  0  0  0
  119.3165  106.2806  106.2697 C   0  0  0  0  0  0  0  0  0  0  0  0
  120.8999  104.9880  104.9016 C   0  0  1  0  0  0  0  0  0  0  0  0
  121.4932  107.1985  105.7754 C   0  0  0  0  0  0  0  0  0  0  0  0
  120.5165  105.4791  103.4969 C   0  0  0  0  0  0  0  0  0  0  0  0
  120.8107  104.4264  102.4484 C   0  0  0  0  0  0  0  0  0  0  0  0
  123.9193  107.6312  105.3348 N   0  0  0  0  0  0  0  0  0  0  0  0
  125.1768  107.1955  105.7143 N   0  0  0  0  0  0  0  0  0  0  0  0
  120.7227  105.9757  105.9832 N   0  0  1  0  0  0  0  0  0  0  0  0
  126.1803  105.6079  107.1638 N   0  0  0  0  0  0  0  0  0  0  0  0
  122.1993  104.1288  102.4940 O   0  0  0  0  0  0  0  0  0  0  0  0
  123.5187  105.7756  107.0561 S   0  0  0  0  0  0  0  0  0  0  0  0
  118.2165  103.0072  105.9311 H   0  0  0  0  0  0  0  0  0  0  0  0
  118.1402  104.2343  104.6662 H   0  0  0  0  0  0  0  0  0  0  0  0
  117.4746  105.2672  106.7739 H   0  0  0  0  0  0  0  0  0  0  0  0
  118.8940  104.6329  107.6049 H   0  0  0  0  0  0  0  0  0  0  0  0
  120.6203  103.2064  106.1229 H   0  0  0  0  0  0  0  0  0  0  0  0
  120.2195  102.9759  104.4228 H   0  0  0  0  0  0  0  0  0  0  0  0
  118.8402  106.7166  105.3845 H   0  0  0  0  0  0  0  0  0  0  0  0
  119.2326  107.0133  107.0813 H   0  0  0  0  0  0  0  0  0  0  0  0
  121.9984  104.7199  104.8642 H   0  0  0  0  0  0  0  0  0  0  0  0
  121.1272  107.9519  106.4814 H   0  0  0  0  0  0  0  0  0  0  0  0
  121.2745  107.5646  104.7667 H   0  0  0  0  0  0  0  0  0  0  0  0
  121.0659  106.3961  103.2793 H   0  0  0  0  0  0  0  0  0  0  0  0
  119.4570  105.7383  103.4883 H   0  0  0  0  0  0  0  0  0  0  0  0
  120.2506  103.5061  102.6428 H   0  0  0  0  0  0  0  0  0  0  0  0
  120.5646  104.7875  101.4447 H   0  0  0  0  0  0  0  0  0  0  0  0
  127.1420  105.8273  106.8790 H   0  0  0  0  0  0  0  0  0  0  0  0
  126.0692  104.8278  107.8220 H   0  0  0  0  0  0  0  0  0  0  0  0
  122.3640  103.4539  101.8156 H   0  0  0  0  0  0  0  0  0  0  0  0
  1  8  1  0  0  0  0
  1 11  2  0  0  0  0
  1 16  1  0  0  0  0
  2 12  2  0  0  0  0
  2 14  1  0  0  0  0
  2 16  1  0  0  0  0
  3  4  1  0  0  0  0
  3  5  1  0  0  0  0
  4  6  1  0  0  0  0
  5  7  1  0  0  0  0
  6 13  1  0  0  0  0
  7  9  1  0  0  0  0
  7 13  1  0  0  0  0
  8 13  1  0  0  0  0
  9 10  1  0  0  0  0
 10 15  1  0  0  0  0
 11 12  1  0  0  0  0
  3 17  1  0  0  0  0
  3 18  1  0  0  0  0
  4 19  1  0  0  0  0
  4 20  1  0  0  0  0
  5 21  1  0  0  0  0
  5 22  1  0  0  0  0
  6 23  1  0  0  0  0
  6 24  1  0  0  0  0
  7 25  1  0  0  0  0
  8 26  1  0  0  0  0
  8 27  1  0  0  0  0
  9 28  1  0  0  0  0
  9 29  1  0  0  0  0
 10 30  1  0  0  0  0
 10 31  1  0  0  0  0
 14 32  1  0  0  0  0
 14 33  1  0  0  0  0
 15 34  1  0  0  0  0
M  END
> <FRED Chemgauss4 score>
-7.711611

$$$$
C88750425	P138824152
  -OEChem-05182014473D

 36 37  0     0  0  0  0  0  0999 V2000
  116.2695  105.5083  103.5577 C   0  0  0  0  0  0  0  0  0  0  0  0
  115.9848  105.1294  104.8696 C   0  0  0  0  0  0  0  0  0  0  0  0
  117.4956  105.1706  102.9847 C   0  0  0  0  0  0  0  0  0  0  0  0
  118.1524  104.0753  105.0355 C   0  0  0  0  0  0  0  0  0  0  0  0
  124.8551  104.2182  109.1821 C   0  0  0  0  0  0  0  0  0  0  0  0
  126.7822  105.2605  108.9445 C   0  0  0  0  0  0  0  0  0  0  0  0
  116.9262  104.4129  105.6085 C   0  0  0  0  0  0  0  0  0  0  0  0
  118.4370  104.4542  103.7236 C   0  0  0  0  0  0  0  0  0  0  0  0
  124.9464  104.8332  107.9557 C   0  0  0  0  0  0  0  0  0  0  0  0
  123.9312  104.8563  106.8498 C   0  0  0  0  0  0  0  0  0  0  0  0
  120.9637  105.4844  103.4632 C   0  0  0  0  0  0  0  0  0  0  0  0
  121.6361  105.2667  104.8059 C   0  0  0  0  0  0  0  0  0  0  0  0
  126.1485  105.4801  107.8139 N   0  0  0  0  0  0  0  0  0  0  0  0
  126.0387  104.5004  109.8039 N   0  0  0  0  0  0  0  0  0  0  0  0
  116.6377  104.0301  106.9349 N   0  0  0  0  0  0  0  0  0  0  0  0
  123.2383  106.1544  106.7641 N   0  0  0  0  0  0  0  0  0  0  0  0
  123.7074  106.7842  104.2988 O   0  0  0  0  0  0  0  0  0  0  0  0
  121.7208  107.7836  105.4866 O   0  0  0  0  0  0  0  0  0  0  0  0
  119.9897  104.0270  102.9970 S   0  0  0  0  0  0  0  0  0  0  0  0
  122.6255  106.6735  105.2575 S   0  0  0  0  0  0  0  0  0  0  0  0
  115.5363  106.0661  102.9824 H   0  0  0  0  0  0  0  0  0  0  0  0
  115.0261  105.3977  105.3061 H   0  0  0  0  0  0  0  0  0  0  0  0
  117.6992  105.4746  101.9608 H   0  0  0  0  0  0  0  0  0  0  0  0
  118.8815  103.5162  105.6186 H   0  0  0  0  0  0  0  0  0  0  0  0
  124.0854  103.6255  109.6553 H   0  0  0  0  0  0  0  0  0  0  0  0
  127.7691  105.6188  109.2013 H   0  0  0  0  0  0  0  0  0  0  0  0
  124.4091  104.6645  105.8830 H   0  0  0  0  0  0  0  0  0  0  0  0
  123.1721  104.0808  106.9969 H   0  0  0  0  0  0  0  0  0  0  0  0
  121.7095  105.6705  102.6835 H   0  0  0  0  0  0  0  0  0  0  0  0
  120.3000  106.3544  103.4987 H   0  0  0  0  0  0  0  0  0  0  0  0
  122.3122  104.4057  104.7882 H   0  0  0  0  0  0  0  0  0  0  0  0
  120.9063  105.1308  105.6103 H   0  0  0  0  0  0  0  0  0  0  0  0
  126.3140  104.2026  110.7303 H   0  0  0  0  0  0  0  0  0  0  0  0
  115.7747  104.3189  107.3493 H   0  0  0  0  0  0  0  0  0  0  0  0
  117.3387  103.5582  107.4697 H   0  0  0  0  0  0  0  0  0  0  0  0
  122.6817  106.3861  107.5971 H   0  0  0  0  0  0  0  0  0  0  0  0
  1  2  1  0  0  0  0
  1  3  2  0  0  0  0
  2  7  2  0  0  0  0
  3  8  1  0  0  0  0
  4  7  1  0  0  0  0
  4  8  2  0  0  0  0
  5  9  2  0  0  0  0
  5 14  1  0  0  0  0
  6 13  2  0  0  0  0
  6 14  1  0  0  0  0
  7 15  1  0  0  0  0
  8 19  1  0  0  0  0
  9 10  1  0  0  0  0
  9 13  1  0  0  0  0
 10 16  1  0  0  0  0
 11 12  1  0  0  0  0
 11 19  1  0  0  0  0
 12 20  1  0  0  0  0
 16 20  1  0  0  0  0
 17 20  2  0  0  0  0
 18 20  2  0  0  0  0
  1 21  1  0  0  0  0
  2 22  1  0  0  0  0
  3 23  1  0  0  0  0
  4 24  1  0  0  0  0
  5 25  1  0  0  0  0
  6 26  1  0  0  0  0
 10 27  1  0  0  0  0
 10 28  1  0  0  0  0
 11 29  1  0  0  0  0
 11 30  1  0  0  0  0
 12 31  1  0  0  0  0
 12 32  1  0  0  0  0
 14 33  1  0  0  0  0
 15 34  1  0  0  0  0
 15 35  1  0  0  0  0
 16 36  1  0  0  0  0
M  END
> <FRED Chemgauss4 score>
-7.710784

$$$$
C63134484	P96941863
  -OEChem-05182014473D

 40 41  0     0  0  0  0  0  0999 V2000
  118.1898  104.6453  102.0089 C   0  0  0  0  0  0  0  0  0  0  0  0
  119.2689  104.6800  101.1508 C   0  0  0  0  0  0  0  0  0  0  0  0
  119.7943  104.7464  103.5007 C   0  0  0  0  0  0  0  0  0  0  0  0
  122.1487  106.1791  106.9591 C   0  0  0  0  0  0  0  0  0  0  0  0
  122.9830  105.5416  107.8179 C   0  0  0  0  0  0  0  0  0  0  0  0
  122.7042  107.1045  105.9293 C   0  0  0  0  0  0  0  0  0  0  0  0
  124.9630  106.6100  106.7951 C   0  0  0  0  0  0  0  0  0  0  0  0
  126.0735  103.4311  106.9023 C   0  0  0  0  0  0  0  0  0  0  0  0
  126.2380  102.8059  109.3327 C   0  0  0  0  0  0  0  0  0  0  0  0
  120.5049  104.8033  104.8307 C   0  0  0  0  0  0  0  0  0  0  0  0
  125.2411  105.0491  108.6803 C   0  0  0  0  0  0  0  0  0  0  0  0
  120.0854  106.0011  105.6792 C   0  0  0  0  0  0  0  0  0  0  0  0
  125.4372  103.5804  108.2850 C   0  0  0  0  0  0  0  0  0  0  0  0
  118.4892  104.6829  103.3568 N   0  0  0  0  0  0  0  0  0  0  0  0
  124.0742  107.2418  105.9367 N   0  0  0  0  0  0  0  0  0  0  0  0
  124.3715  105.7545  107.7366 N   0  0  0  0  0  0  0  0  0  0  0  0
  122.4495  104.6874  108.7636 N   0  0  0  0  0  0  0  0  0  0  0  0
  120.7849  106.0615  106.9305 N   0  0  0  0  0  0  0  0  0  0  0  0
  121.9760  107.6963  105.1350 O   0  0  0  0  0  0  0  0  0  0  0  0
  126.1759  106.8146  106.7007 O   0  0  0  0  0  0  0  0  0  0  0  0
  120.7223  104.7650  102.0573 S   0  0  0  0  0  0  0  0  0  0  0  0
  117.1544  104.5926  101.7004 H   0  0  0  0  0  0  0  0  0  0  0  0
  119.2723  104.6623  100.0702 H   0  0  0  0  0  0  0  0  0  0  0  0
  127.0795  103.8615  106.8676 H   0  0  0  0  0  0  0  0  0  0  0  0
  126.1564  102.3731  106.6306 H   0  0  0  0  0  0  0  0  0  0  0  0
  125.4638  103.9243  106.1380 H   0  0  0  0  0  0  0  0  0  0  0  0
  127.2531  103.2018  109.4420 H   0  0  0  0  0  0  0  0  0  0  0  0
  126.3205  101.7505  109.0512 H   0  0  0  0  0  0  0  0  0  0  0  0
  125.7466  102.8526  110.3102 H   0  0  0  0  0  0  0  0  0  0  0  0
  121.5856  104.8504  104.6461 H   0  0  0  0  0  0  0  0  0  0  0  0
  120.3335  103.8706  105.3832 H   0  0  0  0  0  0  0  0  0  0  0  0
  124.8004  105.1241  109.6802 H   0  0  0  0  0  0  0  0  0  0  0  0
  126.2076  105.5645  108.7042 H   0  0  0  0  0  0  0  0  0  0  0  0
  120.3089  106.9314  105.1475 H   0  0  0  0  0  0  0  0  0  0  0  0
  119.0132  105.9837  105.9007 H   0  0  0  0  0  0  0  0  0  0  0  0
  124.4386  103.1267  108.2342 H   0  0  0  0  0  0  0  0  0  0  0  0
  124.4759  107.8673  105.2439 H   0  0  0  0  0  0  0  0  0  0  0  0
  121.4677  104.5725  108.7778 H   0  0  0  0  0  0  0  0  0  0  0  0
  123.0759  104.2335  109.3791 H   0  0  0  0  0  0  0  0  0  0  0  0
  120.3246  106.0213  107.8060 H   0  0  0  0  0  0  0  0  0  0  0  0
  1  2  2  0  0  0  0
  1 14  1  0  0  0  0
  2 21  1  0  0  0  0
  3 10  1  0  0  0  0
  3 14  2  0  0  0  0
  3 21  1  0  0  0  0
  4  5  2  0  0  0  0
  4  6  1  0  0  0  0
  4 18  1  0  0  0  0
  5 16  1  0  0  0  0
  5 17  1  0  0  0  0
  6 15  1  0  0  0  0
  6 19  2  0  0  0  0
  7 15  1  0  0  0  0
  7 16  1  0  0  0  0
  7 20  2  0  0  0  0
  8 13  1  0  0  0  0
  9 13  1  0  0  0  0
 10 12  1  0  0  0  0
 11 13  1  0  0  0  0
 11 16  1  0  0  0  0
 12 18  1  0  0  0  0
  1 22  1  0  0  0  0
  2 23  1  0  0  0  0
  8 24  1  0  0  0  0
  8 25  1  0  0  0  0
  8 26  1  0  0  0  0
  9 27  1  0  0  0  0
  9 28  1  0  0  0  0
  9 29  1  0  0  0  0
 10 30  1  0  0  0  0
 10 31  1  0  0  0  0
 11 32  1  0  0  0  0
 11 33  1  0  0  0  0
 12 34  1  0  0  0  0
 12 35  1  0  0  0  0
 13 36  1  0  0  0  0
 15 37  1  0  0  0  0
 17 38  1  0  0  0  0
 17 39  1  0  0  0  0
 18 40  1  0  0  0  0
M  END
> <FRED Chemgauss4 score>
-7.708433

$$$$
C50306591	P75244020
  -OEChem-05182014473D

 35 35  0     1  0  0  0  0  0999 V2000
  120.3609  105.2092  105.5840 C   0  0  0  0  0  0  0  0  0  0  0  0
  121.5653  105.6844  106.1364 C   0  0  0  0  0  0  0  0  0  0  0  0
  120.1063  104.0445  106.2661 C   0  0  0  0  0  0  0  0  0  0  0  0
  122.3046  106.9050  105.7769 C   0  0  0  0  0  0  0  0  0  0  0  0
  119.0127  103.0615  106.1763 C   0  0  0  0  0  0  0  0  0  0  0  0
  122.5936  107.4323  108.1669 C   0  0  0  0  0  0  0  0  0  0  0  0
  126.5998  105.5804  108.8876 C   0  0  0  0  0  0  0  0  0  0  0  0
  124.2763  108.2874  106.5743 C   0  0  0  0  0  0  0  0  0  0  0  0
  125.7397  106.2095  106.7931 C   0  0  0  0  0  0  0  0  0  0  0  0
  125.3640  107.4189  105.9422 C   0  0  2  0  0  0  0  0  0  0  0  0
  122.0427  104.8870  107.0957 N   0  0  0  0  0  0  0  0  0  0  0  0
  121.1335  103.8989  107.1514 N   0  0  0  0  0  0  0  0  0  0  0  0
  119.6168  105.7615  104.6049 N   0  0  0  0  0  0  0  0  0  0  0  0
  123.0602  107.5355  106.7839 N   0  0  0  0  0  0  0  0  0  0  0  0
  122.2101  107.2738  104.6068 O   0  0  0  0  0  0  0  0  0  0  0  0
  126.5376  108.2025  105.7236 O   0  0  0  0  0  0  0  0  0  0  0  0
  126.2469  106.6662  108.0433 O   0  0  0  0  0  0  0  0  0  0  0  0
  119.2483  102.2662  105.4488 H   0  0  0  0  0  0  0  0  0  0  0  0
  118.8091  102.5750  107.1467 H   0  0  0  0  0  0  0  0  0  0  0  0
  118.0599  103.5255  105.8652 H   0  0  0  0  0  0  0  0  0  0  0  0
  123.0258  106.5490  108.6443 H   0  0  0  0  0  0  0  0  0  0  0  0
  121.5038  107.3486  108.1929 H   0  0  0  0  0  0  0  0  0  0  0  0
  122.8906  108.3192  108.7332 H   0  0  0  0  0  0  0  0  0  0  0  0
  126.9841  105.9649  109.8355 H   0  0  0  0  0  0  0  0  0  0  0  0
  127.3595  104.9673  108.3960 H   0  0  0  0  0  0  0  0  0  0  0  0
  125.7111  104.9736  109.0766 H   0  0  0  0  0  0  0  0  0  0  0  0
  124.6162  108.6654  107.5444 H   0  0  0  0  0  0  0  0  0  0  0  0
  124.0602  109.1497  105.9350 H   0  0  0  0  0  0  0  0  0  0  0  0
  126.5194  105.6142  106.3079 H   0  0  0  0  0  0  0  0  0  0  0  0
  124.8698  105.5782  107.0004 H   0  0  0  0  0  0  0  0  0  0  0  0
  125.0274  107.0777  104.9561 H   0  0  0  0  0  0  0  0  0  0  0  0
  121.2795  103.1526  107.8198 H   0  0  0  0  0  0  0  0  0  0  0  0
  119.8587  106.6676  104.1746 H   0  0  0  0  0  0  0  0  0  0  0  0
  118.7182  105.3553  104.3014 H   0  0  0  0  0  0  0  0  0  0  0  0
  126.2792  108.9214  105.1275 H   0  0  0  0  0  0  0  0  0  0  0  0
  1  2  1  0  0  0  0
  1  3  2  0  0  0  0
  1 13  1  0  0  0  0
  2  4  1  0  0  0  0
  2 11  2  0  0  0  0
  3  5  1  0  0  0  0
  3 12  1  0  0  0  0
  4 14  1  0  0  0  0
  4 15  2  0  0  0  0
  6 14  1  0  0  0  0
  7 17  1  0  0  0  0
  8 10  1  0  0  0  0
  8 14  1  0  0  0  0
  9 10  1  0  0  0  0
  9 17  1  0  0  0  0
 10 16  1  0  0  0  0
 11 12  1  0  0  0  0
  5 18  1  0  0  0  0
  5 19  1  0  0  0  0
  5 20  1  0  0  0  0
  6 21  1  0  0  0  0
  6 22  1  0  0  0  0
  6 23  1  0  0  0  0
  7 24  1  0  0  0  0
  7 25  1  0  0  0  0
  7 26  1  0  0  0  0
  8 27  1  0  0  0  0
  8 28  1  0  0  0  0
  9 29  1  0  0  0  0
  9 30  1  0  0  0  0
 10 31  1  0  0  0  0
 12 32  1  0  0  0  0
 13 33  1  0  0  0  0
 13 34  1  0  0  0  0
 16 35  1  0  0  0  0
M  END
> <FRED Chemgauss4 score>
-7.708358

$$$$
C05725726	P08547959
  -OEChem-05182014473D

 30 30  0     1  0  0  0  0  0999 V2000
  124.4346  104.3932  108.1837 C   0  0  0  0  0  0  0  0  0  0  0  0
  123.1313  105.0970  106.3216 C   0  0  0  0  0  0  0  0  0  0  0  0
  125.0741  105.6479  108.8086 C   0  0  2  0  0  0  0  0  0  0  0  0
  123.4997  106.2849  105.4421 C   0  0  2  0  0  0  0  0  0  0  0  0
  124.3295  106.9722  108.5246 C   0  0  2  0  0  0  0  0  0  0  0  0
  124.7451  107.0502  105.9090 C   0  0  2  0  0  0  0  0  0  0  0  0
  124.6717  107.7829  107.2577 C   0  0  1  0  0  0  0  0  0  0  0  0
  126.5794  105.7209  108.5304 C   0  0  0  0  0  0  0  0  0  0  0  0
  124.3056  104.4294  106.7693 O   0  0  0  0  0  0  0  0  0  0  0  0
  122.3624  107.1369  105.3460 O   0  0  0  0  0  0  0  0  0  0  0  0
  124.6294  107.8310  109.6465 O   0  0  0  0  0  0  0  0  0  0  0  0
  125.0499  108.0149  104.8889 O   0  0  0  0  0  0  0  0  0  0  0  0
  123.6871  108.8229  107.1335 O   0  0  0  0  0  0  0  0  0  0  0  0
  127.0799  106.8999  109.1260 O   0  0  0  0  0  0  0  0  0  0  0  0
  125.0418  103.5073  108.4222 H   0  0  0  0  0  0  0  0  0  0  0  0
  123.4413  104.2081  108.6227 H   0  0  0  0  0  0  0  0  0  0  0  0
  122.4540  105.3868  107.1399 H   0  0  0  0  0  0  0  0  0  0  0  0
  122.5560  104.3732  105.7244 H   0  0  0  0  0  0  0  0  0  0  0  0
  125.0081  105.5036  109.9395 H   0  0  0  0  0  0  0  0  0  0  0  0
  123.7090  105.8911  104.4328 H   0  0  0  0  0  0  0  0  0  0  0  0
  123.2649  106.7889  108.5731 H   0  0  0  0  0  0  0  0  0  0  0  0
  125.5840  106.3671  105.8883 H   0  0  0  0  0  0  0  0  0  0  0  0
  125.6266  108.3409  107.4200 H   0  0  0  0  0  0  0  0  0  0  0  0
  126.7472  105.7514  107.4575 H   0  0  0  0  0  0  0  0  0  0  0  0
  127.0694  104.8537  108.9637 H   0  0  0  0  0  0  0  0  0  0  0  0
  121.6560  106.6056  104.9495 H   0  0  0  0  0  0  0  0  0  0  0  0
  124.2965  107.3719  110.4297 H   0  0  0  0  0  0  0  0  0  0  0  0
  125.2141  107.5136  104.0753 H   0  0  0  0  0  0  0  0  0  0  0  0
  123.7649  109.3503  107.9377 H   0  0  0  0  0  0  0  0  0  0  0  0
  128.0352  106.9335  108.9418 H   0  0  0  0  0  0  0  0  0  0  0  0
  1  3  1  0  0  0  0
  1  9  1  0  0  0  0
  2  4  1  0  0  0  0
  2  9  1  0  0  0  0
  3  5  1  0  0  0  0
  3  8  1  0  0  0  0
  4  6  1  0  0  0  0
  4 10  1  0  0  0  0
  5  7  1  0  0  0  0
  5 11  1  0  0  0  0
  6  7  1  0  0  0  0
  6 12  1  0  0  0  0
  7 13  1  0  0  0  0
  8 14  1  0  0  0  0
  1 15  1  0  0  0  0
  1 16  1  0  0  0  0
  2 17  1  0  0  0  0
  2 18  1  0  0  0  0
  3 19  1  0  0  0  0
  4 20  1  0  0  0  0
  5 21  1  0  0  0  0
  6 22  1  0  0  0  0
  7 23  1  0  0  0  0
  8 24  1  0  0  0  0
  8 25  1  0  0  0  0
 10 26  1  0  0  0  0
 11 27  1  0  0  0  0
 12 28  1  0  0  0  0
 13 29  1  0  0  0  0
 14 30  1  0  0  0  0
M  END
> <FRED Chemgauss4 score>
-7.700211

$$$$
4C_CG2012	P10000016
  -OEChem-05182014473D

 25 24  0     1  0  0  0  0  0999 V2000
  124.5653  107.3849  106.2919 C   0  0  0  0  0  0  0  0  0  0  0  0
  122.6132  104.9357  107.0068 C   0  0  0  0  0  0  0  0  0  0  0  0
  120.3201  104.0087  106.7345 C   0  0  0  0  0  0  0  0  0  0  0  0
  121.3392  105.3879  104.8965 C   0  0  0  0  0  0  0  0  0  0  0  0
  124.9336  105.0885  107.4459 C   0  0  0  0  0  0  0  0  0  0  0  0
  124.8902  106.6077  107.5794 C   0  0  1  0  0  0  0  0  0  0  0  0
  121.6091  104.3809  106.0116 C   0  0  0  0  0  0  0  0  0  0  0  0
  126.1821  107.0238  108.2126 N   0  3  0  0  0  0  0  0  0  0  0  0
  125.3638  107.2287  105.3269 O   0  5  0  0  0  0  0  0  0  0  0  0
  123.5326  108.1124  106.3620 O   0  0  0  0  0  0  0  0  0  0  0  0
  122.3219  105.5488  108.0254 O   0  0  0  0  0  0  0  0  0  0  0  0
  123.8794  104.6335  106.5916 O   0  0  0  0  0  0  0  0  0  0  0  0
  119.8650  104.8886  107.2008 H   0  0  0  0  0  0  0  0  0  0  0  0
  120.5045  103.2634  107.5162 H   0  0  0  0  0  0  0  0  0  0  0  0
  119.5898  103.5804  106.0396 H   0  0  0  0  0  0  0  0  0  0  0  0
  120.8978  106.3053  105.2996 H   0  0  0  0  0  0  0  0  0  0  0  0
  120.6442  104.9736  104.1580 H   0  0  0  0  0  0  0  0  0  0  0  0
  122.2605  105.6583  104.3683 H   0  0  0  0  0  0  0  0  0  0  0  0
  124.8157  104.6077  108.4233 H   0  0  0  0  0  0  0  0  0  0  0  0
  125.8875  104.7610  107.0194 H   0  0  0  0  0  0  0  0  0  0  0  0
  124.1132  106.8724  108.3072 H   0  0  0  0  0  0  0  0  0  0  0  0
  122.0485  103.4869  105.5520 H   0  0  0  0  0  0  0  0  0  0  0  0
  126.8713  107.2474  107.4938 H   0  0  0  0  0  0  0  0  0  0  0  0
  126.5484  106.2692  108.7942 H   0  0  0  0  0  0  0  0  0  0  0  0
  126.0389  107.8482  108.7971 H   0  0  0  0  0  0  0  0  0  0  0  0
  1  6  1  0  0  0  0
  1  9  1  0  0  0  0
  1 10  2  0  0  0  0
  2  7  1  0  0  0  0
  2 11  2  0  0  0  0
  2 12  1  0  0  0  0
  3  7  1  0  0  0  0
  4  7  1  0  0  0  0
  5  6  1  0  0  0  0
  5 12  1  0  0  0  0
  6  8  1  0  0  0  0
  3 13  1  0  0  0  0
  3 14  1  0  0  0  0
  3 15  1  0  0  0  0
  4 16  1  0  0  0  0
  4 17  1  0  0  0  0
  4 18  1  0  0  0  0
  5 19  1  0  0  0  0
  5 20  1  0  0  0  0
  6 21  1  0  0  0  0
  7 22  1  0  0  0  0
  8 23  1  0  0  0  0
  8 24  1  0  0  0  0
  8 25  1  0  0  0  0
M  CHG  2   8   1   9  -1
M  END
> <FRED Chemgauss4 score>
-7.693770

$$$$
C88640746	P138642871
  -OEChem-05182014473D

 35 37  0     0  0  0  0  0  0999 V2000
  117.6874  105.6714  106.2181 C   0  0  0  0  0  0  0  0  0  0  0  0
  116.6690  105.2069  105.3817 C   0  0  0  0  0  0  0  0  0  0  0  0
  118.1974  105.1610  103.5079 C   0  0  0  0  0  0  0  0  0  0  0  0
  118.9899  105.8904  105.7078 C   0  0  0  0  0  0  0  0  0  0  0  0
  120.1815  106.3560  106.3587 C   0  0  0  0  0  0  0  0  0  0  0  0
  119.2219  105.6294  104.3539 C   0  0  0  0  0  0  0  0  0  0  0  0
  116.9236  104.9550  104.0411 C   0  0  0  0  0  0  0  0  0  0  0  0
  121.2590  106.4355  105.5089 C   0  0  0  0  0  0  0  0  0  0  0  0
  122.5992  106.8502  105.7800 C   0  0  0  0  0  0  0  0  0  0  0  0
  125.3965  105.8821  107.2534 C   0  0  0  0  0  0  0  0  0  0  0  0
  125.1034  102.1748  108.1463 C   0  0  0  0  0  0  0  0  0  0  0  0
  125.5455  102.5143  106.7521 C   0  0  0  0  0  0  0  0  0  0  0  0
  125.7648  103.4948  107.8690 C   0  0  0  0  0  0  0  0  0  0  0  0
  124.4338  107.0128  107.5117 C   0  0  0  0  0  0  0  0  0  0  0  0
  120.2415  106.6841  107.6734 N   0  0  0  0  0  0  0  0  0  0  0  0
  123.1093  106.6306  107.0777 N   0  0  0  0  0  0  0  0  0  0  0  0
  125.0234  104.7335  107.9366 N   0  0  0  0  0  0  0  0  0  0  0  0
  123.3028  107.4125  104.9033 O   0  0  0  0  0  0  0  0  0  0  0  0
  126.3797  105.9848  106.5245 O   0  0  0  0  0  0  0  0  0  0  0  0
  120.8595  105.9549  103.9231 S   0  0  0  0  0  0  0  0  0  0  0  0
  115.6589  104.3812  103.0220 Cl  0  0  0  0  0  0  0  0  0  0  0  0
  117.4682  105.8623  107.2659 H   0  0  0  0  0  0  0  0  0  0  0  0
  115.6779  105.0488  105.7997 H   0  0  0  0  0  0  0  0  0  0  0  0
  118.3999  104.9660  102.4577 H   0  0  0  0  0  0  0  0  0  0  0  0
  124.0391  102.1615  108.3470 H   0  0  0  0  0  0  0  0  0  0  0  0
  125.6721  101.4293  108.6885 H   0  0  0  0  0  0  0  0  0  0  0  0
  126.4112  101.9969  106.3573 H   0  0  0  0  0  0  0  0  0  0  0  0
  124.7772  102.7286  106.0193 H   0  0  0  0  0  0  0  0  0  0  0  0
  126.7843  103.6107  108.2209 H   0  0  0  0  0  0  0  0  0  0  0  0
  124.4106  107.2398  108.5817 H   0  0  0  0  0  0  0  0  0  0  0  0
  124.7499  107.9026  106.9595 H   0  0  0  0  0  0  0  0  0  0  0  0
  119.4099  106.6608  108.2762 H   0  0  0  0  0  0  0  0  0  0  0  0
  121.0978  107.0593  108.0995 H   0  0  0  0  0  0  0  0  0  0  0  0
  122.4915  106.2319  107.7770 H   0  0  0  0  0  0  0  0  0  0  0  0
  124.1874  104.7648  108.5129 H   0  0  0  0  0  0  0  0  0  0  0  0
  1  2  1  0  0  0  0
  1  4  2  0  0  0  0
  2  7  2  0  0  0  0
  3  6  2  0  0  0  0
  3  7  1  0  0  0  0
  4  5  1  0  0  0  0
  4  6  1  0  0  0  0
  5  8  2  0  0  0  0
  5 15  1  0  0  0  0
  6 20  1  0  0  0  0
  7 21  1  0  0  0  0
  8  9  1  0  0  0  0
  8 20  1  0  0  0  0
  9 16  1  0  0  0  0
  9 18  2  0  0  0  0
 10 14  1  0  0  0  0
 10 17  1  0  0  0  0
 10 19  2  0  0  0  0
 11 12  1  0  0  0  0
 11 13  1  0  0  0  0
 12 13  1  0  0  0  0
 13 17  1  0  0  0  0
 14 16  1  0  0  0  0
  1 22  1  0  0  0  0
  2 23  1  0  0  0  0
  3 24  1  0  0  0  0
 11 25  1  0  0  0  0
 11 26  1  0  0  0  0
 12 27  1  0  0  0  0
 12 28  1  0  0  0  0
 13 29  1  0  0  0  0
 14 30  1  0  0  0  0
 14 31  1  0  0  0  0
 15 32  1  0  0  0  0
 15 33  1  0  0  0  0
 16 34  1  0  0  0  0
 17 35  1  0  0  0  0
M  END
> <FRED Chemgauss4 score>
-7.688745

$$$$
C04403147	P153350511
  -OEChem-05182014473D

 30 30  0     1  0  0  0  0  0999 V2000
  125.6712  105.7479  106.8917 C   0  0  0  0  0  0  0  0  0  0  0  0
  125.1135  105.3855  108.2442 C   0  0  2  0  0  0  0  0  0  0  0  0
  123.7088  105.9458  108.1575 C   0  0  2  0  0  0  0  0  0  0  0  0
  123.3821  105.6808  106.6964 C   0  0  1  0  0  0  0  0  0  0  0  0
  119.9729  104.5394  103.7345 C   0  0  0  0  0  0  0  0  0  0  0  0
  122.3175  106.5809  106.0844 C   0  0  2  0  0  0  0  0  0  0  0  0
  120.9879  104.7269  104.8614 C   0  0  1  0  0  0  0  0  0  0  0  0
  121.7430  106.0608  104.7554 C   0  0  1  0  0  0  0  0  0  0  0  0
  126.8503  105.8874  106.6101 O   0  0  0  0  0  0  0  0  0  0  0  0
  124.6314  105.8897  106.0082 O   0  0  0  0  0  0  0  0  0  0  0  0
  125.8463  105.9135  109.3165 O   0  0  0  0  0  0  0  0  0  0  0  0
  123.7347  107.3412  108.4423 O   0  0  0  0  0  0  0  0  0  0  0  0
  119.3019  103.2975  103.9241 O   0  0  0  0  0  0  0  0  0  0  0  0
  122.9073  107.8636  105.8480 O   0  0  0  0  0  0  0  0  0  0  0  0
  120.2936  104.6825  106.1094 O   0  0  0  0  0  0  0  0  0  0  0  0
  120.8387  107.0512  104.2515 O   0  0  0  0  0  0  0  0  0  0  0  0
  125.0919  104.2918  108.3172 H   0  0  0  0  0  0  0  0  0  0  0  0
  123.0159  105.4672  108.8559 H   0  0  0  0  0  0  0  0  0  0  0  0
  123.1040  104.6300  106.5473 H   0  0  0  0  0  0  0  0  0  0  0  0
  119.2224  105.3357  103.7449 H   0  0  0  0  0  0  0  0  0  0  0  0
  120.4617  104.5055  102.7556 H   0  0  0  0  0  0  0  0  0  0  0  0
  121.5121  106.7462  106.8085 H   0  0  0  0  0  0  0  0  0  0  0  0
  121.6957  103.8906  104.8578 H   0  0  0  0  0  0  0  0  0  0  0  0
  122.5444  105.9663  104.0123 H   0  0  0  0  0  0  0  0  0  0  0  0
  126.7564  105.5640  109.2581 H   0  0  0  0  0  0  0  0  0  0  0  0
  122.8192  107.6547  108.3754 H   0  0  0  0  0  0  0  0  0  0  0  0
  118.6681  103.2108  103.1949 H   0  0  0  0  0  0  0  0  0  0  0  0
  122.2112  108.4134  105.4604 H   0  0  0  0  0  0  0  0  0  0  0  0
  119.8704  103.8123  106.1551 H   0  0  0  0  0  0  0  0  0  0  0  0
  121.3627  107.8552  104.1275 H   0  0  0  0  0  0  0  0  0  0  0  0
  1  2  1  0  0  0  0
  1  9  2  0  0  0  0
  1 10  1  0  0  0  0
  2  3  1  0  0  0  0
  2 11  1  0  0  0  0
  3  4  1  0  0  0  0
  3 12  1  0  0  0  0
  4  6  1  0  0  0  0
  4 10  1  0  0  0  0
  5  7  1  0  0  0  0
  5 13  1  0  0  0  0
  6  8  1  0  0  0  0
  6 14  1  0  0  0  0
  7  8  1  0  0  0  0
  7 15  1  0  0  0  0
  8 16  1  0  0  0  0
  2 17  1  0  0  0  0
  3 18  1  0  0  0  0
  4 19  1  0  0  0  0
  5 20  1  0  0  0  0
  5 21  1  0  0  0  0
  6 22  1  0  0  0  0
  7 23  1  0  0  0  0
  8 24  1  0  0  0  0
 11 25  1  0  0  0  0
 12 26  1  0  0  0  0
 13 27  1  0  0  0  0
 14 28  1  0  0  0  0
 15 29  1  0  0  0  0
 16 30  1  0  0  0  0
M  END
> <FRED Chemgauss4 score>
-7.687995

$$$$
C87580198	P137000610
  -OEChem-05182014473D

 26 27  0     1  0  0  0  0  0999 V2000
  121.5166  105.9616  105.2449 C   0  0  0  0  0  0  0  0  0  0  0  0
  123.1958  106.9840  105.8889 C   0  0  0  0  0  0  0  0  0  0  0  0
  119.5929  104.8257  102.0312 C   0  0  0  0  0  0  0  0  0  0  0  0
  120.7110  103.9150  102.4554 C   0  0  0  0  0  0  0  0  0  0  0  0
  120.6467  105.3220  102.9821 C   0  0  0  0  0  0  0  0  0  0  0  0
  120.3089  105.5735  104.4107 C   0  0  0  0  0  0  0  0  0  0  0  0
  125.1749  107.4834  107.3853 C   0  0  0  0  0  0  0  0  0  0  0  0
  124.3429  107.8677  106.1371 C   0  0  1  0  0  0  0  0  0  0  0  0
  122.3092  107.0258  104.9267 N   0  0  0  0  0  0  0  0  0  0  0  0
  121.8698  105.2810  106.3394 N   0  0  0  0  0  0  0  0  0  0  0  0
  125.2376  107.9577  104.9823 N   0  0  0  0  0  0  0  0  0  0  0  0
  123.0068  105.9724  106.7762 O   0  0  0  0  0  0  0  0  0  0  0  0
  124.3632  107.4977  108.5552 O   0  0  0  0  0  0  0  0  0  0  0  0
  119.6004  105.1907  101.0115 H   0  0  0  0  0  0  0  0  0  0  0  0
  118.6052  104.6310  102.4307 H   0  0  0  0  0  0  0  0  0  0  0  0
  120.4729  103.1095  103.1391 H   0  0  0  0  0  0  0  0  0  0  0  0
  121.4674  103.6705  101.7198 H   0  0  0  0  0  0  0  0  0  0  0  0
  121.3702  106.0340  102.6038 H   0  0  0  0  0  0  0  0  0  0  0  0
  119.8386  104.6844  104.8750 H   0  0  0  0  0  0  0  0  0  0  0  0
  119.5485  106.3731  104.5093 H   0  0  0  0  0  0  0  0  0  0  0  0
  125.5724  106.4691  107.2703 H   0  0  0  0  0  0  0  0  0  0  0  0
  126.0120  108.1731  107.5392 H   0  0  0  0  0  0  0  0  0  0  0  0
  124.0219  108.9228  106.2871 H   0  0  0  0  0  0  0  0  0  0  0  0
  126.1844  108.2180  105.1458 H   0  0  0  0  0  0  0  0  0  0  0  0
  124.8282  107.9576  104.0749 H   0  0  0  0  0  0  0  0  0  0  0  0
  124.9393  107.2504  109.2956 H   0  0  0  0  0  0  0  0  0  0  0  0
  1  6  1  0  0  0  0
  1  9  1  0  0  0  0
  1 10  2  0  0  0  0
  2  8  1  0  0  0  0
  2  9  2  0  0  0  0
  2 12  1  0  0  0  0
  3  4  1  0  0  0  0
  3  5  1  0  0  0  0
  4  5  1  0  0  0  0
  5  6  1  0  0  0  0
  7  8  1  0  0  0  0
  7 13  1  0  0  0  0
  8 11  1  0  0  0  0
 10 12  1  0  0  0  0
  3 14  1  0  0  0  0
  3 15  1  0  0  0  0
  4 16  1  0  0  0  0
  4 17  1  0  0  0  0
  5 18  1  0  0  0  0
  6 19  1  0  0  0  0
  6 20  1  0  0  0  0
  7 21  1  0  0  0  0
  7 22  1  0  0  0  0
  8 23  1  0  0  0  0
 11 24  1  0  0  0  0
 11 25  1  0  0  0  0
 13 26  1  0  0  0  0
M  END
> <FRED Chemgauss4 score>
-7.687906

$$$$
C88037185	P137697142
  -OEChem-05182014473D

 25 26  0     1  0  0  0  0  0999 V2000
  120.4203  105.1123  106.9012 C   0  0  0  0  0  0  0  0  0  0  0  0
  119.2075  105.3763  106.2704 C   0  0  0  0  0  0  0  0  0  0  0  0
  121.5348  105.7238  106.3375 C   0  0  0  0  0  0  0  0  0  0  0  0
  119.1890  106.2068  105.1547 C   0  0  0  0  0  0  0  0  0  0  0  0
  121.4378  106.5435  105.2188 C   0  0  0  0  0  0  0  0  0  0  0  0
  123.5042  106.5154  105.7273 C   0  0  0  0  0  0  0  0  0  0  0  0
  117.8751  106.4764  104.4938 C   0  0  0  0  0  0  0  0  0  0  0  0
  125.5542  106.6373  107.2021 C   0  0  0  0  0  0  0  0  0  0  0  0
  124.9630  106.7259  105.7801 C   0  0  2  0  0  0  0  0  0  0  0  0
  120.2638  106.8098  104.5939 N   0  0  0  0  0  0  0  0  0  0  0  0
  122.6679  107.0280  104.8511 N   0  0  0  0  0  0  0  0  0  0  0  0
  122.8682  105.7222  106.6442 N   0  0  0  0  0  0  0  0  0  0  0  0
  125.3720  107.9888  105.1738 N   0  0  0  0  0  0  0  0  0  0  0  0
  120.4880  104.4726  107.7725 H   0  0  0  0  0  0  0  0  0  0  0  0
  118.2930  104.9335  106.6537 H   0  0  0  0  0  0  0  0  0  0  0  0
  117.4035  107.3606  104.9365 H   0  0  0  0  0  0  0  0  0  0  0  0
  118.0021  106.6476  103.4184 H   0  0  0  0  0  0  0  0  0  0  0  0
  117.1953  105.6232  104.6046 H   0  0  0  0  0  0  0  0  0  0  0  0
  125.0732  107.3685  107.8610 H   0  0  0  0  0  0  0  0  0  0  0  0
  125.4148  105.6425  107.6401 H   0  0  0  0  0  0  0  0  0  0  0  0
  126.6310  106.8402  107.2010 H   0  0  0  0  0  0  0  0  0  0  0  0
  125.4977  105.9607  105.1791 H   0  0  0  0  0  0  0  0  0  0  0  0
  123.3039  105.2248  107.4097 H   0  0  0  0  0  0  0  0  0  0  0  0
  124.8830  108.3008  104.3625 H   0  0  0  0  0  0  0  0  0  0  0  0
  126.2405  108.3877  105.4595 H   0  0  0  0  0  0  0  0  0  0  0  0
  1  2  2  0  0  0  0
  1  3  1  0  0  0  0
  2  4  1  0  0  0  0
  3  5  2  0  0  0  0
  3 12  1  0  0  0  0
  4  7  1  0  0  0  0
  4 10  2  0  0  0  0
  5 10  1  0  0  0  0
  5 11  1  0  0  0  0
  6  9  1  0  0  0  0
  6 11  2  0  0  0  0
  6 12  1  0  0  0  0
  8  9  1  0  0  0  0
  9 13  1  0  0  0  0
  1 14  1  0  0  0  0
  2 15  1  0  0  0  0
  7 16  1  0  0  0  0
  7 17  1  0  0  0  0
  7 18  1  0  0  0  0
  8 19  1  0  0  0  0
  8 20  1  0  0  0  0
  8 21  1  0  0  0  0
  9 22  1  0  0  0  0
 12 23  1  0  0  0  0
 13 24  1  0  0  0  0
 13 25  1  0  0  0  0
M  END
> <FRED Chemgauss4 score>
-7.686462

$$$$
C44170752	P130288104
  -OEChem-05182014473D

 35 36  0     1  0  0  0  0  0999 V2000
  125.7785  102.7485  106.7648 C   0  0  0  0  0  0  0  0  0  0  0  0
  125.2505  103.3980  107.6252 C   0  0  0  0  0  0  0  0  0  0  0  0
  118.7873  104.0871  106.0538 C   0  0  0  0  0  0  0  0  0  0  0  0
  119.5161  104.9221  106.7918 C   0  0  0  0  0  0  0  0  0  0  0  0
  119.0713  104.0761  104.5951 C   0  0  0  0  0  0  0  0  0  0  0  0
  120.7346  105.7074  104.8542 C   0  0  0  0  0  0  0  0  0  0  0  0
  123.4070  105.7459  107.4136 C   0  0  1  0  0  0  0  0  0  0  0  0
  122.0769  105.8454  108.1337 C   0  0  2  0  0  0  0  0  0  0  0  0
  123.4822  107.0831  106.6962 C   0  0  1  0  0  0  0  0  0  0  0  0
  121.2281  106.6153  107.1302 C   0  0  2  0  0  0  0  0  0  0  0  0
  124.6068  104.1877  108.6756 C   0  0  0  0  0  0  0  0  0  0  0  0
  124.3502  107.0496  105.4505 C   0  0  0  0  0  0  0  0  0  0  0  0
  119.9876  104.8459  104.0689 N   0  0  0  0  0  0  0  0  0  0  0  0
  120.4924  105.7462  106.2515 N   0  0  0  0  0  0  0  0  0  0  0  0
  118.3402  103.2271  103.7971 N   0  0  0  0  0  0  0  0  0  0  0  0
  121.5939  106.4262  104.3409 O   0  0  0  0  0  0  0  0  0  0  0  0
  122.1290  107.4071  106.3338 O   0  0  0  0  0  0  0  0  0  0  0  0
  122.1932  106.6010  109.3374 O   0  0  0  0  0  0  0  0  0  0  0  0
  124.3419  108.3362  104.8574 O   0  0  0  0  0  0  0  0  0  0  0  0
  124.5017  105.5468  108.2818 O   0  0  0  0  0  0  0  0  0  0  0  0
  126.2471  102.1722  106.0015 H   0  0  0  0  0  0  0  0  0  0  0  0
  118.0248  103.4423  106.4697 H   0  0  0  0  0  0  0  0  0  0  0  0
  119.3737  104.9938  107.8644 H   0  0  0  0  0  0  0  0  0  0  0  0
  123.4091  104.8713  106.6882 H   0  0  0  0  0  0  0  0  0  0  0  0
  121.6725  104.8793  108.3581 H   0  0  0  0  0  0  0  0  0  0  0  0
  123.8419  107.8804  107.3710 H   0  0  0  0  0  0  0  0  0  0  0  0
  120.5048  107.2815  107.6118 H   0  0  0  0  0  0  0  0  0  0  0  0
  125.1713  104.1403  109.6119 H   0  0  0  0  0  0  0  0  0  0  0  0
  123.5966  103.8164  108.8722 H   0  0  0  0  0  0  0  0  0  0  0  0
  123.9553  106.3238  104.7381 H   0  0  0  0  0  0  0  0  0  0  0  0
  125.3746  106.7829  105.7144 H   0  0  0  0  0  0  0  0  0  0  0  0
  117.6536  102.6574  104.2292 H   0  0  0  0  0  0  0  0  0  0  0  0
  118.5316  103.2216  102.8243 H   0  0  0  0  0  0  0  0  0  0  0  0
  121.3112  106.6267  109.7481 H   0  0  0  0  0  0  0  0  0  0  0  0
  124.9029  108.2879  104.0649 H   0  0  0  0  0  0  0  0  0  0  0  0
  1  2  3  0  0  0  0
  2 11  1  0  0  0  0
  3  4  2  0  0  0  0
  3  5  1  0  0  0  0
  4 14  1  0  0  0  0
  5 13  2  0  0  0  0
  5 15  1  0  0  0  0
  6 13  1  0  0  0  0
  6 14  1  0  0  0  0
  6 16  2  0  0  0  0
  7  8  1  0  0  0  0
  7  9  1  0  0  0  0
  7 20  1  0  0  0  0
  8 10  1  0  0  0  0
  8 18  1  0  0  0  0
  9 12  1  0  0  0  0
  9 17  1  0  0  0  0
 10 14  1  0  0  0  0
 10 17  1  0  0  0  0
 11 20  1  0  0  0  0
 12 19  1  0  0  0  0
  1 21  1  0  0  0  0
  3 22  1  0  0  0  0
  4 23  1  0  0  0  0
  7 24  1  0  0  0  0
  8 25  1  0  0  0  0
  9 26  1  0  0  0  0
 10 27  1  0  0  0  0
 11 28  1  0  0  0  0
 11 29  1  0  0  0  0
 12 30  1  0  0  0  0
 12 31  1  0  0  0  0
 15 32  1  0  0  0  0
 15 33  1  0  0  0  0
 18 34  1  0  0  0  0
 19 35  1  0  0  0  0
M  END
> <FRED Chemgauss4 score>
-7.683061

$$$$
acivicin	P10000037
  -OEChem-05182014473D

 18 18  0     1  0  0  0  0  0999 V2000
  124.3367  104.2155  108.6441 C   0  0  0  0  0  0  0  0  0  0  0  0
  124.9023  107.5558  105.9206 C   0  0  0  0  0  0  0  0  0  0  0  0
  123.7593  104.7995  107.4187 C   0  0  0  0  0  0  0  0  0  0  0  0
  125.0576  105.1080  106.7063 C   0  0  1  0  0  0  0  0  0  0  0  0
  125.5252  106.5451  106.8948 C   0  0  2  0  0  0  0  0  0  0  0  0
  125.5781  103.8729  108.5881 N   0  0  0  0  0  0  0  0  0  0  0  0
  125.2853  106.9077  108.3258 N   0  3  0  0  0  0  0  0  0  0  0  0
  123.6434  107.6439  105.9277 O   0  5  0  0  0  0  0  0  0  0  0  0
  125.7427  108.1829  105.2123 O   0  0  0  0  0  0  0  0  0  0  0  0
  126.0265  104.2189  107.2877 O   0  0  0  0  0  0  0  0  0  0  0  0
  123.3826  103.9829  110.0216 Cl  0  0  0  0  0  0  0  0  0  0  0  0
  123.1866  104.0242  106.9006 H   0  0  0  0  0  0  0  0  0  0  0  0
  123.1280  105.6700  107.6071 H   0  0  0  0  0  0  0  0  0  0  0  0
  124.9778  104.8886  105.6364 H   0  0  0  0  0  0  0  0  0  0  0  0
  126.6127  106.5830  106.7642 H   0  0  0  0  0  0  0  0  0  0  0  0
  125.0735  106.0718  108.8731 H   0  0  0  0  0  0  0  0  0  0  0  0
  124.4978  107.5541  108.4002 H   0  0  0  0  0  0  0  0  0  0  0  0
  126.1134  107.3557  108.7219 H   0  0  0  0  0  0  0  0  0  0  0  0
  1  3  1  0  0  0  0
  1  6  2  0  0  0  0
  1 11  1  0  0  0  0
  2  5  1  0  0  0  0
  2  8  1  0  0  0  0
  2  9  2  0  0  0  0
  3  4  1  0  0  0  0
  4  5  1  0  0  0  0
  4 10  1  0  0  0  0
  5  7  1  0  0  0  0
  6 10  1  0  0  0  0
  3 12  1  0  0  0  0
  3 13  1  0  0  0  0
  4 14  1  0  0  0  0
  5 15  1  0  0  0  0
  7 16  1  0  0  0  0
  7 17  1  0  0  0  0
  7 18  1  0  0  0  0
M  CHG  2   7   1   8  -1
M  END
> <FRED Chemgauss4 score>
-7.678364

$$$$
C82924737	P129630013
  -OEChem-05182014473D

 28 28  0     0  0  0  0  0  0999 V2000
  116.3562  104.8336  103.7324 C   0  0  0  0  0  0  0  0  0  0  0  0
  121.5283  106.0470  104.7668 C   0  0  0  0  0  0  0  0  0  0  0  0
  122.2658  105.6241  106.7947 C   0  0  0  0  0  0  0  0  0  0  0  0
  121.4329  105.1227  105.8244 C   0  0  0  0  0  0  0  0  0  0  0  0
  117.0339  104.4187  104.9696 C   0  0  0  0  0  0  0  0  0  0  0  0
  120.6055  103.8713  105.8824 C   0  0  0  0  0  0  0  0  0  0  0  0
  123.7228  107.6579  106.9341 C   0  0  0  0  0  0  0  0  0  0  0  0
  118.5472  104.5813  104.8726 C   0  0  0  0  0  0  0  0  0  0  0  0
  125.1479  107.4789  106.4284 C   0  0  0  0  0  0  0  0  0  0  0  0
  115.8193  105.1605  102.7570 N   0  0  0  0  0  0  0  0  0  0  0  0
  122.3563  107.0589  105.0395 N   0  0  0  0  0  0  0  0  0  0  0  0
  122.7887  106.7736  106.2795 N   0  0  0  0  0  0  0  0  0  0  0  0
  119.1900  104.1613  106.0969 N   0  0  0  0  0  0  0  0  0  0  0  0
  125.2062  107.7861  105.0415 O   0  0  0  0  0  0  0  0  0  0  0  0
  121.0293  106.0279  103.8082 H   0  0  0  0  0  0  0  0  0  0  0  0
  122.5234  105.2703  107.7838 H   0  0  0  0  0  0  0  0  0  0  0  0
  116.8019  103.3652  105.1647 H   0  0  0  0  0  0  0  0  0  0  0  0
  116.6426  104.9957  105.8156 H   0  0  0  0  0  0  0  0  0  0  0  0
  120.6961  103.3049  104.9491 H   0  0  0  0  0  0  0  0  0  0  0  0
  120.9398  103.2164  106.6939 H   0  0  0  0  0  0  0  0  0  0  0  0
  123.3727  108.6845  106.7752 H   0  0  0  0  0  0  0  0  0  0  0  0
  123.6675  107.4463  108.0081 H   0  0  0  0  0  0  0  0  0  0  0  0
  118.9299  103.9670  104.0511 H   0  0  0  0  0  0  0  0  0  0  0  0
  118.8153  105.6224  104.6609 H   0  0  0  0  0  0  0  0  0  0  0  0
  125.8164  108.1688  106.9530 H   0  0  0  0  0  0  0  0  0  0  0  0
  125.5078  106.4557  106.5774 H   0  0  0  0  0  0  0  0  0  0  0  0
  118.7337  103.3189  106.4570 H   0  0  0  0  0  0  0  0  0  0  0  0
  126.1280  107.6587  104.7653 H   0  0  0  0  0  0  0  0  0  0  0  0
  1  5  1  0  0  0  0
  1 10  3  0  0  0  0
  2  4  1  0  0  0  0
  2 11  2  0  0  0  0
  3  4  2  0  0  0  0
  3 12  1  0  0  0  0
  4  6  1  0  0  0  0
  5  8  1  0  0  0  0
  6 13  1  0  0  0  0
  7  9  1  0  0  0  0
  7 12  1  0  0  0  0
  8 13  1  0  0  0  0
  9 14  1  0  0  0  0
 11 12  1  0  0  0  0
  2 15  1  0  0  0  0
  3 16  1  0  0  0  0
  5 17  1  0  0  0  0
  5 18  1  0  0  0  0
  6 19  1  0  0  0  0
  6 20  1  0  0  0  0
  7 21  1  0  0  0  0
  7 22  1  0  0  0  0
  8 23  1  0  0  0  0
  8 24  1  0  0  0  0
  9 25  1  0  0  0  0
  9 26  1  0  0  0  0
 13 27  1  0  0  0  0
 14 28  1  0  0  0  0
M  END
> <FRED Chemgauss4 score>
-7.672923

$$$$
C70419488	P108576612
  -OEChem-05182014473D

 35 36  0     0  0  0  0  0  0999 V2000
  121.1337  106.3777  104.4396 C   0  0  0  0  0  0  0  0  0  0  0  0
  121.8384  104.6858  106.0137 C   0  0  0  0  0  0  0  0  0  0  0  0
  119.8064  105.9845  104.6111 C   0  0  0  0  0  0  0  0  0  0  0  0
  120.5111  104.2925  106.1852 C   0  0  0  0  0  0  0  0  0  0  0  0
  126.1703  106.1280  107.5108 C   0  0  0  0  0  0  0  0  0  0  0  0
  122.1496  105.7283  105.1409 C   0  0  0  0  0  0  0  0  0  0  0  0
  119.4951  104.9419  105.4839 C   0  0  0  0  0  0  0  0  0  0  0  0
  124.8432  106.3379  107.2628 C   0  0  0  0  0  0  0  0  0  0  0  0
  125.0121  105.1754  109.1392 C   0  0  0  0  0  0  0  0  0  0  0  0
  115.8572  104.6861  105.2300 C   0  0  0  0  0  0  0  0  0  0  0  0
  124.6639  104.4317  110.3722 C   0  0  0  0  0  0  0  0  0  0  0  0
  117.2115  105.2653  104.9040 C   0  0  0  0  0  0  0  0  0  0  0  0
  123.4316  106.1072  104.9743 N   0  5  0  0  0  0  0  0  0  0  0  0
  124.1497  105.7373  108.2859 N   0  0  0  0  0  0  0  0  0  0  0  0
  126.2454  105.4066  108.6779 N   0  3  0  0  0  0  0  0  0  0  0  0
  115.7178  103.3488  104.9732 N   0  0  0  0  0  0  0  0  0  0  0  0
  123.2168  108.1626  106.5219 O   0  0  0  0  0  0  0  0  0  0  0  0
  125.3047  107.8606  105.2665 O   0  0  0  0  0  0  0  0  0  0  0  0
  118.2000  104.5584  105.6516 O   0  0  0  0  0  0  0  0  0  0  0  0
  114.6245  105.6054  105.8827 S   0  0  0  0  0  0  0  0  0  0  0  0
  124.1311  107.2297  105.8666 S   0  0  0  0  0  0  0  0  0  0  0  0
  121.3571  107.1923  103.7540 H   0  0  0  0  0  0  0  0  0  0  0  0
  122.6172  104.1671  106.5686 H   0  0  0  0  0  0  0  0  0  0  0  0
  119.0190  106.4935  104.0613 H   0  0  0  0  0  0  0  0  0  0  0  0
  120.2749  103.4791  106.8656 H   0  0  0  0  0  0  0  0  0  0  0  0
  127.0923  106.3857  107.0283 H   0  0  0  0  0  0  0  0  0  0  0  0
  124.5343  103.3598  110.1599 H   0  0  0  0  0  0  0  0  0  0  0  0
  125.4429  104.5334  111.1442 H   0  0  0  0  0  0  0  0  0  0  0  0
  123.7307  104.8038  110.8237 H   0  0  0  0  0  0  0  0  0  0  0  0
  117.4364  105.1384  103.8405 H   0  0  0  0  0  0  0  0  0  0  0  0
  117.2682  106.3311  105.1469 H   0  0  0  0  0  0  0  0  0  0  0  0
  123.1378  105.7224  108.3800 H   0  0  0  0  0  0  0  0  0  0  0  0
  127.1053  105.0964  109.1222 H   0  0  0  0  0  0  0  0  0  0  0  0
  116.4722  102.7873  104.5918 H   0  0  0  0  0  0  0  0  0  0  0  0
  114.8438  102.8685  105.1605 H   0  0  0  0  0  0  0  0  0  0  0  0
  1  3  2  0  0  0  0
  1  6  1  0  0  0  0
  2  4  1  0  0  0  0
  2  6  2  0  0  0  0
  3  7  1  0  0  0  0
  4  7  2  0  0  0  0
  5  8  2  0  0  0  0
  5 15  1  0  0  0  0
  6 13  1  0  0  0  0
  7 19  1  0  0  0  0
  8 14  1  0  0  0  0
  8 21  1  0  0  0  0
  9 11  1  0  0  0  0
  9 14  1  0  0  0  0
  9 15  2  0  0  0  0
 10 12  1  0  0  0  0
 10 16  1  0  0  0  0
 10 20  2  0  0  0  0
 12 19  1  0  0  0  0
 13 21  1  0  0  0  0
 17 21  2  0  0  0  0
 18 21  2  0  0  0  0
  1 22  1  0  0  0  0
  2 23  1  0  0  0  0
  3 24  1  0  0  0  0
  4 25  1  0  0  0  0
  5 26  1  0  0  0  0
 11 27  1  0  0  0  0
 11 28  1  0  0  0  0
 11 29  1  0  0  0  0
 12 30  1  0  0  0  0
 12 31  1  0  0  0  0
 14 32  1  0  0  0  0
 15 33  1  0  0  0  0
 16 34  1  0  0  0  0
 16 35  1  0  0  0  0
M  CHG  2  13  -1  15   1
M  END
> <FRED Chemgauss4 score>
-7.672664

$$$$
C85549993	P133918258
  -OEChem-05182014473D

 30 30  0     1  0  0  0  0  0999 V2000
  121.6162  105.0785  106.0660 C   0  0  0  0  0  0  0  0  0  0  0  0
  121.5868  106.0319  105.0699 C   0  0  0  0  0  0  0  0  0  0  0  0
  123.4262  106.6679  106.0809 C   0  0  0  0  0  0  0  0  0  0  0  0
  118.7300  104.2758   99.8100 C   0  0  0  0  0  0  0  0  0  0  0  0
  125.7519  106.5861  107.0769 C   0  0  0  0  0  0  0  0  0  0  0  0
  120.5381  106.1525  104.0022 C   0  0  0  0  0  0  0  0  0  0  0  0
  119.8025  104.1652  100.8843 C   0  0  0  0  0  0  0  0  0  0  0  0
  119.6669  105.2321  101.9640 C   0  0  0  0  0  0  0  0  0  0  0  0
  124.6502  107.4309  106.4086 C   0  0  1  0  0  0  0  0  0  0  0  0
  122.6237  106.9444  105.0771 N   0  0  0  0  0  0  0  0  0  0  0  0
  125.2309  108.0960  105.2485 N   0  0  0  0  0  0  0  0  0  0  0  0
  120.6949  105.1337  102.9628 N   0  0  0  0  0  0  0  0  0  0  0  0
  122.9946  105.3237  107.0565 S   0  0  0  0  0  0  0  0  0  0  0  0
  120.9191  104.2744  106.2555 H   0  0  0  0  0  0  0  0  0  0  0  0
  117.7293  104.1810  100.2436 H   0  0  0  0  0  0  0  0  0  0  0  0
  118.7928  105.2497   99.3139 H   0  0  0  0  0  0  0  0  0  0  0  0
  118.8495  103.5018   99.0456 H   0  0  0  0  0  0  0  0  0  0  0  0
  126.0298  105.7430  106.4350 H   0  0  0  0  0  0  0  0  0  0  0  0
  126.6541  107.1772  107.2704 H   0  0  0  0  0  0  0  0  0  0  0  0
  125.4191  106.1824  108.0398 H   0  0  0  0  0  0  0  0  0  0  0  0
  119.5360  106.0451  104.4314 H   0  0  0  0  0  0  0  0  0  0  0  0
  120.5811  107.1339  103.5182 H   0  0  0  0  0  0  0  0  0  0  0  0
  120.7855  104.2651  100.4094 H   0  0  0  0  0  0  0  0  0  0  0  0
  119.7597  103.1664  101.3345 H   0  0  0  0  0  0  0  0  0  0  0  0
  119.7483  106.2285  101.5183 H   0  0  0  0  0  0  0  0  0  0  0  0
  118.6992  105.1637  102.4709 H   0  0  0  0  0  0  0  0  0  0  0  0
  124.4224  108.2584  107.1104 H   0  0  0  0  0  0  0  0  0  0  0  0
  126.2028  108.3221  105.2721 H   0  0  0  0  0  0  0  0  0  0  0  0
  124.6117  108.4819  104.5673 H   0  0  0  0  0  0  0  0  0  0  0  0
  121.6198  105.2512  102.5337 H   0  0  0  0  0  0  0  0  0  0  0  0
  1  2  2  0  0  0  0
  1 13  1  0  0  0  0
  2  6  1  0  0  0  0
  2 10  1  0  0  0  0
  3  9  1  0  0  0  0
  3 10  2  0  0  0  0
  3 13  1  0  0  0  0
  4  7  1  0  0  0  0
  5  9  1  0  0  0  0
  6 12  1  0  0  0  0
  7  8  1  0  0  0  0
  8 12  1  0  0  0  0
  9 11  1  0  0  0  0
  1 14  1  0  0  0  0
  4 15  1  0  0  0  0
  4 16  1  0  0  0  0
  4 17  1  0  0  0  0
  5 18  1  0  0  0  0
  5 19  1  0  0  0  0
  5 20  1  0  0  0  0
  6 21  1  0  0  0  0
  6 22  1  0  0  0  0
  7 23  1  0  0  0  0
  7 24  1  0  0  0  0
  8 25  1  0  0  0  0
  8 26  1  0  0  0  0
  9 27  1  0  0  0  0
 11 28  1  0  0  0  0
 11 29  1  0  0  0  0
 12 30  1  0  0  0  0
M  END
> <FRED Chemgauss4 score>
-7.647837

$$$$
C83500168	P130624190
  -OEChem-05182014473D

 32 32  0     1  0  0  0  0  0999 V2000
  121.5231  106.2859  105.6170 C   0  0  0  0  0  0  0  0  0  0  0  0
  123.5727  106.5356  105.9236 C   0  0  0  0  0  0  0  0  0  0  0  0
  115.7546  105.0037  105.3362 C   0  0  0  0  0  0  0  0  0  0  0  0
  125.5018  107.4577  107.2728 C   0  0  0  0  0  0  0  0  0  0  0  0
  117.2625  104.7666  102.7072 C   0  0  0  0  0  0  0  0  0  0  0  0
  120.1442  106.4831  105.0501 C   0  0  0  0  0  0  0  0  0  0  0  0
  117.2624  104.8104  105.2282 C   0  0  0  0  0  0  0  0  0  0  0  0
  124.9899  106.9324  105.9144 C   0  0  2  0  0  0  0  0  0  0  0  0
  117.8758  105.4044  103.9516 C   0  0  1  0  0  0  0  0  0  0  0  0
  122.5961  107.0135  105.1880 N   0  0  0  0  0  0  0  0  0  0  0  0
  121.7745  105.3879  106.5718 N   0  0  0  0  0  0  0  0  0  0  0  0
  123.0921  105.5679  106.7497 N   0  0  0  0  0  0  0  0  0  0  0  0
  125.2949  107.9191  104.8815 N   0  0  0  0  0  0  0  0  0  0  0  0
  119.6886  105.1723  103.8951 S   0  0  0  0  0  0  0  0  0  0  0  0
  115.4722  106.0574  105.2586 H   0  0  0  0  0  0  0  0  0  0  0  0
  115.2502  104.4671  104.5259 H   0  0  0  0  0  0  0  0  0  0  0  0
  115.3764  104.6120  106.2860 H   0  0  0  0  0  0  0  0  0  0  0  0
  124.9014  108.3136  107.6000 H   0  0  0  0  0  0  0  0  0  0  0  0
  125.4524  106.6903  108.0535 H   0  0  0  0  0  0  0  0  0  0  0  0
  126.5462  107.7830  107.2071 H   0  0  0  0  0  0  0  0  0  0  0  0
  117.4387  103.6851  102.7069 H   0  0  0  0  0  0  0  0  0  0  0  0
  117.7094  105.1672  101.7904 H   0  0  0  0  0  0  0  0  0  0  0  0
  116.1790  104.9232  102.6602 H   0  0  0  0  0  0  0  0  0  0  0  0
  119.4037  106.5171  105.8569 H   0  0  0  0  0  0  0  0  0  0  0  0
  120.0847  107.4461  104.5309 H   0  0  0  0  0  0  0  0  0  0  0  0
  117.4990  103.7422  105.3110 H   0  0  0  0  0  0  0  0  0  0  0  0
  117.7227  105.2955  106.0985 H   0  0  0  0  0  0  0  0  0  0  0  0
  125.6455  106.0732  105.6554 H   0  0  0  0  0  0  0  0  0  0  0  0
  117.6835  106.4827  103.9230 H   0  0  0  0  0  0  0  0  0  0  0  0
  123.5803  105.0056  107.4369 H   0  0  0  0  0  0  0  0  0  0  0  0
  124.8276  107.8396  104.0047 H   0  0  0  0  0  0  0  0  0  0  0  0
  126.0932  108.5019  105.0113 H   0  0  0  0  0  0  0  0  0  0  0  0
  1  6  1  0  0  0  0
  1 10  1  0  0  0  0
  1 11  2  0  0  0  0
  2  8  1  0  0  0  0
  2 10  2  0  0  0  0
  2 12  1  0  0  0  0
  3  7  1  0  0  0  0
  4  8  1  0  0  0  0
  5  9  1  0  0  0  0
  6 14  1  0  0  0  0
  7  9  1  0  0  0  0
  8 13  1  0  0  0  0
  9 14  1  0  0  0  0
 11 12  1  0  0  0  0
  3 15  1  0  0  0  0
  3 16  1  0  0  0  0
  3 17  1  0  0  0  0
  4 18  1  0  0  0  0
  4 19  1  0  0  0  0
  4 20  1  0  0  0  0
  5 21  1  0  0  0  0
  5 22  1  0  0  0  0
  5 23  1  0  0  0  0
  6 24  1  0  0  0  0
  6 25  1  0  0  0  0
  7 26  1  0  0  0  0
  7 27  1  0  0  0  0
  8 28  1  0  0  0  0
  9 29  1  0  0  0  0
 12 30  1  0  0  0  0
 13 31  1  0  0  0  0
 13 32  1  0  0  0  0
M  END
> <FRED Chemgauss4 score>
-7.636919

$$$$
C37487654	P55750519
  -OEChem-05182014473D

 32 32  0     0  0  0  0  0  0999 V2000
  122.6316  105.5796  107.2651 C   0  0  0  0  0  0  0  0  0  0  0  0
  123.5052  104.9610  108.0981 C   0  0  0  0  0  0  0  0  0  0  0  0
  123.1401  106.4146  106.1383 C   0  0  0  0  0  0  0  0  0  0  0  0
  125.4389  105.8773  106.8614 C   0  0  0  0  0  0  0  0  0  0  0  0
  117.4723  105.9101  105.5512 C   0  0  0  0  0  0  0  0  0  0  0  0
  117.0331  107.3068  105.2602 C   0  0  0  0  0  0  0  0  0  0  0  0
  125.8032  104.4255  108.8177 C   0  0  0  0  0  0  0  0  0  0  0  0
  120.5394  104.4949  106.6544 C   0  0  0  0  0  0  0  0  0  0  0  0
  119.0465  104.5656  106.9284 C   0  0  0  0  0  0  0  0  0  0  0  0
  124.5107  106.4927  106.0333 N   0  0  0  0  0  0  0  0  0  0  0  0
  124.8903  105.1082  107.8985 N   0  0  0  0  0  0  0  0  0  0  0  0
  123.0148  104.1909  109.1350 N   0  0  0  0  0  0  0  0  0  0  0  0
  121.2662  105.5197  107.3473 N   0  0  0  0  0  0  0  0  0  0  0  0
  118.4787  105.8150  106.4993 N   0  0  0  0  0  0  0  0  0  0  0  0
  122.3753  106.9871  105.3645 O   0  0  0  0  0  0  0  0  0  0  0  0
  126.6478  106.0229  106.6626 O   0  0  0  0  0  0  0  0  0  0  0  0
  116.9413  104.9750  104.9637 O   0  0  0  0  0  0  0  0  0  0  0  0
  117.6095  107.7670  104.4416 H   0  0  0  0  0  0  0  0  0  0  0  0
  115.9802  107.3582  104.9395 H   0  0  0  0  0  0  0  0  0  0  0  0
  117.1137  108.0116  106.1032 H   0  0  0  0  0  0  0  0  0  0  0  0
  126.0369  103.4260  108.4419 H   0  0  0  0  0  0  0  0  0  0  0  0
  125.3444  104.3316  109.8058 H   0  0  0  0  0  0  0  0  0  0  0  0
  126.7337  104.9910  108.9157 H   0  0  0  0  0  0  0  0  0  0  0  0
  120.7552  104.6057  105.5870 H   0  0  0  0  0  0  0  0  0  0  0  0
  120.9385  103.5336  106.9926 H   0  0  0  0  0  0  0  0  0  0  0  0
  118.5237  103.7720  106.3859 H   0  0  0  0  0  0  0  0  0  0  0  0
  118.8315  104.4560  107.9963 H   0  0  0  0  0  0  0  0  0  0  0  0
  124.8808  107.0561  105.2729 H   0  0  0  0  0  0  0  0  0  0  0  0
  122.0335  104.1197  109.2307 H   0  0  0  0  0  0  0  0  0  0  0  0
  123.6695  103.7493  109.7296 H   0  0  0  0  0  0  0  0  0  0  0  0
  120.8243  106.2107  107.9017 H   0  0  0  0  0  0  0  0  0  0  0  0
  118.8347  106.6751  106.9138 H   0  0  0  0  0  0  0  0  0  0  0  0
  1  2  2  0  0  0  0
  1  3  1  0  0  0  0
  1 13  1  0  0  0  0
  2 11  1  0  0  0  0
  2 12  1  0  0  0  0
  3 10  1  0  0  0  0
  3 15  2  0  0  0  0
  4 10  1  0  0  0  0
  4 11  1  0  0  0  0
  4 16  2  0  0  0  0
  5  6  1  0  0  0  0
  5 14  1  0  0  0  0
  5 17  2  0  0  0  0
  7 11  1  0  0  0  0
  8  9  1  0  0  0  0
  8 13  1  0  0  0  0
  9 14  1  0  0  0  0
  6 18  1  0  0  0  0
  6 19  1  0  0  0  0
  6 20  1  0  0  0  0
  7 21  1  0  0  0  0
  7 22  1  0  0  0  0
  7 23  1  0  0  0  0
  8 24  1  0  0  0  0
  8 25  1  0  0  0  0
  9 26  1  0  0  0  0
  9 27  1  0  0  0  0
 10 28  1  0  0  0  0
 12 29  1  0  0  0  0
 12 30  1  0  0  0  0
 13 31  1  0  0  0  0
 14 32  1  0  0  0  0
M  END
> <FRED Chemgauss4 score>
-7.636505

$$$$
C95868194	P150889557
  -OEChem-05182014473D

 28 29  0     1  0  0  0  0  0999 V2000
  122.1399  105.6223  107.3148 C   0  0  0  0  0  0  0  0  0  0  0  0
  121.1391  105.2271  106.4619 C   0  0  0  0  0  0  0  0  0  0  0  0
  121.1315  106.2110  105.4426 C   0  0  0  0  0  0  0  0  0  0  0  0
  125.0294  107.3684  106.5993 C   0  0  0  0  0  0  0  0  0  0  0  0
  120.1997  104.0796  106.5162 C   0  0  0  0  0  0  0  0  0  0  0  0
  119.4937  103.8728  105.1635 C   0  0  0  0  0  0  0  0  0  0  0  0
  119.0375  105.2060  104.5356 C   0  0  0  0  0  0  0  0  0  0  0  0
  120.2057  106.1880  104.2731 C   0  0  2  0  0  0  0  0  0  0  0  0
  123.7216  107.5654  107.3306 C   0  0  0  0  0  0  0  0  0  0  0  0
  122.0507  107.1608  105.6389 N   0  0  0  0  0  0  0  0  0  0  0  0
  122.6490  106.7717  106.7805 N   0  0  0  0  0  0  0  0  0  0  0  0
  126.0478  108.1214  107.1440 N   0  0  0  0  0  0  0  0  0  0  0  0
  120.9540  105.7813  103.0826 N   0  0  0  0  0  0  0  0  0  0  0  0
  125.1727  106.6279  105.6307 O   0  0  0  0  0  0  0  0  0  0  0  0
  122.5220  105.1979  108.2333 H   0  0  0  0  0  0  0  0  0  0  0  0
  120.7633  103.1726  106.7733 H   0  0  0  0  0  0  0  0  0  0  0  0
  119.4499  104.2303  107.3031 H   0  0  0  0  0  0  0  0  0  0  0  0
  120.1706  103.3504  104.4760 H   0  0  0  0  0  0  0  0  0  0  0  0
  118.6167  103.2249  105.3004 H   0  0  0  0  0  0  0  0  0  0  0  0
  118.5085  104.9790  103.5932 H   0  0  0  0  0  0  0  0  0  0  0  0
  118.2944  105.6856  105.1936 H   0  0  0  0  0  0  0  0  0  0  0  0
  119.8072  107.1927  104.1248 H   0  0  0  0  0  0  0  0  0  0  0  0
  123.4263  108.6196  107.2822 H   0  0  0  0  0  0  0  0  0  0  0  0
  123.8391  107.2924  108.3855 H   0  0  0  0  0  0  0  0  0  0  0  0
  125.9054  108.7286  107.9448 H   0  0  0  0  0  0  0  0  0  0  0  0
  126.9850  108.0901  106.7561 H   0  0  0  0  0  0  0  0  0  0  0  0
  121.9009  106.0810  102.9994 H   0  0  0  0  0  0  0  0  0  0  0  0
  120.4433  105.4019  102.3154 H   0  0  0  0  0  0  0  0  0  0  0  0
  1  2  2  0  0  0  0
  1 11  1  0  0  0  0
  2  3  1  0  0  0  0
  2  5  1  0  0  0  0
  3  8  1  0  0  0  0
  3 10  2  0  0  0  0
  4  9  1  0  0  0  0
  4 12  1  0  0  0  0
  4 14  2  0  0  0  0
  5  6  1  0  0  0  0
  6  7  1  0  0  0  0
  7  8  1  0  0  0  0
  8 13  1  0  0  0  0
  9 11  1  0  0  0  0
 10 11  1  0  0  0  0
  1 15  1  0  0  0  0
  5 16  1  0  0  0  0
  5 17  1  0  0  0  0
  6 18  1  0  0  0  0
  6 19  1  0  0  0  0
  7 20  1  0  0  0  0
  7 21  1  0  0  0  0
  8 22  1  0  0  0  0
  9 23  1  0  0  0  0
  9 24  1  0  0  0  0
 12 25  1  0  0  0  0
 12 26  1  0  0  0  0
 13 27  1  0  0  0  0
 13 28  1  0  0  0  0
M  END
> <FRED Chemgauss4 score>
-7.634044

$$$$
C03869939	P56792461
  -OEChem-05182014473D

 22 22  0     1  0  0  0  0  0999 V2000
  123.3475  106.5088  105.7139 C   0  0  0  0  0  0  0  0  0  0  0  0
  124.8025  106.9190  105.6964 C   0  0  2  0  0  0  0  0  0  0  0  0
  125.2633  107.4757  107.0403 C   0  0  2  0  0  0  0  0  0  0  0  0
  124.5994  106.7820  108.2341 C   0  0  1  0  0  0  0  0  0  0  0  0
  123.8945  105.4777  107.8622 C   0  0  2  0  0  0  0  0  0  0  0  0
  124.7993  104.2745  107.6138 C   0  0  0  0  0  0  0  0  0  0  0  0
  122.5484  106.8258  104.8391 O   0  0  0  0  0  0  0  0  0  0  0  0
  122.9973  105.6967  106.7477 O   0  0  0  0  0  0  0  0  0  0  0  0
  125.0450  107.8623  104.6666 O   0  0  0  0  0  0  0  0  0  0  0  0
  124.9454  108.8708  107.1081 O   0  0  0  0  0  0  0  0  0  0  0  0
  125.5693  106.5722  109.2543 O   0  0  0  0  0  0  0  0  0  0  0  0
  125.1850  103.7339  108.8646 O   0  0  0  0  0  0  0  0  0  0  0  0
  125.3811  106.0144  105.4587 H   0  0  0  0  0  0  0  0  0  0  0  0
  126.3604  107.4059  107.1080 H   0  0  0  0  0  0  0  0  0  0  0  0
  123.8361  107.4796  108.6770 H   0  0  0  0  0  0  0  0  0  0  0  0
  123.2138  105.2159  108.7199 H   0  0  0  0  0  0  0  0  0  0  0  0
  125.6895  104.5843  107.0658 H   0  0  0  0  0  0  0  0  0  0  0  0
  124.2627  103.5156  107.0439 H   0  0  0  0  0  0  0  0  0  0  0  0
  124.8084  107.4331  103.8273 H   0  0  0  0  0  0  0  0  0  0  0  0
  125.2537  109.1819  107.9731 H   0  0  0  0  0  0  0  0  0  0  0  0
  125.1098  106.1333  109.9872 H   0  0  0  0  0  0  0  0  0  0  0  0
  125.7592  102.9710  108.6807 H   0  0  0  0  0  0  0  0  0  0  0  0
  1  2  1  0  0  0  0
  1  7  2  0  0  0  0
  1  8  1  0  0  0  0
  2  3  1  0  0  0  0
  2  9  1  0  0  0  0
  3  4  1  0  0  0  0
  3 10  1  0  0  0  0
  4  5  1  0  0  0  0
  4 11  1  0  0  0  0
  5  6  1  0  0  0  0
  5  8  1  0  0  0  0
  6 12  1  0  0  0  0
  2 13  1  0  0  0  0
  3 14  1  0  0  0  0
  4 15  1  0  0  0  0
  5 16  1  0  0  0  0
  6 17  1  0  0  0  0
  6 18  1  0  0  0  0
  9 19  1  0  0  0  0
 10 20  1  0  0  0  0
 11 21  1  0  0  0  0
 12 22  1  0  0  0  0
M  END
> <FRED Chemgauss4 score>
-7.633122

$$$$
C40304308	P61186967
  -OEChem-05182014473D

 34 34  0     0  0  0  0  0  0999 V2000
  124.4736  107.2680  105.9904 C   0  0  0  0  0  0  0  0  0  0  0  0
  123.5139  105.2618  106.9343 C   0  0  0  0  0  0  0  0  0  0  0  0
  123.4529  106.3181  106.0253 C   0  0  0  0  0  0  0  0  0  0  0  0
  125.5555  107.1617  106.8644 C   0  0  0  0  0  0  0  0  0  0  0  0
  124.5958  105.1555  107.8084 C   0  0  0  0  0  0  0  0  0  0  0  0
  125.6166  106.1055  107.7734 C   0  0  0  0  0  0  0  0  0  0  0  0
  122.3010  106.4311  105.0939 C   0  0  0  0  0  0  0  0  0  0  0  0
  119.2628  105.3411  104.6225 C   0  0  0  0  0  0  0  0  0  0  0  0
  117.1703  107.7492  105.1537 C   0  0  0  0  0  0  0  0  0  0  0  0
  120.5503  105.1844  103.8543 C   0  0  0  0  0  0  0  0  0  0  0  0
  116.3168  106.8549  104.2657 C   0  0  0  0  0  0  0  0  0  0  0  0
  116.7993  105.4094  104.2482 C   0  0  0  0  0  0  0  0  0  0  0  0
  126.5713  108.1431  106.8001 N   0  0  0  0  0  0  0  0  0  0  0  0
  121.6888  105.2427  104.7827 N   0  0  0  0  0  0  0  0  0  0  0  0
  118.1613  105.2893  103.7803 N   0  0  0  0  0  0  0  0  0  0  0  0
  121.9888  107.5358  104.6571 O   0  0  0  0  0  0  0  0  0  0  0  0
  119.2167  105.4918  105.8405 O   0  0  0  0  0  0  0  0  0  0  0  0
  124.6068  103.8209  108.9086 Cl  0  0  0  0  0  0  0  0  0  0  0  0
  126.9712  105.9910  108.8547 Cl  0  0  0  0  0  0  0  0  0  0  0  0
  124.4240  108.0916  105.2810 H   0  0  0  0  0  0  0  0  0  0  0  0
  122.7142  104.5245  106.9552 H   0  0  0  0  0  0  0  0  0  0  0  0
  117.1713  107.3892  106.1875 H   0  0  0  0  0  0  0  0  0  0  0  0
  118.2053  107.7565  104.7971 H   0  0  0  0  0  0  0  0  0  0  0  0
  116.8063  108.7812  105.1482 H   0  0  0  0  0  0  0  0  0  0  0  0
  120.5559  104.2201  103.3376 H   0  0  0  0  0  0  0  0  0  0  0  0
  120.6442  105.9895  103.1198 H   0  0  0  0  0  0  0  0  0  0  0  0
  116.3429  107.2492  103.2432 H   0  0  0  0  0  0  0  0  0  0  0  0
  115.2749  106.8999  104.6044 H   0  0  0  0  0  0  0  0  0  0  0  0
  116.7707  104.9929  105.2600 H   0  0  0  0  0  0  0  0  0  0  0  0
  116.1680  104.7875  103.6058 H   0  0  0  0  0  0  0  0  0  0  0  0
  126.5129  108.8558  106.1035 H   0  0  0  0  0  0  0  0  0  0  0  0
  127.3724  108.0500  107.3884 H   0  0  0  0  0  0  0  0  0  0  0  0
  122.0239  104.3583  105.1187 H   0  0  0  0  0  0  0  0  0  0  0  0
  118.3203  105.1605  102.7852 H   0  0  0  0  0  0  0  0  0  0  0  0
  1  3  1  0  0  0  0
  1  4  2  0  0  0  0
  2  3  2  0  0  0  0
  2  5  1  0  0  0  0
  3  7  1  0  0  0  0
  4  6  1  0  0  0  0
  4 13  1  0  0  0  0
  5  6  2  0  0  0  0
  5 18  1  0  0  0  0
  6 19  1  0  0  0  0
  7 14  1  0  0  0  0
  7 16  2  0  0  0  0
  8 10  1  0  0  0  0
  8 15  1  0  0  0  0
  8 17  2  0  0  0  0
  9 11  1  0  0  0  0
 10 14  1  0  0  0  0
 11 12  1  0  0  0  0
 12 15  1  0  0  0  0
  1 20  1  0  0  0  0
  2 21  1  0  0  0  0
  9 22  1  0  0  0  0
  9 23  1  0  0  0  0
  9 24  1  0  0  0  0
 10 25  1  0  0  0  0
 10 26  1  0  0  0  0
 11 27  1  0  0  0  0
 11 28  1  0  0  0  0
 12 29  1  0  0  0  0
 12 30  1  0  0  0  0
 13 31  1  0  0  0  0
 13 32  1  0  0  0  0
 14 33  1  0  0  0  0
 15 34  1  0  0  0  0
M  END
> <FRED Chemgauss4 score>
-7.630218

$$$$
C41058832	P62326259
  -OEChem-05182014473D

 29 30  0     1  0  0  0  0  0999 V2000
  121.8701  105.7352  105.7076 C   0  0  0  0  0  0  0  0  0  0  0  0
  123.6482  106.7352  106.1498 C   0  0  0  0  0  0  0  0  0  0  0  0
  118.5423  104.0782  104.9652 C   0  0  0  0  0  0  0  0  0  0  0  0
  119.2069  104.0769  103.5878 C   0  0  0  0  0  0  0  0  0  0  0  0
  119.5756  104.6343  105.9422 C   0  0  0  0  0  0  0  0  0  0  0  0
  120.6413  104.5436  103.8100 C   0  0  0  0  0  0  0  0  0  0  0  0
  120.5505  105.4178  105.0615 C   0  0  0  0  0  0  0  0  0  0  0  0
  125.8636  107.2164  107.2767 C   0  0  0  0  0  0  0  0  0  0  0  0
  124.8016  107.6448  106.2414 C   0  0  1  0  0  0  0  0  0  0  0  0
  122.5984  106.8394  105.3685 N   0  0  0  0  0  0  0  0  0  0  0  0
  122.4033  104.9544  106.6496 N   0  0  0  0  0  0  0  0  0  0  0  0
  123.5398  105.6162  106.9152 N   0  0  0  0  0  0  0  0  0  0  0  0
  125.4827  107.8403  104.9641 N   0  0  0  0  0  0  0  0  0  0  0  0
  117.6451  104.7278  104.9511 H   0  0  0  0  0  0  0  0  0  0  0  0
  118.1980  103.0684  105.2570 H   0  0  0  0  0  0  0  0  0  0  0  0
  119.2039  103.0532  103.1733 H   0  0  0  0  0  0  0  0  0  0  0  0
  118.6681  104.7166  102.8694 H   0  0  0  0  0  0  0  0  0  0  0  0
  119.1078  105.2650  106.7044 H   0  0  0  0  0  0  0  0  0  0  0  0
  120.0719  103.8039  106.4594 H   0  0  0  0  0  0  0  0  0  0  0  0
  121.3262  103.7024  103.8954 H   0  0  0  0  0  0  0  0  0  0  0  0
  120.9537  105.1545  102.9614 H   0  0  0  0  0  0  0  0  0  0  0  0
  120.0791  106.3803  104.7749 H   0  0  0  0  0  0  0  0  0  0  0  0
  126.2282  106.2081  107.0522 H   0  0  0  0  0  0  0  0  0  0  0  0
  126.7244  107.8945  107.2848 H   0  0  0  0  0  0  0  0  0  0  0  0
  125.4510  107.2083  108.2919 H   0  0  0  0  0  0  0  0  0  0  0  0
  124.4830  108.6686  106.5337 H   0  0  0  0  0  0  0  0  0  0  0  0
  124.1743  105.2495  107.6149 H   0  0  0  0  0  0  0  0  0  0  0  0
  126.4395  108.1192  104.9810 H   0  0  0  0  0  0  0  0  0  0  0  0
  124.9258  107.8887  104.1387 H   0  0  0  0  0  0  0  0  0  0  0  0
  1  7  1  0  0  0  0
  1 10  1  0  0  0  0
  1 11  2  0  0  0  0
  2  9  1  0  0  0  0
  2 10  2  0  0  0  0
  2 12  1  0  0  0  0
  3  4  1  0  0  0  0
  3  5  1  0  0  0  0
  4  6  1  0  0  0  0
  5  7  1  0  0  0  0
  6  7  1  0  0  0  0
  8  9  1  0  0  0  0
  9 13  1  0  0  0  0
 11 12  1  0  0  0  0
  3 14  1  0  0  0  0
  3 15  1  0  0  0  0
  4 16  1  0  0  0  0
  4 17  1  0  0  0  0
  5 18  1  0  0  0  0
  5 19  1  0  0  0  0
  6 20  1  0  0  0  0
  6 21  1  0  0  0  0
  7 22  1  0  0  0  0
  8 23  1  0  0  0  0
  8 24  1  0  0  0  0
  8 25  1  0  0  0  0
  9 26  1  0  0  0  0
 12 27  1  0  0  0  0
 13 28  1  0  0  0  0
 13 29  1  0  0  0  0
M  END
> <FRED Chemgauss4 score>
-7.627191

$$$$
C36904451	P54858491
  -OEChem-05182014473D

 25 25  0     0  0  0  0  0  0999 V2000
  123.3552  106.8209  105.6579 C   0  0  0  0  0  0  0  0  0  0  0  0
  124.5495  107.5763  106.1043 C   0  0  0  0  0  0  0  0  0  0  0  0
  121.4302  105.0381  107.7400 C   0  0  0  0  0  0  0  0  0  0  0  0
  122.4481  105.2056  108.8715 C   0  0  0  0  0  0  0  0  0  0  0  0
  121.9966  104.8137  106.3391 C   0  0  0  0  0  0  0  0  0  0  0  0
  124.6941  104.8215  108.0294 C   0  0  0  0  0  0  0  0  0  0  0  0
  124.4666  104.7965  106.5184 C   0  0  0  0  0  0  0  0  0  0  0  0
  123.5790  104.2758  108.8155 N   0  0  0  0  0  0  0  0  0  0  0  0
  123.2602  105.5124  106.1110 N   0  0  0  0  0  0  0  0  0  0  0  0
  124.3412  108.2510  107.2759 N   0  0  0  0  0  0  0  0  0  0  0  0
  122.5819  107.4284  104.9295 O   0  0  0  0  0  0  0  0  0  0  0  0
  125.5817  107.5604  105.4549 O   0  0  0  0  0  0  0  0  0  0  0  0
  120.7954  104.1675  107.9973 H   0  0  0  0  0  0  0  0  0  0  0  0
  120.7404  105.9067  107.7323 H   0  0  0  0  0  0  0  0  0  0  0  0
  122.8532  106.2214  108.8168 H   0  0  0  0  0  0  0  0  0  0  0  0
  121.9487  105.1335  109.8438 H   0  0  0  0  0  0  0  0  0  0  0  0
  122.1320  103.7440  106.1135 H   0  0  0  0  0  0  0  0  0  0  0  0
  121.2552  105.1787  105.6105 H   0  0  0  0  0  0  0  0  0  0  0  0
  125.6507  104.3429  108.3024 H   0  0  0  0  0  0  0  0  0  0  0  0
  124.8138  105.8758  108.3296 H   0  0  0  0  0  0  0  0  0  0  0  0
  125.3174  105.2289  106.0147 H   0  0  0  0  0  0  0  0  0  0  0  0
  124.3515  103.7715  106.1978 H   0  0  0  0  0  0  0  0  0  0  0  0
  123.8911  104.0464  109.7542 H   0  0  0  0  0  0  0  0  0  0  0  0
  123.4304  108.1796  107.7175 H   0  0  0  0  0  0  0  0  0  0  0  0
  125.0519  108.8195  107.7261 H   0  0  0  0  0  0  0  0  0  0  0  0
  1  2  1  0  0  0  0
  1  9  1  0  0  0  0
  1 11  2  0  0  0  0
  2 10  1  0  0  0  0
  2 12  2  0  0  0  0
  3  4  1  0  0  0  0
  3  5  1  0  0  0  0
  4  8  1  0  0  0  0
  5  9  1  0  0  0  0
  6  7  1  0  0  0  0
  6  8  1  0  0  0  0
  7  9  1  0  0  0  0
  3 13  1  0  0  0  0
  3 14  1  0  0  0  0
  4 15  1  0  0  0  0
  4 16  1  0  0  0  0
  5 17  1  0  0  0  0
  5 18  1  0  0  0  0
  6 19  1  0  0  0  0
  6 20  1  0  0  0  0
  7 21  1  0  0  0  0
  7 22  1  0  0  0  0
  8 23  1  0  0  0  0
 10 24  1  0  0  0  0
 10 25  1  0  0  0  0
M  END
> <FRED Chemgauss4 score>
-7.626482

$$$$
C79095671	P123477401
  -OEChem-05182014473D

 31 32  0     0  0  0  0  0  0999 V2000
  120.1434  106.1874  105.6877 C   0  0  0  0  0  0  0  0  0  0  0  0
  120.7198  103.9217  106.2970 C   0  0  0  0  0  0  0  0  0  0  0  0
  118.7905  105.8487  105.7080 C   0  0  0  0  0  0  0  0  0  0  0  0
  119.3669  103.5830  106.3173 C   0  0  0  0  0  0  0  0  0  0  0  0
  121.1081  105.2239  105.9822 C   0  0  0  0  0  0  0  0  0  0  0  0
  118.4022  104.5465  106.0228 C   0  0  0  0  0  0  0  0  0  0  0  0
  124.7101  108.1764  106.7098 C   0  0  0  0  0  0  0  0  0  0  0  0
  123.5336  107.8979  108.6360 C   0  0  0  0  0  0  0  0  0  0  0  0
  122.5491  105.5847  105.9610 C   0  0  0  0  0  0  0  0  0  0  0  0
  123.8459  109.4096  106.8522 C   0  0  0  0  0  0  0  0  0  0  0  0
  125.1177  106.0673  107.9920 C   0  0  0  0  0  0  0  0  0  0  0  0
  124.7933  105.0748  106.8882 C   0  0  0  0  0  0  0  0  0  0  0  0
  123.1612  109.1254  108.0825 N   0  0  0  0  0  0  0  0  0  0  0  0
  124.4711  107.3475  107.7838 N   0  0  0  0  0  0  0  0  0  0  0  0
  123.3803  104.8311  106.7811 N   0  0  0  0  0  0  0  0  0  0  0  0
  125.4798  107.9885  105.7771 O   0  0  0  0  0  0  0  0  0  0  0  0
  123.0978  107.4258  109.6779 O   0  0  0  0  0  0  0  0  0  0  0  0
  122.9236  106.5182  105.2561 O   0  0  0  0  0  0  0  0  0  0  0  0
  116.3870  104.0423  106.0530 I   0  0  0  0  0  0  0  0  0  0  0  0
  120.4350  107.2051  105.4410 H   0  0  0  0  0  0  0  0  0  0  0  0
  121.4633  103.1631  106.5281 H   0  0  0  0  0  0  0  0  0  0  0  0
  118.0552  106.6149  105.4755 H   0  0  0  0  0  0  0  0  0  0  0  0
  119.0860  102.5625  106.5651 H   0  0  0  0  0  0  0  0  0  0  0  0
  124.4508  110.3104  106.9667 H   0  0  0  0  0  0  0  0  0  0  0  0
  123.1239  109.4886  106.0379 H   0  0  0  0  0  0  0  0  0  0  0  0
  126.1945  106.2519  108.0594 H   0  0  0  0  0  0  0  0  0  0  0  0
  124.7689  105.6845  108.9562 H   0  0  0  0  0  0  0  0  0  0  0  0
  125.1267  105.4622  105.9205 H   0  0  0  0  0  0  0  0  0  0  0  0
  125.2813  104.1105  107.0628 H   0  0  0  0  0  0  0  0  0  0  0  0
  122.4802  109.7491  108.5043 H   0  0  0  0  0  0  0  0  0  0  0  0
  122.9813  104.1137  107.3835 H   0  0  0  0  0  0  0  0  0  0  0  0
  1  3  1  0  0  0  0
  1  5  2  0  0  0  0
  2  4  2  0  0  0  0
  2  5  1  0  0  0  0
  3  6  2  0  0  0  0
  4  6  1  0  0  0  0
  5  9  1  0  0  0  0
  6 19  1  0  0  0  0
  7 10  1  0  0  0  0
  7 14  1  0  0  0  0
  7 16  2  0  0  0  0
  8 13  1  0  0  0  0
  8 14  1  0  0  0  0
  8 17  2  0  0  0  0
  9 15  1  0  0  0  0
  9 18  2  0  0  0  0
 10 13  1  0  0  0  0
 11 12  1  0  0  0  0
 11 14  1  0  0  0  0
 12 15  1  0  0  0  0
  1 20  1  0  0  0  0
  2 21  1  0  0  0  0
  3 22  1  0  0  0  0
  4 23  1  0  0  0  0
 10 24  1  0  0  0  0
 10 25  1  0  0  0  0
 11 26  1  0  0  0  0
 11 27  1  0  0  0  0
 12 28  1  0  0  0  0
 12 29  1  0  0  0  0
 13 30  1  0  0  0  0
 15 31  1  0  0  0  0
M  END
> <FRED Chemgauss4 score>
-7.620722

$$$$
C86525873	P135471827
  -OEChem-05182014473D

 26 26  0     1  0  0  0  0  0999 V2000
  126.5317  105.7983  108.1987 C   0  0  0  0  0  0  0  0  0  0  0  0
  124.8850  106.1606  106.9682 C   0  0  0  0  0  0  0  0  0  0  0  0
  118.7239  103.9531  105.9310 C   0  0  0  0  0  0  0  0  0  0  0  0
  119.8763  104.9389  106.0017 C   0  0  0  0  0  0  0  0  0  0  0  0
  121.0224  104.4096  106.8501 C   0  0  0  0  0  0  0  0  0  0  0  0
  122.8481  105.3471  105.7053 C   0  0  0  0  0  0  0  0  0  0  0  0
  123.9494  106.4061  105.8041 C   0  0  1  0  0  0  0  0  0  0  0  0
  126.1810  105.9665  106.8898 N   0  0  0  0  0  0  0  0  0  0  0  0
  124.4923  106.1084  108.2692 N   0  0  0  0  0  0  0  0  0  0  0  0
  125.5342  105.8762  109.0821 N   0  0  0  0  0  0  0  0  0  0  0  0
  123.3769  107.7334  105.8768 N   0  0  0  0  0  0  0  0  0  0  0  0
  122.0561  105.3838  106.8849 O   0  0  0  0  0  0  0  0  0  0  0  0
  127.5537  105.6134  108.5024 H   0  0  0  0  0  0  0  0  0  0  0  0
  119.0544  102.9924  105.5234 H   0  0  0  0  0  0  0  0  0  0  0  0
  118.3146  103.7751  106.9303 H   0  0  0  0  0  0  0  0  0  0  0  0
  117.9181  104.3366  105.2972 H   0  0  0  0  0  0  0  0  0  0  0  0
  119.5251  105.8933  106.4120 H   0  0  0  0  0  0  0  0  0  0  0  0
  120.2389  105.1610  104.9909 H   0  0  0  0  0  0  0  0  0  0  0  0
  120.6923  104.2150  107.8756 H   0  0  0  0  0  0  0  0  0  0  0  0
  121.4285  103.4858  106.4257 H   0  0  0  0  0  0  0  0  0  0  0  0
  122.1865  105.5487  104.8557 H   0  0  0  0  0  0  0  0  0  0  0  0
  123.2590  104.3373  105.5983 H   0  0  0  0  0  0  0  0  0  0  0  0
  124.5218  106.3981  104.8678 H   0  0  0  0  0  0  0  0  0  0  0  0
  125.4444  105.8023  110.0917 H   0  0  0  0  0  0  0  0  0  0  0  0
  122.5242  107.9184  105.3820 H   0  0  0  0  0  0  0  0  0  0  0  0
  123.9379  108.4809  106.2415 H   0  0  0  0  0  0  0  0  0  0  0  0
  1  8  2  0  0  0  0
  1 10  1  0  0  0  0
  2  7  1  0  0  0  0
  2  8  1  0  0  0  0
  2  9  2  0  0  0  0
  3  4  1  0  0  0  0
  4  5  1  0  0  0  0
  5 12  1  0  0  0  0
  6  7  1  0  0  0  0
  6 12  1  0  0  0  0
  7 11  1  0  0  0  0
  9 10  1  0  0  0  0
  1 13  1  0  0  0  0
  3 14  1  0  0  0  0
  3 15  1  0  0  0  0
  3 16  1  0  0  0  0
  4 17  1  0  0  0  0
  4 18  1  0  0  0  0
  5 19  1  0  0  0  0
  5 20  1  0  0  0  0
  6 21  1  0  0  0  0
  6 22  1  0  0  0  0
  7 23  1  0  0  0  0
 10 24  1  0  0  0  0
 11 25  1  0  0  0  0
 11 26  1  0  0  0  0
M  END
> <FRED Chemgauss4 score>
-7.620463

$$$$
C83693137	P130915850
  -OEChem-05182014473D

 25 25  0     0  0  0  0  0  0999 V2000
  120.5439  106.0288  105.4525 C   0  0  0  0  0  0  0  0  0  0  0  0
  119.6129  104.3493  106.3707 C   0  0  0  0  0  0  0  0  0  0  0  0
  121.5648  105.3158  106.0354 C   0  0  0  0  0  0  0  0  0  0  0  0
  123.0483  105.5385  106.0985 C   0  0  0  0  0  0  0  0  0  0  0  0
  124.9173  105.7075  108.2806 C   0  0  0  0  0  0  0  0  0  0  0  0
  125.7249  106.6120  106.0739 C   0  0  0  0  0  0  0  0  0  0  0  0
  124.7456  106.8027  107.2305 C   0  0  0  0  0  0  0  0  0  0  0  0
  119.3313  105.4221  105.6651 N   0  0  0  0  0  0  0  0  0  0  0  0
  120.9529  104.2430  106.6201 N   0  0  0  0  0  0  0  0  0  0  0  0
  123.3834  106.8070  106.7380 N   0  0  0  0  0  0  0  0  0  0  0  0
  126.0514  106.0017  109.0885 O   0  0  0  0  0  0  0  0  0  0  0  0
  125.5354  107.6499  105.1188 O   0  0  0  0  0  0  0  0  0  0  0  0
  120.6177  106.9486  104.8900 H   0  0  0  0  0  0  0  0  0  0  0  0
  118.9024  103.6177  106.7285 H   0  0  0  0  0  0  0  0  0  0  0  0
  123.5354  104.7366  106.6640 H   0  0  0  0  0  0  0  0  0  0  0  0
  123.4881  105.5426  105.0956 H   0  0  0  0  0  0  0  0  0  0  0  0
  125.0902  104.7367  107.8045 H   0  0  0  0  0  0  0  0  0  0  0  0
  124.0380  105.6328  108.9297 H   0  0  0  0  0  0  0  0  0  0  0  0
  125.5752  105.6484  105.5748 H   0  0  0  0  0  0  0  0  0  0  0  0
  126.7592  106.6702  106.4282 H   0  0  0  0  0  0  0  0  0  0  0  0
  124.8902  107.7896  107.6859 H   0  0  0  0  0  0  0  0  0  0  0  0
  121.4056  103.5035  107.1412 H   0  0  0  0  0  0  0  0  0  0  0  0
  123.2665  107.5607  106.0573 H   0  0  0  0  0  0  0  0  0  0  0  0
  126.1234  105.2849  109.7385 H   0  0  0  0  0  0  0  0  0  0  0  0
  126.1737  107.4914  104.4054 H   0  0  0  0  0  0  0  0  0  0  0  0
  1  3  2  0  0  0  0
  1  8  1  0  0  0  0
  2  8  2  0  0  0  0
  2  9  1  0  0  0  0
  3  4  1  0  0  0  0
  3  9  1  0  0  0  0
  4 10  1  0  0  0  0
  5  7  1  0  0  0  0
  5 11  1  0  0  0  0
  6  7  1  0  0  0  0
  6 12  1  0  0  0  0
  7 10  1  0  0  0  0
  1 13  1  0  0  0  0
  2 14  1  0  0  0  0
  4 15  1  0  0  0  0
  4 16  1  0  0  0  0
  5 17  1  0  0  0  0
  5 18  1  0  0  0  0
  6 19  1  0  0  0  0
  6 20  1  0  0  0  0
  7 21  1  0  0  0  0
  9 22  1  0  0  0  0
 10 23  1  0  0  0  0
 11 24  1  0  0  0  0
 12 25  1  0  0  0  0
M  END
> <FRED Chemgauss4 score>
-7.614278

$$$$
C37052890	P55080318
  -OEChem-05182014473D

 32 33  0     0  0  0  0  0  0999 V2000
  125.1377  103.8414  107.1710 C   0  0  0  0  0  0  0  0  0  0  0  0
  116.5638  104.2327  103.1493 C   0  0  0  0  0  0  0  0  0  0  0  0
  123.7711  104.1058  107.0813 C   0  0  0  0  0  0  0  0  0  0  0  0
  126.0246  104.8623  107.5131 C   0  0  0  0  0  0  0  0  0  0  0  0
  117.7279  103.7512  103.7944 C   0  0  0  0  0  0  0  0  0  0  0  0
  124.1781  106.4119  107.6756 C   0  0  0  0  0  0  0  0  0  0  0  0
  116.4053  105.5333  103.5680 C   0  0  0  0  0  0  0  0  0  0  0  0
  123.2913  105.3910  107.3336 C   0  0  0  0  0  0  0  0  0  0  0  0
  125.5448  106.1475  107.7654 C   0  0  0  0  0  0  0  0  0  0  0  0
  118.1981  104.7920  104.5610 C   0  0  0  0  0  0  0  0  0  0  0  0
  121.8240  105.6745  107.2365 C   0  0  0  0  0  0  0  0  0  0  0  0
  119.3785  104.9412  105.4767 C   0  0  0  0  0  0  0  0  0  0  0  0
  126.4415  107.1796  108.1116 N   0  0  0  0  0  0  0  0  0  0  0  0
  119.8813  106.3265  105.5071 N   0  0  0  0  0  0  0  0  0  0  0  0
  121.7787  108.0025  106.0412 O   0  0  0  0  0  0  0  0  0  0  0  0
  122.2809  105.9395  104.6818 O   0  0  0  0  0  0  0  0  0  0  0  0
  117.3975  105.8820  104.4285 O   0  0  0  0  0  0  0  0  0  0  0  0
  121.5493  106.6021  105.7444 S   0  0  0  0  0  0  0  0  0  0  0  0
  125.5113  102.8405  106.9747 H   0  0  0  0  0  0  0  0  0  0  0  0
  115.9204  103.6985  102.4653 H   0  0  0  0  0  0  0  0  0  0  0  0
  123.0872  103.3041  106.8141 H   0  0  0  0  0  0  0  0  0  0  0  0
  127.0876  104.6453  107.5804 H   0  0  0  0  0  0  0  0  0  0  0  0
  118.1668  102.7673  103.7093 H   0  0  0  0  0  0  0  0  0  0  0  0
  123.8023  107.4134  107.8723 H   0  0  0  0  0  0  0  0  0  0  0  0
  115.6775  106.3029  103.3569 H   0  0  0  0  0  0  0  0  0  0  0  0
  121.4652  106.2713  108.0797 H   0  0  0  0  0  0  0  0  0  0  0  0
  121.2320  104.7566  107.1808 H   0  0  0  0  0  0  0  0  0  0  0  0
  119.1115  104.6568  106.5004 H   0  0  0  0  0  0  0  0  0  0  0  0
  120.2032  104.2925  105.1636 H   0  0  0  0  0  0  0  0  0  0  0  0
  127.4126  106.9666  108.2190 H   0  0  0  0  0  0  0  0  0  0  0  0
  126.0802  108.0847  108.3359 H   0  0  0  0  0  0  0  0  0  0  0  0
  119.2330  106.9962  105.9413 H   0  0  0  0  0  0  0  0  0  0  0  0
  1  3  1  0  0  0  0
  1  4  2  0  0  0  0
  2  5  1  0  0  0  0
  2  7  2  0  0  0  0
  3  8  2  0  0  0  0
  4  9  1  0  0  0  0
  5 10  2  0  0  0  0
  6  8  1  0  0  0  0
  6  9  2  0  0  0  0
  7 17  1  0  0  0  0
  8 11  1  0  0  0  0
  9 13  1  0  0  0  0
 10 12  1  0  0  0  0
 10 17  1  0  0  0  0
 11 18  1  0  0  0  0
 12 14  1  0  0  0  0
 14 18  1  0  0  0  0
 15 18  2  0  0  0  0
 16 18  2  0  0  0  0
  1 19  1  0  0  0  0
  2 20  1  0  0  0  0
  3 21  1  0  0  0  0
  4 22  1  0  0  0  0
  5 23  1  0  0  0  0
  6 24  1  0  0  0  0
  7 25  1  0  0  0  0
 11 26  1  0  0  0  0
 11 27  1  0  0  0  0
 12 28  1  0  0  0  0
 12 29  1  0  0  0  0
 13 30  1  0  0  0  0
 13 31  1  0  0  0  0
 14 32  1  0  0  0  0
M  END
> <FRED Chemgauss4 score>
-7.612648

$$$$
C91280072	P142762411
  -OEChem-05182014473D

 38 39  0     1  0  0  0  0  0999 V2000
  115.3096  104.9742  102.7342 C   0  0  0  0  0  0  0  0  0  0  0  0
  115.9819  105.2804  101.5510 C   0  0  0  0  0  0  0  0  0  0  0  0
  116.0062  104.4225  103.8094 C   0  0  0  0  0  0  0  0  0  0  0  0
  117.3507  105.0348  101.4430 C   0  0  0  0  0  0  0  0  0  0  0  0
  121.8855  106.0165  105.0350 C   0  0  0  0  0  0  0  0  0  0  0  0
  122.8377  105.1963  106.8393 C   0  0  0  0  0  0  0  0  0  0  0  0
  117.3750  104.1769  103.7014 C   0  0  0  0  0  0  0  0  0  0  0  0
  121.7797  104.9866  105.9889 C   0  0  0  0  0  0  0  0  0  0  0  0
  118.0473  104.4831  102.5182 C   0  0  0  0  0  0  0  0  0  0  0  0
  118.6464  105.6847  106.0345 C   0  0  0  0  0  0  0  0  0  0  0  0
  118.0822  103.5822  104.8848 C   0  0  0  0  0  0  0  0  0  0  0  0
  124.6684  106.9053  106.9256 C   0  0  0  0  0  0  0  0  0  0  0  0
  125.9451  106.1296  106.6201 C   0  0  0  0  0  0  0  0  0  0  0  0
  122.9283  106.8208  105.2580 N   0  0  0  0  0  0  0  0  0  0  0  0
  123.4874  106.2963  106.3618 N   0  0  0  0  0  0  0  0  0  0  0  0
  127.1109  106.7336  107.2067 N   0  0  0  0  0  0  0  0  0  0  0  0
  119.1729  104.4604  105.3794 N   0  0  2  0  0  0  0  0  0  0  0  0
  121.0047  102.6264  105.2161 O   0  0  0  0  0  0  0  0  0  0  0  0
  120.3105  103.4439  107.4819 O   0  0  0  0  0  0  0  0  0  0  0  0
  120.5587  103.7068  106.0763 S   0  0  0  0  0  0  0  0  0  0  0  0
  119.9066  104.1645  102.3223 Br  0  0  0  0  0  0  0  0  0  0  0  0
  114.2441  105.1655  102.8180 H   0  0  0  0  0  0  0  0  0  0  0  0
  115.4392  105.7100  100.7142 H   0  0  0  0  0  0  0  0  0  0  0  0
  115.4722  104.1879  104.7264 H   0  0  0  0  0  0  0  0  0  0  0  0
  117.8574  105.2800  100.5128 H   0  0  0  0  0  0  0  0  0  0  0  0
  121.2475  106.2172  104.1859 H   0  0  0  0  0  0  0  0  0  0  0  0
  123.1754  104.6698  107.7217 H   0  0  0  0  0  0  0  0  0  0  0  0
  119.4729  106.3076  106.3863 H   0  0  0  0  0  0  0  0  0  0  0  0
  118.0196  105.4162  106.8892 H   0  0  0  0  0  0  0  0  0  0  0  0
  118.0458  106.2632  105.3274 H   0  0  0  0  0  0  0  0  0  0  0  0
  117.3815  103.4171  105.7104 H   0  0  0  0  0  0  0  0  0  0  0  0
  118.5222  102.6116  104.6326 H   0  0  0  0  0  0  0  0  0  0  0  0
  124.5123  106.9632  108.0095 H   0  0  0  0  0  0  0  0  0  0  0  0
  124.7301  107.9344  106.5519 H   0  0  0  0  0  0  0  0  0  0  0  0
  125.8740  105.1166  107.0279 H   0  0  0  0  0  0  0  0  0  0  0  0
  126.1213  106.0545  105.5422 H   0  0  0  0  0  0  0  0  0  0  0  0
  128.0150  106.5537  106.7998 H   0  0  0  0  0  0  0  0  0  0  0  0
  127.0397  107.1536  108.1199 H   0  0  0  0  0  0  0  0  0  0  0  0
  1  2  1  0  0  0  0
  1  3  2  0  0  0  0
  2  4  2  0  0  0  0
  3  7  1  0  0  0  0
  4  9  1  0  0  0  0
  5  8  1  0  0  0  0
  5 14  2  0  0  0  0
  6  8  2  0  0  0  0
  6 15  1  0  0  0  0
  7  9  2  0  0  0  0
  7 11  1  0  0  0  0
  8 20  1  0  0  0  0
  9 21  1  0  0  0  0
 10 17  1  0  0  0  0
 11 17  1  0  0  0  0
 12 13  1  0  0  0  0
 12 15  1  0  0  0  0
 13 16  1  0  0  0  0
 14 15  1  0  0  0  0
 17 20  1  0  0  0  0
 18 20  2  0  0  0  0
 19 20  2  0  0  0  0
  1 22  1  0  0  0  0
  2 23  1  0  0  0  0
  3 24  1  0  0  0  0
  4 25  1  0  0  0  0
  5 26  1  0  0  0  0
  6 27  1  0  0  0  0
 10 28  1  0  0  0  0
 10 29  1  0  0  0  0
 10 30  1  0  0  0  0
 11 31  1  0  0  0  0
 11 32  1  0  0  0  0
 12 33  1  0  0  0  0
 12 34  1  0  0  0  0
 13 35  1  0  0  0  0
 13 36  1  0  0  0  0
 16 37  1  0  0  0  0
 16 38  1  0  0  0  0
M  END
> <FRED Chemgauss4 score>
-7.607461

$$$$
C88067457	P137750758
  -OEChem-05182014473D

 29 29  0     1  0  0  0  0  0999 V2000
  119.9439  104.2709  106.9356 C   0  0  0  0  0  0  0  0  0  0  0  0
  120.6521  104.3346  104.6266 C   0  0  0  0  0  0  0  0  0  0  0  0
  118.6829  103.8279  106.5367 C   0  0  0  0  0  0  0  0  0  0  0  0
  119.3911  103.8916  104.2277 C   0  0  0  0  0  0  0  0  0  0  0  0
  120.9286  104.5242  105.9806 C   0  0  0  0  0  0  0  0  0  0  0  0
  118.4064  103.6383  105.1827 C   0  0  0  0  0  0  0  0  0  0  0  0
  124.8144  106.0515  107.6282 C   0  0  0  0  0  0  0  0  0  0  0  0
  122.2860  105.0004  106.4098 C   0  0  0  0  0  0  0  0  0  0  0  0
  124.4203  106.8129  105.2241 C   0  0  0  0  0  0  0  0  0  0  0  0
  124.0735  107.0144  106.7037 C   0  0  1  0  0  0  0  0  0  0  0  0
  125.6732  107.4719  104.8699 N   0  0  0  0  0  0  0  0  0  0  0  0
  121.6175  107.5313  105.7808 O   0  0  0  0  0  0  0  0  0  0  0  0
  117.1763  103.2048  104.7937 O   0  0  0  0  0  0  0  0  0  0  0  0
  122.2583  106.8135  106.9209 S   0  0  1  0  0  0  0  0  0  0  0  0
  120.1506  104.4160  107.9926 H   0  0  0  0  0  0  0  0  0  0  0  0
  121.4132  104.5296  103.8755 H   0  0  0  0  0  0  0  0  0  0  0  0
  117.9201  103.6320  107.2855 H   0  0  0  0  0  0  0  0  0  0  0  0
  119.1821  103.7455  103.1716 H   0  0  0  0  0  0  0  0  0  0  0  0
  124.6182  105.0075  107.3600 H   0  0  0  0  0  0  0  0  0  0  0  0
  125.8961  106.2140  107.5854 H   0  0  0  0  0  0  0  0  0  0  0  0
  124.5046  106.1890  108.6701 H   0  0  0  0  0  0  0  0  0  0  0  0
  122.6481  104.4166  107.2628 H   0  0  0  0  0  0  0  0  0  0  0  0
  123.0164  104.8837  105.6021 H   0  0  0  0  0  0  0  0  0  0  0  0
  124.5039  105.7447  104.9919 H   0  0  0  0  0  0  0  0  0  0  0  0
  123.6216  107.2162  104.5903 H   0  0  0  0  0  0  0  0  0  0  0  0
  124.2939  108.0460  107.0025 H   0  0  0  0  0  0  0  0  0  0  0  0
  125.8087  107.7450  103.9202 H   0  0  0  0  0  0  0  0  0  0  0  0
  126.4218  107.4434  105.5286 H   0  0  0  0  0  0  0  0  0  0  0  0
  117.1388  103.1221  103.8275 H   0  0  0  0  0  0  0  0  0  0  0  0
  1  3  2  0  0  0  0
  1  5  1  0  0  0  0
  2  4  1  0  0  0  0
  2  5  2  0  0  0  0
  3  6  1  0  0  0  0
  4  6  2  0  0  0  0
  5  8  1  0  0  0  0
  6 13  1  0  0  0  0
  7 10  1  0  0  0  0
  8 14  1  0  0  0  0
  9 10  1  0  0  0  0
  9 11  1  0  0  0  0
 10 14  1  0  0  0  0
 12 14  2  0  0  0  0
  1 15  1  0  0  0  0
  2 16  1  0  0  0  0
  3 17  1  0  0  0  0
  4 18  1  0  0  0  0
  7 19  1  0  0  0  0
  7 20  1  0  0  0  0
  7 21  1  0  0  0  0
  8 22  1  0  0  0  0
  8 23  1  0  0  0  0
  9 24  1  0  0  0  0
  9 25  1  0  0  0  0
 10 26  1  0  0  0  0
 11 27  1  0  0  0  0
 11 28  1  0  0  0  0
 13 29  1  0  0  0  0
M  END
> <FRED Chemgauss4 score>
-7.603221

$$$$
L-Threonine	P10000027
  -OEChem-05182014473D

 17 16  0     1  0  0  0  0  0999 V2000
  124.5532  107.2268  105.8772 C   0  0  0  0  0  0  0  0  0  0  0  0
  125.1165  104.2505  108.3864 C   0  0  0  0  0  0  0  0  0  0  0  0
  124.8618  106.5152  107.2102 C   0  0  2  0  0  0  0  0  0  0  0  0
  124.4172  105.0462  107.2881 C   0  0  2  0  0  0  0  0  0  0  0  0
  124.2966  107.2459  108.3899 N   0  3  0  0  0  0  0  0  0  0  0  0
  123.3387  107.2975  105.5424 O   0  5  0  0  0  0  0  0  0  0  0  0
  125.5725  107.6754  105.2758 O   0  0  0  0  0  0  0  0  0  0  0  0
  123.0076  104.9911  107.5054 O   0  0  0  0  0  0  0  0  0  0  0  0
  124.9488  104.6971  109.3709 H   0  0  0  0  0  0  0  0  0  0  0  0
  126.1934  104.1702  108.2070 H   0  0  0  0  0  0  0  0  0  0  0  0
  124.7353  103.2233  108.4059 H   0  0  0  0  0  0  0  0  0  0  0  0
  125.9510  106.5653  107.3349 H   0  0  0  0  0  0  0  0  0  0  0  0
  124.6190  104.5549  106.3288 H   0  0  0  0  0  0  0  0  0  0  0  0
  125.0460  107.6898  108.9213 H   0  0  0  0  0  0  0  0  0  0  0  0
  123.8011  106.5962  109.0014 H   0  0  0  0  0  0  0  0  0  0  0  0
  123.6440  107.9660  108.0784 H   0  0  0  0  0  0  0  0  0  0  0  0
  122.7615  104.0543  107.4716 H   0  0  0  0  0  0  0  0  0  0  0  0
  1  3  1  0  0  0  0
  1  6  1  0  0  0  0
  1  7  2  0  0  0  0
  2  4  1  0  0  0  0
  3  4  1  0  0  0  0
  3  5  1  0  0  0  0
  4  8  1  0  0  0  0
  2  9  1  0  0  0  0
  2 10  1  0  0  0  0
  2 11  1  0  0  0  0
  3 12  1  0  0  0  0
  4 13  1  0  0  0  0
  5 14  1  0  0  0  0
  5 15  1  0  0  0  0
  5 16  1  0  0  0  0
  8 17  1  0  0  0  0
M  CHG  2   5   1   6  -1
M  END
> <FRED Chemgauss4 score>
-7.602892

$$$$
C88489803	P138410747
  -OEChem-05182014473D

 32 32  0     1  0  0  0  0  0999 V2000
  119.1013  104.4863  104.9781 C   0  0  0  0  0  0  0  0  0  0  0  0
  118.8789  103.9868  106.2535 C   0  0  0  0  0  0  0  0  0  0  0  0
  121.1496  104.2280  106.8003 C   0  0  0  0  0  0  0  0  0  0  0  0
  120.3927  104.8625  104.6215 C   0  0  0  0  0  0  0  0  0  0  0  0
  121.4310  104.7337  105.5391 C   0  0  0  0  0  0  0  0  0  0  0  0
  124.0469  107.7111  107.7789 C   0  0  0  0  0  0  0  0  0  0  0  0
  120.6212  105.4011  103.2447 C   0  0  0  0  0  0  0  0  0  0  0  0
  125.7038  105.1866  108.4950 C   0  0  0  0  0  0  0  0  0  0  0  0
  125.1925  105.5249  107.1018 C   0  0  0  0  0  0  0  0  0  0  0  0
  123.8965  106.3430  107.1303 C   0  0  2  0  0  0  0  0  0  0  0  0
  122.7020  105.0886  105.2305 N   0  5  0  0  0  0  0  0  0  0  0  0
  119.8969  103.8733  107.1174 N   0  3  0  0  0  0  0  0  0  0  0  0
  124.9825  108.5503  107.2374 N   0  0  0  0  0  0  0  0  0  0  0  0
  122.2700  107.6052  105.6247 O   0  0  0  0  0  0  0  0  0  0  0  0
  124.4580  106.9104  104.7079 O   0  0  0  0  0  0  0  0  0  0  0  0
  123.1089  108.1782  109.0852 S   0  0  0  0  0  0  0  0  0  0  0  0
  123.2701  106.5510  105.4779 S   0  0  0  0  0  0  0  0  0  0  0  0
  118.2755  104.5776  104.2798 H   0  0  0  0  0  0  0  0  0  0  0  0
  117.9108  103.6700  106.6160 H   0  0  0  0  0  0  0  0  0  0  0  0
  121.8806  104.0879  107.5862 H   0  0  0  0  0  0  0  0  0  0  0  0
  120.4959  106.4892  103.2394 H   0  0  0  0  0  0  0  0  0  0  0  0
  121.6305  105.1616  102.8905 H   0  0  0  0  0  0  0  0  0  0  0  0
  119.9168  104.9625  102.5283 H   0  0  0  0  0  0  0  0  0  0  0  0
  124.9451  104.6614  109.0832 H   0  0  0  0  0  0  0  0  0  0  0  0
  125.9665  106.1038  109.0320 H   0  0  0  0  0  0  0  0  0  0  0  0
  126.5980  104.5575  108.4430 H   0  0  0  0  0  0  0  0  0  0  0  0
  125.9794  106.0483  106.5467 H   0  0  0  0  0  0  0  0  0  0  0  0
  125.0148  104.5858  106.5627 H   0  0  0  0  0  0  0  0  0  0  0  0
  123.1217  105.7633  107.6475 H   0  0  0  0  0  0  0  0  0  0  0  0
  119.7118  103.5042  108.0498 H   0  0  0  0  0  0  0  0  0  0  0  0
  125.5520  108.2927  106.4385 H   0  0  0  0  0  0  0  0  0  0  0  0
  125.1303  109.4797  107.6167 H   0  0  0  0  0  0  0  0  0  0  0  0
  1  2  2  0  0  0  0
  1  4  1  0  0  0  0
  2 12  1  0  0  0  0
  3  5  1  0  0  0  0
  3 12  2  0  0  0  0
  4  5  2  0  0  0  0
  4  7  1  0  0  0  0
  5 11  1  0  0  0  0
  6 10  1  0  0  0  0
  6 13  1  0  0  0  0
  6 16  2  0  0  0  0
  8  9  1  0  0  0  0
  9 10  1  0  0  0  0
 10 17  1  0  0  0  0
 11 17  1  0  0  0  0
 14 17  2  0  0  0  0
 15 17  2  0  0  0  0
  1 18  1  0  0  0  0
  2 19  1  0  0  0  0
  3 20  1  0  0  0  0
  7 21  1  0  0  0  0
  7 22  1  0  0  0  0
  7 23  1  0  0  0  0
  8 24  1  0  0  0  0
  8 25  1  0  0  0  0
  8 26  1  0  0  0  0
  9 27  1  0  0  0  0
  9 28  1  0  0  0  0
 10 29  1  0  0  0  0
 12 30  1  0  0  0  0
 13 31  1  0  0  0  0
 13 32  1  0  0  0  0
M  CHG  2  11  -1  12   1
M  END
> <FRED Chemgauss4 score>
-7.597442

$$$$
C84081042	P131595110
  -OEChem-05182014473D

 33 33  0     1  0  0  0  0  0999 V2000
  120.3901  104.0389  103.7614 C   0  0  0  0  0  0  0  0  0  0  0  0
  120.5244  104.2846  101.6514 C   0  0  0  0  0  0  0  0  0  0  0  0
  121.3365  105.0168  103.5648 C   0  0  0  0  0  0  0  0  0  0  0  0
  126.0633  104.7467  104.9276 C   0  0  0  0  0  0  0  0  0  0  0  0
  122.1760  105.8269  104.5205 C   0  0  0  0  0  0  0  0  0  0  0  0
  125.4236  104.5306  107.9268 C   0  0  0  0  0  0  0  0  0  0  0  0
  124.4932  105.0025  106.8125 C   0  0  0  0  0  0  0  0  0  0  0  0
  126.1720  105.6845  108.5824 C   0  0  0  0  0  0  0  0  0  0  0  0
  119.8886  103.5871  102.5664 N   0  0  0  0  0  0  0  0  0  0  0  0
  123.4641  106.1105  103.9034 N   0  5  0  0  0  0  0  0  0  0  0  0
  121.4119  105.1630  102.2083 N   0  0  0  0  0  0  0  0  0  0  0  0
  125.2564  105.6971  105.7402 N   0  0  2  0  0  0  0  0  0  0  0  0
  125.1907  106.6046  109.2078 N   0  3  0  0  0  0  0  0  0  0  0  0
  125.4685  107.7085  104.1784 O   0  0  0  0  0  0  0  0  0  0  0  0
  123.7096  107.7253  105.8979 O   0  0  0  0  0  0  0  0  0  0  0  0
  124.4095  106.9685  104.8618 S   0  0  0  0  0  0  0  0  0  0  0  0
  120.0426  103.6355  104.7019 H   0  0  0  0  0  0  0  0  0  0  0  0
  120.3909  104.2038  100.5820 H   0  0  0  0  0  0  0  0  0  0  0  0
  126.6105  105.2871  104.1508 H   0  0  0  0  0  0  0  0  0  0  0  0
  125.4118  104.0093  104.4509 H   0  0  0  0  0  0  0  0  0  0  0  0
  126.7813  104.2213  105.5630 H   0  0  0  0  0  0  0  0  0  0  0  0
  121.6433  106.7468  104.7910 H   0  0  0  0  0  0  0  0  0  0  0  0
  122.2956  105.2700  105.4578 H   0  0  0  0  0  0  0  0  0  0  0  0
  126.1397  103.7997  107.5302 H   0  0  0  0  0  0  0  0  0  0  0  0
  124.8237  104.0102  108.6839 H   0  0  0  0  0  0  0  0  0  0  0  0
  123.9803  104.1402  106.3744 H   0  0  0  0  0  0  0  0  0  0  0  0
  123.7262  105.6746  107.2117 H   0  0  0  0  0  0  0  0  0  0  0  0
  126.8390  105.3477  109.3811 H   0  0  0  0  0  0  0  0  0  0  0  0
  126.7372  106.2725  107.8533 H   0  0  0  0  0  0  0  0  0  0  0  0
  122.0121  105.8035  101.7054 H   0  0  0  0  0  0  0  0  0  0  0  0
  125.6659  107.3667  109.7030 H   0  0  0  0  0  0  0  0  0  0  0  0
  124.6015  106.1072  109.8844 H   0  0  0  0  0  0  0  0  0  0  0  0
  124.5763  107.0219  108.5004 H   0  0  0  0  0  0  0  0  0  0  0  0
  1  3  2  0  0  0  0
  1  9  1  0  0  0  0
  2  9  2  0  0  0  0
  2 11  1  0  0  0  0
  3  5  1  0  0  0  0
  3 11  1  0  0  0  0
  4 12  1  0  0  0  0
  5 10  1  0  0  0  0
  6  7  1  0  0  0  0
  6  8  1  0  0  0  0
  7 12  1  0  0  0  0
  8 13  1  0  0  0  0
 10 16  1  0  0  0  0
 12 16  1  0  0  0  0
 14 16  2  0  0  0  0
 15 16  2  0  0  0  0
  1 17  1  0  0  0  0
  2 18  1  0  0  0  0
  4 19  1  0  0  0  0
  4 20  1  0  0  0  0
  4 21  1  0  0  0  0
  5 22  1  0  0  0  0
  5 23  1  0  0  0  0
  6 24  1  0  0  0  0
  6 25  1  0  0  0  0
  7 26  1  0  0  0  0
  7 27  1  0  0  0  0
  8 28  1  0  0  0  0
  8 29  1  0  0  0  0
 11 30  1  0  0  0  0
 13 31  1  0  0  0  0
 13 32  1  0  0  0  0
 13 33  1  0  0  0  0
M  CHG  2  10  -1  13   1
M  END
> <FRED Chemgauss4 score>
-7.590936

$$$$
C85004499	P133054972
  -OEChem-05182014473D

 29 29  0     1  0  0  0  0  0999 V2000
  121.6114  106.5724  105.1989 C   0  0  0  0  0  0  0  0  0  0  0  0
  123.4314  105.9703  106.2158 C   0  0  0  0  0  0  0  0  0  0  0  0
  120.0212  104.3682  106.0834 C   0  0  0  0  0  0  0  0  0  0  0  0
  126.3628  105.2649  108.6495 C   0  0  0  0  0  0  0  0  0  0  0  0
  124.3737  105.1971  107.1108 C   0  0  0  0  0  0  0  0  0  0  0  0
  121.3837  104.5932  106.7162 C   0  0  0  0  0  0  0  0  0  0  0  0
  124.2473  106.4657  109.3743 C   0  0  0  0  0  0  0  0  0  0  0  0
  125.1211  106.0381  108.1767 C   0  0  1  0  0  0  0  0  0  0  0  0
  122.5651  107.3932  104.8204 N   0  0  0  0  0  0  0  0  0  0  0  0
  123.7230  107.0102  105.4674 N   0  0  0  0  0  0  0  0  0  0  0  0
  122.1125  105.6603  106.0774 N   0  0  0  0  0  0  0  0  0  0  0  0
  123.0152  107.1466  108.9961 N   0  0  0  0  0  0  0  0  0  0  0  0
  125.5991  107.2468  107.5696 O   0  0  0  0  0  0  0  0  0  0  0  0
  120.5793  106.5927  104.8794 H   0  0  0  0  0  0  0  0  0  0  0  0
  119.4046  105.2715  106.1400 H   0  0  0  0  0  0  0  0  0  0  0  0
  119.4920  103.5609  106.5991 H   0  0  0  0  0  0  0  0  0  0  0  0
  120.1159  104.0945  105.0273 H   0  0  0  0  0  0  0  0  0  0  0  0
  126.9125  105.8370  109.4056 H   0  0  0  0  0  0  0  0  0  0  0  0
  126.1068  104.2875  109.0697 H   0  0  0  0  0  0  0  0  0  0  0  0
  127.0608  105.1043  107.8194 H   0  0  0  0  0  0  0  0  0  0  0  0
  123.8168  104.3859  107.5984 H   0  0  0  0  0  0  0  0  0  0  0  0
  125.1048  104.6991  106.4586 H   0  0  0  0  0  0  0  0  0  0  0  0
  121.9930  103.6843  106.6548 H   0  0  0  0  0  0  0  0  0  0  0  0
  121.2798  104.8439  107.7780 H   0  0  0  0  0  0  0  0  0  0  0  0
  124.8231  107.1125  110.0469 H   0  0  0  0  0  0  0  0  0  0  0  0
  123.9967  105.5830  109.9767 H   0  0  0  0  0  0  0  0  0  0  0  0
  123.0499  107.8012  108.2433 H   0  0  0  0  0  0  0  0  0  0  0  0
  122.2370  107.0941  109.6192 H   0  0  0  0  0  0  0  0  0  0  0  0
  126.0867  107.7173  108.2597 H   0  0  0  0  0  0  0  0  0  0  0  0
  1  9  2  0  0  0  0
  1 11  1  0  0  0  0
  2  5  1  0  0  0  0
  2 10  2  0  0  0  0
  2 11  1  0  0  0  0
  3  6  1  0  0  0  0
  4  8  1  0  0  0  0
  5  8  1  0  0  0  0
  6 11  1  0  0  0  0
  7  8  1  0  0  0  0
  7 12  1  0  0  0  0
  8 13  1  0  0  0  0
  9 10  1  0  0  0  0
  1 14  1  0  0  0  0
  3 15  1  0  0  0  0
  3 16  1  0  0  0  0
  3 17  1  0  0  0  0
  4 18  1  0  0  0  0
  4 19  1  0  0  0  0
  4 20  1  0  0  0  0
  5 21  1  0  0  0  0
  5 22  1  0  0  0  0
  6 23  1  0  0  0  0
  6 24  1  0  0  0  0
  7 25  1  0  0  0  0
  7 26  1  0  0  0  0
 12 27  1  0  0  0  0
 12 28  1  0  0  0  0
 13 29  1  0  0  0  0
M  END
> <FRED Chemgauss4 score>
-7.589902

$$$$
C85544558	P133897552
  -OEChem-05182014473D

 24 24  0     0  0  0  0  0  0999 V2000
  122.0927  104.9612  106.4487 C   0  0  0  0  0  0  0  0  0  0  0  0
  121.8669  106.0171  105.5907 C   0  0  0  0  0  0  0  0  0  0  0  0
  123.9429  106.4709  106.1329 C   0  0  0  0  0  0  0  0  0  0  0  0
  120.5802  106.2475  104.8846 C   0  0  0  0  0  0  0  0  0  0  0  0
  117.3479  106.2252  105.3565 C   0  0  0  0  0  0  0  0  0  0  0  0
  125.2572  107.1469  106.1932 C   0  0  0  0  0  0  0  0  0  0  0  0
  118.2810  105.3957  104.5048 C   0  0  0  0  0  0  0  0  0  0  0  0
  122.9266  106.8841  105.4087 N   0  0  0  0  0  0  0  0  0  0  0  0
  117.9549  106.6812  106.5069 N   0  0  0  0  0  0  0  0  0  0  0  0
  125.5947  107.8260  104.9625 N   0  0  0  0  0  0  0  0  0  0  0  0
  119.5691  105.3223  105.1295 N   0  0  0  0  0  0  0  0  0  0  0  0
  120.4771  107.2051  104.1225 O   0  0  0  0  0  0  0  0  0  0  0  0
  116.1941  106.5015  105.0395 O   0  0  0  0  0  0  0  0  0  0  0  0
  123.6941  105.0463  107.0567 S   0  0  0  0  0  0  0  0  0  0  0  0
  121.4199  104.1670  106.7406 H   0  0  0  0  0  0  0  0  0  0  0  0
  125.2910  107.9029  106.9964 H   0  0  0  0  0  0  0  0  0  0  0  0
  126.0783  106.4404  106.4023 H   0  0  0  0  0  0  0  0  0  0  0  0
  118.4092  105.8439  103.5158 H   0  0  0  0  0  0  0  0  0  0  0  0
  117.8826  104.3823  104.4065 H   0  0  0  0  0  0  0  0  0  0  0  0
  118.9231  106.4560  106.7099 H   0  0  0  0  0  0  0  0  0  0  0  0
  117.4674  107.2537  107.1887 H   0  0  0  0  0  0  0  0  0  0  0  0
  126.5630  107.9625  104.7351 H   0  0  0  0  0  0  0  0  0  0  0  0
  124.8733  108.3205  104.4693 H   0  0  0  0  0  0  0  0  0  0  0  0
  119.7592  104.5194  105.7294 H   0  0  0  0  0  0  0  0  0  0  0  0
  1  2  2  0  0  0  0
  1 14  1  0  0  0  0
  2  4  1  0  0  0  0
  2  8  1  0  0  0  0
  3  6  1  0  0  0  0
  3  8  2  0  0  0  0
  3 14  1  0  0  0  0
  4 11  1  0  0  0  0
  4 12  2  0  0  0  0
  5  7  1  0  0  0  0
  5  9  1  0  0  0  0
  5 13  2  0  0  0  0
  6 10  1  0  0  0  0
  7 11  1  0  0  0  0
  1 15  1  0  0  0  0
  6 16  1  0  0  0  0
  6 17  1  0  0  0  0
  7 18  1  0  0  0  0
  7 19  1  0  0  0  0
  9 20  1  0  0  0  0
  9 21  1  0  0  0  0
 10 22  1  0  0  0  0
 10 23  1  0  0  0  0
 11 24  1  0  0  0  0
M  END
> <FRED Chemgauss4 score>
-7.588808

$$$$
C71322065	P110268428
  -OEChem-05182014473D

 35 36  0     0  0  0  0  0  0999 V2000
  117.6412  105.8833  105.1223 C   0  0  0  0  0  0  0  0  0  0  0  0
  116.7014  106.2597  105.7688 C   0  0  0  0  0  0  0  0  0  0  0  0
  120.0591  106.0119  104.3897 C   0  0  0  0  0  0  0  0  0  0  0  0
  118.6857  104.3740  103.4768 C   0  0  0  0  0  0  0  0  0  0  0  0
  118.7569  105.4349  104.3526 C   0  0  0  0  0  0  0  0  0  0  0  0
  120.9338  105.3698  103.5409 C   0  0  0  0  0  0  0  0  0  0  0  0
  124.5314  104.8830  108.4819 C   0  0  0  0  0  0  0  0  0  0  0  0
  123.7671  105.2880  107.3267 C   0  0  0  0  0  0  0  0  0  0  0  0
  125.6852  105.4991  108.7597 C   0  0  0  0  0  0  0  0  0  0  0  0
  124.1944  106.2747  106.5233 C   0  0  0  0  0  0  0  0  0  0  0  0
  125.4871  106.9671  106.8309 C   0  0  0  0  0  0  0  0  0  0  0  0
  123.3589  106.6246  105.3720 C   0  0  0  0  0  0  0  0  0  0  0  0
  115.5514  106.7205  106.5611 C   0  0  0  0  0  0  0  0  0  0  0  0
  122.3836  105.6697  103.2912 C   0  0  0  0  0  0  0  0  0  0  0  0
  114.2501  106.1080  106.0617 C   0  0  0  0  0  0  0  0  0  0  0  0
  126.1522  106.5114  107.9597 N   0  0  0  0  0  0  0  0  0  0  0  0
  123.1727  105.5676  104.4978 N   0  0  0  0  0  0  0  0  0  0  0  0
  125.9075  107.8727  106.1148 O   0  0  0  0  0  0  0  0  0  0  0  0
  122.8943  107.7577  105.2465 O   0  0  0  0  0  0  0  0  0  0  0  0
  114.3075  104.6929  106.1923 O   0  0  0  0  0  0  0  0  0  0  0  0
  120.1848  104.0773  102.7039 S   0  0  0  0  0  0  0  0  0  0  0  0
  120.3439  106.8558  105.0064 H   0  0  0  0  0  0  0  0  0  0  0  0
  117.8299  103.7532  103.2478 H   0  0  0  0  0  0  0  0  0  0  0  0
  124.1521  104.0822  109.1054 H   0  0  0  0  0  0  0  0  0  0  0  0
  122.8371  104.7582  107.1455 H   0  0  0  0  0  0  0  0  0  0  0  0
  126.3010  105.2388  109.6111 H   0  0  0  0  0  0  0  0  0  0  0  0
  115.7100  106.4560  107.6129 H   0  0  0  0  0  0  0  0  0  0  0  0
  115.4859  107.8123  106.4963 H   0  0  0  0  0  0  0  0  0  0  0  0
  122.8008  104.9734  102.5555 H   0  0  0  0  0  0  0  0  0  0  0  0
  122.5126  106.6810  102.8914 H   0  0  0  0  0  0  0  0  0  0  0  0
  113.4128  106.4676  106.6683 H   0  0  0  0  0  0  0  0  0  0  0  0
  114.0601  106.3584  105.0125 H   0  0  0  0  0  0  0  0  0  0  0  0
  127.0339  106.9450  108.2174 H   0  0  0  0  0  0  0  0  0  0  0  0
  123.6117  104.6775  104.7148 H   0  0  0  0  0  0  0  0  0  0  0  0
  113.4619  104.3478  105.8638 H   0  0  0  0  0  0  0  0  0  0  0  0
  1  2  3  0  0  0  0
  1  5  1  0  0  0  0
  2 13  1  0  0  0  0
  3  5  1  0  0  0  0
  3  6  2  0  0  0  0
  4  5  2  0  0  0  0
  4 21  1  0  0  0  0
  6 14  1  0  0  0  0
  6 21  1  0  0  0  0
  7  8  1  0  0  0  0
  7  9  2  0  0  0  0
  8 10  2  0  0  0  0
  9 16  1  0  0  0  0
 10 11  1  0  0  0  0
 10 12  1  0  0  0  0
 11 16  1  0  0  0  0
 11 18  2  0  0  0  0
 12 17  1  0  0  0  0
 12 19  2  0  0  0  0
 13 15  1  0  0  0  0
 14 17  1  0  0  0  0
 15 20  1  0  0  0  0
  3 22  1  0  0  0  0
  4 23  1  0  0  0  0
  7 24  1  0  0  0  0
  8 25  1  0  0  0  0
  9 26  1  0  0  0  0
 13 27  1  0  0  0  0
 13 28  1  0  0  0  0
 14 29  1  0  0  0  0
 14 30  1  0  0  0  0
 15 31  1  0  0  0  0
 15 32  1  0  0  0  0
 16 33  1  0  0  0  0
 17 34  1  0  0  0  0
 20 35  1  0  0  0  0
M  END
> <FRED Chemgauss4 score>
-7.587807

$$$$
C92207445	P144379857
  -OEChem-05182014473D

 33 33  0     1  0  0  0  0  0999 V2000
  122.2536  104.1222  105.4877 C   0  0  0  0  0  0  0  0  0  0  0  0
  121.1693  103.9426  104.7269 C   0  0  0  0  0  0  0  0  0  0  0  0
  122.6282  106.2762  106.5236 C   0  0  0  0  0  0  0  0  0  0  0  0
  122.8448  108.4498  108.9743 C   0  0  0  0  0  0  0  0  0  0  0  0
  125.8053  105.9152  108.0230 C   0  0  0  0  0  0  0  0  0  0  0  0
  120.4348  105.0540  106.6927 C   0  0  0  0  0  0  0  0  0  0  0  0
  121.9616  104.9474  106.6936 C   0  0  1  0  0  0  0  0  0  0  0  0
  119.9718  104.6307  105.2919 C   0  0  1  0  0  0  0  0  0  0  0  0
  123.7855  108.0388  107.8652 C   0  0  0  0  0  0  0  0  0  0  0  0
  124.3323  105.6658  108.2511 C   0  0  0  0  0  0  0  0  0  0  0  0
  123.3937  109.4087  109.7984 N   0  0  0  0  0  0  0  0  0  0  0  0
  126.5722  105.5542  109.1100 N   0  0  0  0  0  0  0  0  0  0  0  0
  119.5581  105.7607  104.4663 N   0  0  0  0  0  0  0  0  0  0  0  0
  123.5456  106.6466  107.5077 N   0  0  0  0  0  0  0  0  0  0  0  0
  122.3448  106.9709  105.5440 O   0  0  0  0  0  0  0  0  0  0  0  0
  121.7036  108.0144  109.1017 O   0  0  0  0  0  0  0  0  0  0  0  0
  126.2728  106.3468  106.9727 O   0  0  0  0  0  0  0  0  0  0  0  0
  123.2291  103.7199  105.2527 H   0  0  0  0  0  0  0  0  0  0  0  0
  121.1646  103.3843  103.8013 H   0  0  0  0  0  0  0  0  0  0  0  0
  120.0238  104.3497  107.4291 H   0  0  0  0  0  0  0  0  0  0  0  0
  120.0730  106.0481  106.9817 H   0  0  0  0  0  0  0  0  0  0  0  0
  122.3320  104.4767  107.6088 H   0  0  0  0  0  0  0  0  0  0  0  0
  119.1366  103.9262  105.3696 H   0  0  0  0  0  0  0  0  0  0  0  0
  124.8277  108.1322  108.1825 H   0  0  0  0  0  0  0  0  0  0  0  0
  123.6064  108.6612  106.9843 H   0  0  0  0  0  0  0  0  0  0  0  0
  124.0795  105.7617  109.3105 H   0  0  0  0  0  0  0  0  0  0  0  0
  124.0711  104.6659  107.8941 H   0  0  0  0  0  0  0  0  0  0  0  0
  124.3293  109.7648  109.6328 H   0  0  0  0  0  0  0  0  0  0  0  0
  122.8930  109.7946  110.5925 H   0  0  0  0  0  0  0  0  0  0  0  0
  126.1441  105.1681  109.9449 H   0  0  0  0  0  0  0  0  0  0  0  0
  127.5820  105.6562  109.1210 H   0  0  0  0  0  0  0  0  0  0  0  0
  119.0471  106.4985  104.9013 H   0  0  0  0  0  0  0  0  0  0  0  0
  119.6174  105.6651  103.4751 H   0  0  0  0  0  0  0  0  0  0  0  0
  1  2  2  0  0  0  0
  1  7  1  0  0  0  0
  2  8  1  0  0  0  0
  3  7  1  0  0  0  0
  3 14  1  0  0  0  0
  3 15  2  0  0  0  0
  4  9  1  0  0  0  0
  4 11  1  0  0  0  0
  4 16  2  0  0  0  0
  5 10  1  0  0  0  0
  5 12  1  0  0  0  0
  5 17  2  0  0  0  0
  6  7  1  0  0  0  0
  6  8  1  0  0  0  0
  8 13  1  0  0  0  0
  9 14  1  0  0  0  0
 10 14  1  0  0  0  0
  1 18  1  0  0  0  0
  2 19  1  0  0  0  0
  6 20  1  0  0  0  0
  6 21  1  0  0  0  0
  7 22  1  0  0  0  0
  8 23  1  0  0  0  0
  9 24  1  0  0  0  0
  9 25  1  0  0  0  0
 10 26  1  0  0  0  0
 10 27  1  0  0  0  0
 11 28  1  0  0  0  0
 11 29  1  0  0  0  0
 12 30  1  0  0  0  0
 12 31  1  0  0  0  0
 13 32  1  0  0  0  0
 13 33  1  0  0  0  0
M  END
> <FRED Chemgauss4 score>
-7.584100

$$$$
C37821635	P56255392
  -OEChem-05182014473D

 41 42  0     1  0  0  0  0  0999 V2000
  122.8760  105.2219  108.7552 C   0  0  0  0  0  0  0  0  0  0  0  0
  124.2182  107.2589  105.5299 C   0  0  0  0  0  0  0  0  0  0  0  0
  125.2939  104.6533  108.7598 C   0  0  0  0  0  0  0  0  0  0  0  0
  119.2713  104.9996  103.8977 C   0  0  0  0  0  0  0  0  0  0  0  0
  120.7265  104.6263  103.8488 C   0  0  0  0  0  0  0  0  0  0  0  0
  125.8768  106.0520  108.5729 C   0  0  0  0  0  0  0  0  0  0  0  0
  124.0375  104.9503  106.5700 C   0  0  0  0  0  0  0  0  0  0  0  0
  123.9649  104.4889  108.0254 C   0  0  2  0  0  0  0  0  0  0  0  0
  120.2384  105.6165  104.8698 C   0  0  0  0  0  0  0  0  0  0  0  0
  125.9600  106.4699  107.1006 C   0  0  1  0  0  0  0  0  0  0  0  0
  127.0957  105.7651  106.3540 C   0  0  0  0  0  0  0  0  0  0  0  0
  123.0006  106.9269  104.7045 C   0  0  0  0  0  0  0  0  0  0  0  0
  120.6037  107.0571  104.7531 C   0  0  0  0  0  0  0  0  0  0  0  0
  124.6705  106.2711  106.4123 N   0  0  0  0  0  0  0  0  0  0  0  0
  122.2819  104.4838  109.7514 N   0  0  0  0  0  0  0  0  0  0  0  0
  121.8569  107.3437  105.4575 N   0  0  0  0  0  0  0  0  0  0  0  0
  122.5724  106.3806  108.4818 O   0  0  0  0  0  0  0  0  0  0  0  0
  124.7491  108.3651  105.3983 O   0  0  0  0  0  0  0  0  0  0  0  0
  126.0071  103.9088  108.3861 H   0  0  0  0  0  0  0  0  0  0  0  0
  125.1670  104.4567  109.8314 H   0  0  0  0  0  0  0  0  0  0  0  0
  118.8816  105.6120  103.0939 H   0  0  0  0  0  0  0  0  0  0  0  0
  118.5745  104.2632  104.2788 H   0  0  0  0  0  0  0  0  0  0  0  0
  121.0054  103.6393  104.1970 H   0  0  0  0  0  0  0  0  0  0  0  0
  121.3113  104.9889  103.0125 H   0  0  0  0  0  0  0  0  0  0  0  0
  125.2429  106.7713  109.1072 H   0  0  0  0  0  0  0  0  0  0  0  0
  126.8666  106.1058  109.0413 H   0  0  0  0  0  0  0  0  0  0  0  0
  124.6379  104.2433  105.9854 H   0  0  0  0  0  0  0  0  0  0  0  0
  123.0349  104.9392  106.1363 H   0  0  0  0  0  0  0  0  0  0  0  0
  123.6782  103.4302  108.0489 H   0  0  0  0  0  0  0  0  0  0  0  0
  120.1899  105.2915  105.9021 H   0  0  0  0  0  0  0  0  0  0  0  0
  126.1975  107.5408  107.0869 H   0  0  0  0  0  0  0  0  0  0  0  0
  126.9117  104.6935  106.3363 H   0  0  0  0  0  0  0  0  0  0  0  0
  128.0398  105.9595  106.8575 H   0  0  0  0  0  0  0  0  0  0  0  0
  127.1487  106.1379  105.3336 H   0  0  0  0  0  0  0  0  0  0  0  0
  122.9898  105.8547  104.5329 H   0  0  0  0  0  0  0  0  0  0  0  0
  123.0713  107.4656  103.7643 H   0  0  0  0  0  0  0  0  0  0  0  0
  119.8234  107.6872  105.1904 H   0  0  0  0  0  0  0  0  0  0  0  0
  120.7385  107.3396  103.7049 H   0  0  0  0  0  0  0  0  0  0  0  0
  122.6071  103.5368  109.9158 H   0  0  0  0  0  0  0  0  0  0  0  0
  121.5310  104.8480  110.3289 H   0  0  0  0  0  0  0  0  0  0  0  0
  121.8953  108.3546  105.6419 H   0  0  0  0  0  0  0  0  0  0  0  0
  1  8  1  0  0  0  0
  1 15  1  0  0  0  0
  1 17  2  0  0  0  0
  2 12  1  0  0  0  0
  2 14  1  0  0  0  0
  2 18  2  0  0  0  0
  3  6  1  0  0  0  0
  3  8  1  0  0  0  0
  4  5  1  0  0  0  0
  4  9  1  0  0  0  0
  5  9  1  0  0  0  0
  6 10  1  0  0  0  0
  7  8  1  0  0  0  0
  7 14  1  0  0  0  0
  9 13  1  0  0  0  0
 10 11  1  0  0  0  0
 10 14  1  0  0  0  0
 12 16  1  0  0  0  0
 13 16  1  0  0  0  0
  3 19  1  0  0  0  0
  3 20  1  0  0  0  0
  4 21  1  0  0  0  0
  4 22  1  0  0  0  0
  5 23  1  0  0  0  0
  5 24  1  0  0  0  0
  6 25  1  0  0  0  0
  6 26  1  0  0  0  0
  7 27  1  0  0  0  0
  7 28  1  0  0  0  0
  8 29  1  0  0  0  0
  9 30  1  0  0  0  0
 10 31  1  0  0  0  0
 11 32  1  0  0  0  0
 11 33  1  0  0  0  0
 11 34  1  0  0  0  0
 12 35  1  0  0  0  0
 12 36  1  0  0  0  0
 13 37  1  0  0  0  0
 13 38  1  0  0  0  0
 15 39  1  0  0  0  0
 15 40  1  0  0  0  0
 16 41  1  0  0  0  0
M  END
> <FRED Chemgauss4 score>
-7.582640

$$$$
C87759253	P137266296
  -OEChem-05182014473D

 31 32  0     1  0  0  0  0  0999 V2000
  119.0010  104.6706  104.1712 C   0  0  0  0  0  0  0  0  0  0  0  0
  118.7742  105.3624  105.3609 C   0  0  0  0  0  0  0  0  0  0  0  0
  121.0527  105.9040  103.8450 C   0  0  0  0  0  0  0  0  0  0  0  0
  120.8258  106.5959  105.0347 C   0  0  0  0  0  0  0  0  0  0  0  0
  120.1403  104.9413  103.4133 C   0  0  0  0  0  0  0  0  0  0  0  0
  119.6866  106.3251  105.7927 C   0  0  0  0  0  0  0  0  0  0  0  0
  124.7295  106.9921  106.1747 C   0  0  0  0  0  0  0  0  0  0  0  0
  124.8117  104.6299  107.8863 C   0  0  0  0  0  0  0  0  0  0  0  0
  123.5997  105.5457  107.9573 C   0  0  0  0  0  0  0  0  0  0  0  0
  126.0553  105.4745  107.6855 C   0  0  0  0  0  0  0  0  0  0  0  0
  123.4531  106.2987  106.6380 C   0  0  1  0  0  0  0  0  0  0  0  0
  121.8323  107.6237  105.4647 C   0  0  0  0  0  0  0  0  0  0  0  0
  125.9177  106.4497  106.6198 N   0  0  0  0  0  0  0  0  0  0  0  0
  122.4075  107.3120  106.7640 N   0  0  0  0  0  0  0  0  0  0  0  0
  124.7063  107.9337  105.3790 O   0  0  0  0  0  0  0  0  0  0  0  0
  120.4189  104.0883  101.9448 Cl  0  0  0  0  0  0  0  0  0  0  0  0
  119.3731  107.1608  107.2700 Cl  0  0  0  0  0  0  0  0  0  0  0  0
  118.2816  103.9229  103.8475 H   0  0  0  0  0  0  0  0  0  0  0  0
  117.8815  105.1396  105.9399 H   0  0  0  0  0  0  0  0  0  0  0  0
  121.9422  106.1171  103.2560 H   0  0  0  0  0  0  0  0  0  0  0  0
  124.9018  104.0410  108.8055 H   0  0  0  0  0  0  0  0  0  0  0  0
  124.6963  103.9234  107.0554 H   0  0  0  0  0  0  0  0  0  0  0  0
  122.6995  104.9524  108.1579 H   0  0  0  0  0  0  0  0  0  0  0  0
  123.7198  106.2440  108.7962 H   0  0  0  0  0  0  0  0  0  0  0  0
  126.2870  106.0368  108.5969 H   0  0  0  0  0  0  0  0  0  0  0  0
  126.9200  104.8451  107.4525 H   0  0  0  0  0  0  0  0  0  0  0  0
  123.1714  105.5987  105.8482 H   0  0  0  0  0  0  0  0  0  0  0  0
  122.6513  107.6887  104.7401 H   0  0  0  0  0  0  0  0  0  0  0  0
  121.3762  108.6171  105.5301 H   0  0  0  0  0  0  0  0  0  0  0  0
  126.7693  106.7597  106.1620 H   0  0  0  0  0  0  0  0  0  0  0  0
  122.8115  108.1549  107.1670 H   0  0  0  0  0  0  0  0  0  0  0  0
  1  2  1  0  0  0  0
  1  5  2  0  0  0  0
  2  6  2  0  0  0  0
  3  4  2  0  0  0  0
  3  5  1  0  0  0  0
  4  6  1  0  0  0  0
  4 12  1  0  0  0  0
  5 16  1  0  0  0  0
  6 17  1  0  0  0  0
  7 11  1  0  0  0  0
  7 13  1  0  0  0  0
  7 15  2  0  0  0  0
  8  9  1  0  0  0  0
  8 10  1  0  0  0  0
  9 11  1  0  0  0  0
 10 13  1  0  0  0  0
 11 14  1  0  0  0  0
 12 14  1  0  0  0  0
  1 18  1  0  0  0  0
  2 19  1  0  0  0  0
  3 20  1  0  0  0  0
  8 21  1  0  0  0  0
  8 22  1  0  0  0  0
  9 23  1  0  0  0  0
  9 24  1  0  0  0  0
 10 25  1  0  0  0  0
 10 26  1  0  0  0  0
 11 27  1  0  0  0  0
 12 28  1  0  0  0  0
 12 29  1  0  0  0  0
 13 30  1  0  0  0  0
 14 31  1  0  0  0  0
M  END
> <FRED Chemgauss4 score>
-7.579104

$$$$
C27865868	P41105896
  -OEChem-05182014473D

 19 19  0     1  0  0  0  0  0999 V2000
  123.6746  107.2906  106.1226 C   0  0  0  0  0  0  0  0  0  0  0  0
  125.9178  106.8155  106.7790 C   0  0  0  0  0  0  0  0  0  0  0  0
  123.6149  106.6853  107.5129 C   0  0  1  0  0  0  0  0  0  0  0  0
  124.9948  106.0216  107.7102 C   0  0  1  0  0  0  0  0  0  0  0  0
  124.9485  104.5444  107.3101 C   0  0  0  0  0  0  0  0  0  0  0  0
  125.0106  107.2436  105.7585 N   0  0  0  0  0  0  0  0  0  0  0  0
  123.4323  107.7720  108.5101 N   0  3  0  0  0  0  0  0  0  0  0  0
  125.4803  107.9884  104.7116 O   0  5  0  0  0  0  0  0  0  0  0  0
  122.7202  107.7600  105.5215 O   0  0  0  0  0  0  0  0  0  0  0  0
  126.3191  107.6958  107.2958 H   0  0  0  0  0  0  0  0  0  0  0  0
  126.7372  106.2188  106.3650 H   0  0  0  0  0  0  0  0  0  0  0  0
  122.7735  105.9950  107.6176 H   0  0  0  0  0  0  0  0  0  0  0  0
  125.3455  106.0789  108.7473 H   0  0  0  0  0  0  0  0  0  0  0  0
  124.6031  104.4549  106.2828 H   0  0  0  0  0  0  0  0  0  0  0  0
  124.2666  104.0094  107.9668 H   0  0  0  0  0  0  0  0  0  0  0  0
  125.9428  104.1119  107.3943 H   0  0  0  0  0  0  0  0  0  0  0  0
  124.1340  107.7058  109.2538 H   0  0  0  0  0  0  0  0  0  0  0  0
  122.5046  107.7171  108.9421 H   0  0  0  0  0  0  0  0  0  0  0  0
  123.5233  108.6917  108.0674 H   0  0  0  0  0  0  0  0  0  0  0  0
  1  3  1  0  0  0  0
  1  6  1  0  0  0  0
  1  9  2  0  0  0  0
  2  4  1  0  0  0  0
  2  6  1  0  0  0  0
  3  4  1  0  0  0  0
  3  7  1  0  0  0  0
  4  5  1  0  0  0  0
  6  8  1  0  0  0  0
  2 10  1  0  0  0  0
  2 11  1  0  0  0  0
  3 12  1  0  0  0  0
  4 13  1  0  0  0  0
  5 14  1  0  0  0  0
  5 15  1  0  0  0  0
  5 16  1  0  0  0  0
  7 17  1  0  0  0  0
  7 18  1  0  0  0  0
  7 19  1  0  0  0  0
M  CHG  2   7   1   8  -1
M  END
> <FRED Chemgauss4 score>
-7.575492

$$$$
C87440497	P136787961
  -OEChem-05182014473D

 19 19  0     0  0  0  0  0  0999 V2000
  122.8019  106.8232  105.2483 C   0  0  0  0  0  0  0  0  0  0  0  0
  124.2653  106.9156  105.4875 C   0  0  0  0  0  0  0  0  0  0  0  0
  126.0639  106.8087  107.1932 C   0  0  0  0  0  0  0  0  0  0  0  0
  126.3284  105.8970  108.3765 C   0  0  0  0  0  0  0  0  0  0  0  0
  121.9842  106.0450  105.9825 N   0  5  0  0  0  0  0  0  0  0  0  0
  122.1695  107.5099  104.2778 N   0  0  0  0  0  0  0  0  0  0  0  0
  120.7605  106.2578  105.4368 N   0  0  0  0  0  0  0  0  0  0  0  0
  120.8717  107.1379  104.4127 N   0  0  0  0  0  0  0  0  0  0  0  0
  124.6432  106.7230  106.7876 N   0  0  0  0  0  0  0  0  0  0  0  0
  125.5147  106.3344  109.5377 N   0  3  0  0  0  0  0  0  0  0  0  0
  125.0123  107.1693  104.5462 O   0  0  0  0  0  0  0  0  0  0  0  0
  126.3012  107.8506  107.4324 H   0  0  0  0  0  0  0  0  0  0  0  0
  126.6811  106.5060  106.3412 H   0  0  0  0  0  0  0  0  0  0  0  0
  127.3746  105.9467  108.6912 H   0  0  0  0  0  0  0  0  0  0  0  0
  126.0547  104.8576  108.1715 H   0  0  0  0  0  0  0  0  0  0  0  0
  123.9940  106.5810  107.5341 H   0  0  0  0  0  0  0  0  0  0  0  0
  125.9385  106.0263  110.4192 H   0  0  0  0  0  0  0  0  0  0  0  0
  124.5675  105.9441  109.4887 H   0  0  0  0  0  0  0  0  0  0  0  0
  125.4348  107.3565  109.5652 H   0  0  0  0  0  0  0  0  0  0  0  0
  1  2  1  0  0  0  0
  1  5  1  0  0  0  0
  1  6  2  0  0  0  0
  2  9  1  0  0  0  0
  2 11  2  0  0  0  0
  3  4  1  0  0  0  0
  3  9  1  0  0  0  0
  4 10  1  0  0  0  0
  5  7  1  0  0  0  0
  6  8  1  0  0  0  0
  7  8  2  0  0  0  0
  3 12  1  0  0  0  0
  3 13  1  0  0  0  0
  4 14  1  0  0  0  0
  4 15  1  0  0  0  0
  9 16  1  0  0  0  0
 10 17  1  0  0  0  0
 10 18  1  0  0  0  0
 10 19  1  0  0  0  0
M  CHG  2   5  -1  10   1
M  END
> <FRED Chemgauss4 score>
-7.573287

$$$$
C87446939	P136794831
  -OEChem-05182014473D

 26 26  0     0  0  0  0  0  0999 V2000
  122.6802  108.5452  109.9974 C   0  0  0  0  0  0  0  0  0  0  0  0
  121.2117  109.7025  110.9256 C   0  0  0  0  0  0  0  0  0  0  0  0
  123.3135  107.3410  109.4009 C   0  0  0  0  0  0  0  0  0  0  0  0
  119.9977  110.2015  111.5655 C   0  0  0  0  0  0  0  0  0  0  0  0
  125.3404  106.4422  108.2875 C   0  0  0  0  0  0  0  0  0  0  0  0
  125.7284  106.7779  106.8603 C   0  0  0  0  0  0  0  0  0  0  0  0
  121.4128  108.4766  110.5010 N   0  0  0  0  0  0  0  0  0  0  0  0
  122.3157  110.4583  110.6811 N   0  0  0  0  0  0  0  0  0  0  0  0
  123.2760  109.7364  110.0838 N   0  0  0  0  0  0  0  0  0  0  0  0
  125.1046  107.3848  104.3516 N   0  0  0  0  0  0  0  0  0  0  0  0
  124.6050  107.5064  108.9143 N   0  0  0  0  0  0  0  0  0  0  0  0
  122.6769  106.2919  109.3486 O   0  0  0  0  0  0  0  0  0  0  0  0
  123.6097  105.7829  105.6992 O   0  0  0  0  0  0  0  0  0  0  0  0
  123.6407  108.2406  106.2859 O   0  0  0  0  0  0  0  0  0  0  0  0
  124.3215  107.0425  105.8267 S   0  0  0  0  0  0  0  0  0  0  0  0
  120.0340  110.0861  112.6670 H   0  0  0  0  0  0  0  0  0  0  0  0
  119.8148  111.2764  111.3607 H   0  0  0  0  0  0  0  0  0  0  0  0
  119.0828  109.6792  111.2174 H   0  0  0  0  0  0  0  0  0  0  0  0
  124.7214  105.5408  108.3341 H   0  0  0  0  0  0  0  0  0  0  0  0
  126.2372  106.2764  108.8922 H   0  0  0  0  0  0  0  0  0  0  0  0
  126.2856  105.9498  106.4122 H   0  0  0  0  0  0  0  0  0  0  0  0
  126.3396  107.6841  106.8077 H   0  0  0  0  0  0  0  0  0  0  0  0
  124.1778  110.1243  109.8204 H   0  0  0  0  0  0  0  0  0  0  0  0
  125.0527  106.6784  103.6073 H   0  0  0  0  0  0  0  0  0  0  0  0
  125.0740  108.3522  104.0071 H   0  0  0  0  0  0  0  0  0  0  0  0
  125.0404  108.4266  108.9391 H   0  0  0  0  0  0  0  0  0  0  0  0
  1  3  1  0  0  0  0
  1  7  2  0  0  0  0
  1  9  1  0  0  0  0
  2  4  1  0  0  0  0
  2  7  1  0  0  0  0
  2  8  2  0  0  0  0
  3 11  1  0  0  0  0
  3 12  2  0  0  0  0
  5  6  1  0  0  0  0
  5 11  1  0  0  0  0
  6 15  1  0  0  0  0
  8  9  1  0  0  0  0
 10 15  1  0  0  0  0
 13 15  2  0  0  0  0
 14 15  2  0  0  0  0
  4 16  1  0  0  0  0
  4 17  1  0  0  0  0
  4 18  1  0  0  0  0
  5 19  1  0  0  0  0
  5 20  1  0  0  0  0
  6 21  1  0  0  0  0
  6 22  1  0  0  0  0
  9 23  1  0  0  0  0
 10 24  1  0  0  0  0
 10 25  1  0  0  0  0
 11 26  1  0  0  0  0
M  END
> <FRED Chemgauss4 score>
-7.562003

$$$$
C37810574	P56238309
  -OEChem-05182014473D

 39 39  0     1  0  0  0  0  0999 V2000
  124.0311  105.6510  107.1611 C   0  0  0  0  0  0  0  0  0  0  0  0
  121.5646  105.6724  104.9870 C   0  0  0  0  0  0  0  0  0  0  0  0
  121.2310  104.5096  101.8895 C   0  0  0  0  0  0  0  0  0  0  0  0
  120.7535  104.8215  100.4815 C   0  0  0  0  0  0  0  0  0  0  0  0
  118.9223  105.0738  102.4309 C   0  0  0  0  0  0  0  0  0  0  0  0
  120.3671  105.3398  102.8330 C   0  0  1  0  0  0  0  0  0  0  0  0
  116.4761  103.9507  106.3745 C   0  0  0  0  0  0  0  0  0  0  0  0
  124.8285  106.6596  107.9480 C   0  0  0  0  0  0  0  0  0  0  0  0
  121.6915  105.2041  106.4259 C   0  0  0  0  0  0  0  0  0  0  0  0
  119.7802  103.9330  104.7458 C   0  0  0  0  0  0  0  0  0  0  0  0
  118.5061  104.5128  105.3325 C   0  0  0  0  0  0  0  0  0  0  0  0
  126.2438  106.2618  107.9685 N   0  0  0  0  0  0  0  0  0  0  0  0
  122.6799  105.9868  107.1113 N   0  0  0  0  0  0  0  0  0  0  0  0
  120.6065  105.0088  104.2124 N   0  0  0  0  0  0  0  0  0  0  0  0
  124.5284  104.6604  106.6323 O   0  0  0  0  0  0  0  0  0  0  0  0
  122.2739  106.5850  104.5550 O   0  0  0  0  0  0  0  0  0  0  0  0
  117.6874  103.4571  105.8194 O   0  0  0  0  0  0  0  0  0  0  0  0
  118.9505  104.9685  100.6193 S   0  0  0  0  0  0  0  0  0  0  0  0
  121.1612  103.4407  102.0963 H   0  0  0  0  0  0  0  0  0  0  0  0
  122.2792  104.8031  101.9964 H   0  0  0  0  0  0  0  0  0  0  0  0
  121.1933  105.7439  100.0961 H   0  0  0  0  0  0  0  0  0  0  0  0
  120.9884  104.0056   99.7925 H   0  0  0  0  0  0  0  0  0  0  0  0
  118.5168  104.1590  102.8661 H   0  0  0  0  0  0  0  0  0  0  0  0
  118.2836  105.9155  102.7076 H   0  0  0  0  0  0  0  0  0  0  0  0
  120.5954  106.4073  102.7261 H   0  0  0  0  0  0  0  0  0  0  0  0
  115.8735  103.1146  106.7377 H   0  0  0  0  0  0  0  0  0  0  0  0
  115.9249  104.5069  105.6121 H   0  0  0  0  0  0  0  0  0  0  0  0
  116.7123  104.6158  107.2085 H   0  0  0  0  0  0  0  0  0  0  0  0
  124.7382  107.6453  107.4820 H   0  0  0  0  0  0  0  0  0  0  0  0
  124.4544  106.7087  108.9748 H   0  0  0  0  0  0  0  0  0  0  0  0
  120.7429  105.3346  106.9529 H   0  0  0  0  0  0  0  0  0  0  0  0
  122.0159  104.1609  106.4599 H   0  0  0  0  0  0  0  0  0  0  0  0
  120.3601  103.3997  105.5058 H   0  0  0  0  0  0  0  0  0  0  0  0
  119.5445  103.2460  103.9275 H   0  0  0  0  0  0  0  0  0  0  0  0
  117.9454  105.0454  104.5580 H   0  0  0  0  0  0  0  0  0  0  0  0
  118.7193  105.2017  106.1563 H   0  0  0  0  0  0  0  0  0  0  0  0
  126.8063  106.6042  108.7108 H   0  0  0  0  0  0  0  0  0  0  0  0
  126.6161  105.8476  107.1471 H   0  0  0  0  0  0  0  0  0  0  0  0
  122.3762  106.8363  107.5885 H   0  0  0  0  0  0  0  0  0  0  0  0
  1  8  1  0  0  0  0
  1 13  1  0  0  0  0
  1 15  2  0  0  0  0
  2  9  1  0  0  0  0
  2 14  1  0  0  0  0
  2 16  2  0  0  0  0
  3  4  1  0  0  0  0
  3  6  1  0  0  0  0
  4 18  1  0  0  0  0
  5  6  1  0  0  0  0
  5 18  1  0  0  0  0
  6 14  1  0  0  0  0
  7 17  1  0  0  0  0
  8 12  1  0  0  0  0
  9 13  1  0  0  0  0
 10 11  1  0  0  0  0
 10 14  1  0  0  0  0
 11 17  1  0  0  0  0
  3 19  1  0  0  0  0
  3 20  1  0  0  0  0
  4 21  1  0  0  0  0
  4 22  1  0  0  0  0
  5 23  1  0  0  0  0
  5 24  1  0  0  0  0
  6 25  1  0  0  0  0
  7 26  1  0  0  0  0
  7 27  1  0  0  0  0
  7 28  1  0  0  0  0
  8 29  1  0  0  0  0
  8 30  1  0  0  0  0
  9 31  1  0  0  0  0
  9 32  1  0  0  0  0
 10 33  1  0  0  0  0
 10 34  1  0  0  0  0
 11 35  1  0  0  0  0
 11 36  1  0  0  0  0
 12 37  1  0  0  0  0
 12 38  1  0  0  0  0
 13 39  1  0  0  0  0
M  END
> <FRED Chemgauss4 score>
-7.561605

$$$$
C70061876	P108003290
  -OEChem-05182014473D

 28 29  0     1  0  0  0  0  0999 V2000
  120.3333  105.7940  107.1749 C   0  0  0  0  0  0  0  0  0  0  0  0
  120.0225  103.9065  106.0904 C   0  0  0  0  0  0  0  0  0  0  0  0
  121.0060  104.6583  106.6854 C   0  0  0  0  0  0  0  0  0  0  0  0
  123.3037  106.5149  105.8105 C   0  0  0  0  0  0  0  0  0  0  0  0
  125.0291  106.9444  107.4003 C   0  0  0  0  0  0  0  0  0  0  0  0
  124.0954  105.8819  107.9482 C   0  0  0  0  0  0  0  0  0  0  0  0
  124.1917  107.6315  106.3260 C   0  0  1  0  0  0  0  0  0  0  0  0
  117.5545  104.2206  105.7924 C   0  0  0  0  0  0  0  0  0  0  0  0
  122.4697  104.3396  106.7870 C   0  0  0  0  0  0  0  0  0  0  0  0
  119.0237  105.7700  106.9134 N   0  0  0  0  0  0  0  0  0  0  0  0
  118.8656  104.6103  106.2530 N   0  0  0  0  0  0  0  0  0  0  0  0
  123.2842  105.5352  106.8040 N   0  0  0  0  0  0  0  0  0  0  0  0
  124.9726  108.1769  105.2579 N   0  0  0  0  0  0  0  0  0  0  0  0
  122.6952  106.5232  104.7507 O   0  0  0  0  0  0  0  0  0  0  0  0
  120.7406  106.6396  107.7107 H   0  0  0  0  0  0  0  0  0  0  0  0
  120.0470  102.9550  105.5768 H   0  0  0  0  0  0  0  0  0  0  0  0
  125.3863  107.6346  108.1706 H   0  0  0  0  0  0  0  0  0  0  0  0
  125.9092  106.4577  106.9589 H   0  0  0  0  0  0  0  0  0  0  0  0
  124.6379  105.0067  108.3168 H   0  0  0  0  0  0  0  0  0  0  0  0
  123.4397  106.2748  108.7317 H   0  0  0  0  0  0  0  0  0  0  0  0
  123.5415  108.3976  106.7727 H   0  0  0  0  0  0  0  0  0  0  0  0
  117.0769  103.6400  106.5861 H   0  0  0  0  0  0  0  0  0  0  0  0
  116.9671  105.1151  105.5668 H   0  0  0  0  0  0  0  0  0  0  0  0
  117.6544  103.6193  104.8845 H   0  0  0  0  0  0  0  0  0  0  0  0
  122.6793  103.7756  107.7024 H   0  0  0  0  0  0  0  0  0  0  0  0
  122.7971  103.7234  105.9431 H   0  0  0  0  0  0  0  0  0  0  0  0
  125.8216  108.6564  105.4838 H   0  0  0  0  0  0  0  0  0  0  0  0
  124.5574  108.2449  104.3496 H   0  0  0  0  0  0  0  0  0  0  0  0
  1  3  1  0  0  0  0
  1 10  2  0  0  0  0
  2  3  2  0  0  0  0
  2 11  1  0  0  0  0
  3  9  1  0  0  0  0
  4  7  1  0  0  0  0
  4 12  1  0  0  0  0
  4 14  2  0  0  0  0
  5  6  1  0  0  0  0
  5  7  1  0  0  0  0
  6 12  1  0  0  0  0
  7 13  1  0  0  0  0
  8 11  1  0  0  0  0
  9 12  1  0  0  0  0
 10 11  1  0  0  0  0
  1 15  1  0  0  0  0
  2 16  1  0  0  0  0
  5 17  1  0  0  0  0
  5 18  1  0  0  0  0
  6 19  1  0  0  0  0
  6 20  1  0  0  0  0
  7 21  1  0  0  0  0
  8 22  1  0  0  0  0
  8 23  1  0  0  0  0
  8 24  1  0  0  0  0
  9 25  1  0  0  0  0
  9 26  1  0  0  0  0
 13 27  1  0  0  0  0
 13 28  1  0  0  0  0
M  END
> <FRED Chemgauss4 score>
-7.553513

$$$$
C87669204	P137137924
  -OEChem-05182014473D

 29 29  0     1  0  0  0  0  0999 V2000
  119.3304  103.6020  103.9758 C   0  0  0  0  0  0  0  0  0  0  0  0
  119.2188  105.0311  104.4878 C   0  0  0  0  0  0  0  0  0  0  0  0
  119.7574  103.6951  102.5220 C   0  0  0  0  0  0  0  0  0  0  0  0
  120.5002  105.7614  104.0916 C   0  0  1  0  0  0  0  0  0  0  0  0
  121.6451  105.5268  105.0699 C   0  0  0  0  0  0  0  0  0  0  0  0
  123.7630  106.3562  105.8388 C   0  0  0  0  0  0  0  0  0  0  0  0
  125.7198  107.5141  106.9970 C   0  0  0  0  0  0  0  0  0  0  0  0
  124.5298  107.6612  106.0538 C   0  0  1  0  0  0  0  0  0  0  0  0
  122.6316  106.5474  104.9241 N   0  0  0  0  0  0  0  0  0  0  0  0
  125.2463  107.0961  108.2736 O   0  0  0  0  0  0  0  0  0  0  0  0
  125.0076  108.1506  104.8002 O   0  0  0  0  0  0  0  0  0  0  0  0
  120.9299  105.0778  102.4561 S   0  0  0  0  0  0  0  0  0  0  0  0
  120.0535  103.0240  104.5616 H   0  0  0  0  0  0  0  0  0  0  0  0
  118.3619  103.0917  104.0602 H   0  0  0  0  0  0  0  0  0  0  0  0
  118.3357  105.5335  104.0667 H   0  0  0  0  0  0  0  0  0  0  0  0
  119.0852  105.0266  105.5820 H   0  0  0  0  0  0  0  0  0  0  0  0
  120.2724  102.7819  102.2037 H   0  0  0  0  0  0  0  0  0  0  0  0
  118.9066  103.8671  101.8553 H   0  0  0  0  0  0  0  0  0  0  0  0
  120.3207  106.8259  103.9736 H   0  0  0  0  0  0  0  0  0  0  0  0
  122.0992  104.5641  104.8613 H   0  0  0  0  0  0  0  0  0  0  0  0
  121.2621  105.5485  106.0841 H   0  0  0  0  0  0  0  0  0  0  0  0
  124.4268  105.5990  105.4082 H   0  0  0  0  0  0  0  0  0  0  0  0
  123.3917  105.9726  106.7948 H   0  0  0  0  0  0  0  0  0  0  0  0
  126.2410  108.4679  107.1243 H   0  0  0  0  0  0  0  0  0  0  0  0
  126.4233  106.7547  106.6408 H   0  0  0  0  0  0  0  0  0  0  0  0
  123.8459  108.4224  106.4476 H   0  0  0  0  0  0  0  0  0  0  0  0
  122.2270  107.4758  105.1114 H   0  0  0  0  0  0  0  0  0  0  0  0
  126.0259  107.0132  108.8448 H   0  0  0  0  0  0  0  0  0  0  0  0
  124.2253  108.2966  104.2476 H   0  0  0  0  0  0  0  0  0  0  0  0
  1  2  1  0  0  0  0
  1  3  1  0  0  0  0
  2  4  1  0  0  0  0
  3 12  1  0  0  0  0
  4  5  1  0  0  0  0
  4 12  1  0  0  0  0
  5  9  1  0  0  0  0
  6  8  1  0  0  0  0
  6  9  1  0  0  0  0
  7  8  1  0  0  0  0
  7 10  1  0  0  0  0
  8 11  1  0  0  0  0
  1 13  1  0  0  0  0
  1 14  1  0  0  0  0
  2 15  1  0  0  0  0
  2 16  1  0  0  0  0
  3 17  1  0  0  0  0
  3 18  1  0  0  0  0
  4 19  1  0  0  0  0
  5 20  1  0  0  0  0
  5 21  1  0  0  0  0
  6 22  1  0  0  0  0
  6 23  1  0  0  0  0
  7 24  1  0  0  0  0
  7 25  1  0  0  0  0
  8 26  1  0  0  0  0
  9 27  1  0  0  0  0
 10 28  1  0  0  0  0
 11 29  1  0  0  0  0
M  END
> <FRED Chemgauss4 score>
-7.551816

$$$$
C97300902	P154083584
  -OEChem-05182014473D

 42 42  0     1  0  0  0  0  0999 V2000
  125.5518  106.8061  106.8942 C   0  0  0  0  0  0  0  0  0  0  0  0
  125.2207  105.8471  109.1555 C   0  0  0  0  0  0  0  0  0  0  0  0
  120.2547  106.4065  105.0676 C   0  0  0  0  0  0  0  0  0  0  0  0
  125.0888  105.5077  106.2876 C   0  0  0  0  0  0  0  0  0  0  0  0
  124.8849  104.4917  108.5144 C   0  0  0  0  0  0  0  0  0  0  0  0
  126.1975  103.6889  108.4100 C   0  0  0  0  0  0  0  0  0  0  0  0
  123.9326  103.7460  109.4755 C   0  0  0  0  0  0  0  0  0  0  0  0
  119.8359  103.9723  104.6692 C   0  0  0  0  0  0  0  0  0  0  0  0
  118.8625  104.9617  106.7262 C   0  0  0  0  0  0  0  0  0  0  0  0
  122.4684  104.0045  105.6858 C   0  0  0  0  0  0  0  0  0  0  0  0
  121.3661  104.6396  106.5458 C   0  0  0  0  0  0  0  0  0  0  0  0
  123.6692  103.6059  106.5453 C   0  0  0  0  0  0  0  0  0  0  0  0
  120.0734  105.0337  105.7701 C   0  0  0  0  0  0  0  0  0  0  0  0
  125.5826  106.8563  108.2755 N   0  0  0  0  0  0  0  0  0  0  0  0
  124.2246  104.7812  107.2215 N   0  0  2  0  0  0  0  0  0  0  0  0
  119.1922  106.8355  104.3087 N   0  0  0  0  0  0  0  0  0  0  0  0
  125.9193  107.7444  106.1862 O   0  0  0  0  0  0  0  0  0  0  0  0
  125.2337  106.0217  110.3750 O   0  0  0  0  0  0  0  0  0  0  0  0
  121.6150  107.3825  105.1889 S   0  0  0  0  0  0  0  0  0  0  0  0
  124.6051  105.7128  105.3275 H   0  0  0  0  0  0  0  0  0  0  0  0
  125.9930  104.9190  106.0918 H   0  0  0  0  0  0  0  0  0  0  0  0
  125.9863  102.7269  107.9599 H   0  0  0  0  0  0  0  0  0  0  0  0
  126.6051  103.5513  109.4037 H   0  0  0  0  0  0  0  0  0  0  0  0
  126.8984  104.2398  107.7950 H   0  0  0  0  0  0  0  0  0  0  0  0
  123.6786  102.7835  109.0467 H   0  0  0  0  0  0  0  0  0  0  0  0
  123.0341  104.3363  109.6128 H   0  0  0  0  0  0  0  0  0  0  0  0
  124.4297  103.6050  110.4283 H   0  0  0  0  0  0  0  0  0  0  0  0
  119.7001  102.9763  105.1067 H   0  0  0  0  0  0  0  0  0  0  0  0
  120.6842  103.9223  103.9768 H   0  0  0  0  0  0  0  0  0  0  0  0
  118.9428  104.1897  104.0735 H   0  0  0  0  0  0  0  0  0  0  0  0
  118.7656  103.9811  107.2030 H   0  0  0  0  0  0  0  0  0  0  0  0
  118.9380  105.7087  107.5252 H   0  0  0  0  0  0  0  0  0  0  0  0
  117.9264  105.1581  106.1902 H   0  0  0  0  0  0  0  0  0  0  0  0
  122.0802  103.1172  105.1726 H   0  0  0  0  0  0  0  0  0  0  0  0
  122.7966  104.7105  104.9148 H   0  0  0  0  0  0  0  0  0  0  0  0
  121.7776  105.5348  107.0323 H   0  0  0  0  0  0  0  0  0  0  0  0
  121.1198  103.9482  107.3616 H   0  0  0  0  0  0  0  0  0  0  0  0
  124.4472  103.1547  105.9202 H   0  0  0  0  0  0  0  0  0  0  0  0
  123.3699  102.8642  107.2941 H   0  0  0  0  0  0  0  0  0  0  0  0
  125.9377  107.7133  108.6903 H   0  0  0  0  0  0  0  0  0  0  0  0
  118.3533  106.2704  104.2272 H   0  0  0  0  0  0  0  0  0  0  0  0
  119.1922  107.7133  103.8010 H   0  0  0  0  0  0  0  0  0  0  0  0
  1  4  1  0  0  0  0
  1 14  1  0  0  0  0
  1 17  2  0  0  0  0
  2  5  1  0  0  0  0
  2 14  1  0  0  0  0
  2 18  2  0  0  0  0
  3 13  1  0  0  0  0
  3 16  1  0  0  0  0
  3 19  2  0  0  0  0
  4 15  1  0  0  0  0
  5  6  1  0  0  0  0
  5  7  1  0  0  0  0
  5 15  1  0  0  0  0
  8 13  1  0  0  0  0
  9 13  1  0  0  0  0
 10 11  1  0  0  0  0
 10 12  1  0  0  0  0
 11 13  1  0  0  0  0
 12 15  1  0  0  0  0
  4 20  1  0  0  0  0
  4 21  1  0  0  0  0
  6 22  1  0  0  0  0
  6 23  1  0  0  0  0
  6 24  1  0  0  0  0
  7 25  1  0  0  0  0
  7 26  1  0  0  0  0
  7 27  1  0  0  0  0
  8 28  1  0  0  0  0
  8 29  1  0  0  0  0
  8 30  1  0  0  0  0
  9 31  1  0  0  0  0
  9 32  1  0  0  0  0
  9 33  1  0  0  0  0
 10 34  1  0  0  0  0
 10 35  1  0  0  0  0
 11 36  1  0  0  0  0
 11 37  1  0  0  0  0
 12 38  1  0  0  0  0
 12 39  1  0  0  0  0
 14 40  1  0  0  0  0
 16 41  1  0  0  0  0
 16 42  1  0  0  0  0
M  END
> <FRED Chemgauss4 score>
-7.551069

$$$$
C88142891	P137854538
  -OEChem-05182014473D

 29 30  0     1  0  0  0  0  0999 V2000
  122.6831  106.4263  105.4057 C   0  0  0  0  0  0  0  0  0  0  0  0
  124.5762  106.2422  106.2991 C   0  0  0  0  0  0  0  0  0  0  0  0
  121.1874  105.1488  103.8104 C   0  0  0  0  0  0  0  0  0  0  0  0
  119.9426  104.3391  104.0791 C   0  0  0  0  0  0  0  0  0  0  0  0
  121.2743  106.0161  105.0611 C   0  0  1  0  0  0  0  0  0  0  0  0
  120.0650  104.0819  105.5706 C   0  0  2  0  0  0  0  0  0  0  0  0
  118.7360  103.8146  106.2495 C   0  0  0  0  0  0  0  0  0  0  0  0
  125.5756  104.0635  107.1147 C   0  0  0  0  0  0  0  0  0  0  0  0
  125.6275  105.6078  107.1042 C   0  0  1  0  0  0  0  0  0  0  0  0
  123.3503  107.5022  105.0592 N   0  0  0  0  0  0  0  0  0  0  0  0
  124.5957  107.3810  105.6468 N   0  0  0  0  0  0  0  0  0  0  0  0
  126.9783  105.9973  106.7030 N   0  0  0  0  0  0  0  0  0  0  0  0
  123.3943  105.5751  106.1946 O   0  0  0  0  0  0  0  0  0  0  0  0
  120.6691  105.2605  106.1302 O   0  0  0  0  0  0  0  0  0  0  0  0
  122.0526  104.4791  103.7237 H   0  0  0  0  0  0  0  0  0  0  0  0
  121.1297  105.7392  102.8911 H   0  0  0  0  0  0  0  0  0  0  0  0
  119.0552  104.9437  103.8554 H   0  0  0  0  0  0  0  0  0  0  0  0
  119.8883  103.4188  103.4911 H   0  0  0  0  0  0  0  0  0  0  0  0
  120.6550  106.9363  104.9224 H   0  0  0  0  0  0  0  0  0  0  0  0
  120.7505  103.2465  105.7571 H   0  0  0  0  0  0  0  0  0  0  0  0
  118.0444  104.6412  106.0702 H   0  0  0  0  0  0  0  0  0  0  0  0
  118.8751  103.7051  107.3276 H   0  0  0  0  0  0  0  0  0  0  0  0
  118.2887  102.8964  105.8613 H   0  0  0  0  0  0  0  0  0  0  0  0
  125.6313  103.6756  106.0916 H   0  0  0  0  0  0  0  0  0  0  0  0
  126.4016  103.6280  107.6881 H   0  0  0  0  0  0  0  0  0  0  0  0
  124.6448  103.6993  107.5639 H   0  0  0  0  0  0  0  0  0  0  0  0
  125.5665  105.9221  108.1697 H   0  0  0  0  0  0  0  0  0  0  0  0
  127.7269  105.3760  106.9172 H   0  0  0  0  0  0  0  0  0  0  0  0
  127.1282  106.9411  106.4212 H   0  0  0  0  0  0  0  0  0  0  0  0
  1  5  1  0  0  0  0
  1 10  2  0  0  0  0
  1 13  1  0  0  0  0
  2  9  1  0  0  0  0
  2 11  2  0  0  0  0
  2 13  1  0  0  0  0
  3  4  1  0  0  0  0
  3  5  1  0  0  0  0
  4  6  1  0  0  0  0
  5 14  1  0  0  0  0
  6  7  1  0  0  0  0
  6 14  1  0  0  0  0
  8  9  1  0  0  0  0
  9 12  1  0  0  0  0
 10 11  1  0  0  0  0
  3 15  1  0  0  0  0
  3 16  1  0  0  0  0
  4 17  1  0  0  0  0
  4 18  1  0  0  0  0
  5 19  1  0  0  0  0
  6 20  1  0  0  0  0
  7 21  1  0  0  0  0
  7 22  1  0  0  0  0
  7 23  1  0  0  0  0
  8 24  1  0  0  0  0
  8 25  1  0  0  0  0
  8 26  1  0  0  0  0
  9 27  1  0  0  0  0
 12 28  1  0  0  0  0
 12 29  1  0  0  0  0
M  END
> <FRED Chemgauss4 score>
-7.542642

$$$$
C83523757	P130642951
  -OEChem-05182014473D

 30 30  0     1  0  0  0  0  0999 V2000
  122.2032  105.6914  106.3256 C   0  0  0  0  0  0  0  0  0  0  0  0
  125.6417  104.8272  107.2370 C   0  0  0  0  0  0  0  0  0  0  0  0
  117.5349  104.4885  105.7119 C   0  0  0  0  0  0  0  0  0  0  0  0
  118.8744  103.7977  105.7659 C   0  0  0  0  0  0  0  0  0  0  0  0
  117.8932  105.8170  105.0800 C   0  0  0  0  0  0  0  0  0  0  0  0
  119.7974  104.9539  106.1100 C   0  0  1  0  0  0  0  0  0  0  0  0
  121.2273  104.7442  105.6510 C   0  0  0  0  0  0  0  0  0  0  0  0
  124.9243  105.0734  108.5495 C   0  0  0  0  0  0  0  0  0  0  0  0
  123.6300  105.8597  108.3602 C   0  0  0  0  0  0  0  0  0  0  0  0
  125.3582  103.6319  106.6314 N   0  0  0  0  0  0  0  0  0  0  0  0
  122.6837  105.1664  107.5164 N   0  0  0  0  0  0  0  0  0  0  0  0
  122.5146  106.7817  105.8540 O   0  0  0  0  0  0  0  0  0  0  0  0
  119.2433  106.1140  105.4665 O   0  0  0  0  0  0  0  0  0  0  0  0
  126.7095  105.9285  106.5740 S   0  0  0  0  0  0  0  0  0  0  0  0
  116.7775  103.9379  105.1481 H   0  0  0  0  0  0  0  0  0  0  0  0
  117.1570  104.6475  106.7288 H   0  0  0  0  0  0  0  0  0  0  0  0
  118.9162  102.9874  106.4989 H   0  0  0  0  0  0  0  0  0  0  0  0
  119.1138  103.3823  104.7794 H   0  0  0  0  0  0  0  0  0  0  0  0
  117.8662  105.7554  103.9868 H   0  0  0  0  0  0  0  0  0  0  0  0
  117.2312  106.6263  105.4004 H   0  0  0  0  0  0  0  0  0  0  0  0
  119.7804  105.1442  107.1899 H   0  0  0  0  0  0  0  0  0  0  0  0
  121.2924  104.8951  104.5668 H   0  0  0  0  0  0  0  0  0  0  0  0
  121.5370  103.7151  105.8681 H   0  0  0  0  0  0  0  0  0  0  0  0
  124.7265  104.1275  109.0675 H   0  0  0  0  0  0  0  0  0  0  0  0
  125.5955  105.6615  109.1883 H   0  0  0  0  0  0  0  0  0  0  0  0
  123.8091  106.8409  107.9100 H   0  0  0  0  0  0  0  0  0  0  0  0
  123.1418  106.0097  109.3285 H   0  0  0  0  0  0  0  0  0  0  0  0
  124.7124  102.9602  107.0337 H   0  0  0  0  0  0  0  0  0  0  0  0
  125.7888  103.3772  105.7487 H   0  0  0  0  0  0  0  0  0  0  0  0
  122.3546  104.2510  107.8091 H   0  0  0  0  0  0  0  0  0  0  0  0
  1  7  1  0  0  0  0
  1 11  1  0  0  0  0
  1 12  2  0  0  0  0
  2  8  1  0  0  0  0
  2 10  1  0  0  0  0
  2 14  2  0  0  0  0
  3  4  1  0  0  0  0
  3  5  1  0  0  0  0
  4  6  1  0  0  0  0
  5 13  1  0  0  0  0
  6  7  1  0  0  0  0
  6 13  1  0  0  0  0
  8  9  1  0  0  0  0
  9 11  1  0  0  0  0
  3 15  1  0  0  0  0
  3 16  1  0  0  0  0
  4 17  1  0  0  0  0
  4 18  1  0  0  0  0
  5 19  1  0  0  0  0
  5 20  1  0  0  0  0
  6 21  1  0  0  0  0
  7 22  1  0  0  0  0
  7 23  1  0  0  0  0
  8 24  1  0  0  0  0
  8 25  1  0  0  0  0
  9 26  1  0  0  0  0
  9 27  1  0  0  0  0
 10 28  1  0  0  0  0
 10 29  1  0  0  0  0
 11 30  1  0  0  0  0
M  END
> <FRED Chemgauss4 score>
-7.540061

$$$$
C87338650	P136656130
  -OEChem-05182014473D

 23 24  0     1  0  0  0  0  0999 V2000
  119.9646  105.2153  103.7421 C   0  0  0  0  0  0  0  0  0  0  0  0
  120.1286  104.1248  104.5634 C   0  0  0  0  0  0  0  0  0  0  0  0
  122.8672  106.3066  105.4975 C   0  0  0  0  0  0  0  0  0  0  0  0
  121.6855  105.6433  104.9193 C   0  0  0  0  0  0  0  0  0  0  0  0
  124.5290  106.6473  106.6815 C   0  0  0  0  0  0  0  0  0  0  0  0
  125.2311  106.5319  109.1103 C   0  0  0  0  0  0  0  0  0  0  0  0
  125.6886  106.6510  107.6541 C   0  0  1  0  0  0  0  0  0  0  0  0
  120.9371  106.1569  103.9684 N   0  0  0  0  0  0  0  0  0  0  0  0
  123.6137  105.7323  106.4848 N   0  0  0  0  0  0  0  0  0  0  0  0
  123.2756  107.5107  105.0861 N   0  0  0  0  0  0  0  0  0  0  0  0
  121.2352  104.4134  105.3113 N   0  0  0  0  0  0  0  0  0  0  0  0
  126.6348  105.6052  107.3286 N   0  0  0  0  0  0  0  0  0  0  0  0
  124.4007  107.7425  105.8873 O   0  0  0  0  0  0  0  0  0  0  0  0
  124.3558  107.6124  109.4168 O   0  0  0  0  0  0  0  0  0  0  0  0
  119.1958  105.3702  102.9992 H   0  0  0  0  0  0  0  0  0  0  0  0
  119.5793  103.2020  104.6810 H   0  0  0  0  0  0  0  0  0  0  0  0
  124.6768  105.6007  109.2714 H   0  0  0  0  0  0  0  0  0  0  0  0
  126.0744  106.5637  109.8088 H   0  0  0  0  0  0  0  0  0  0  0  0
  126.2539  107.5851  107.5446 H   0  0  0  0  0  0  0  0  0  0  0  0
  121.6419  103.8227  106.0247 H   0  0  0  0  0  0  0  0  0  0  0  0
  127.2607  105.2820  108.0428 H   0  0  0  0  0  0  0  0  0  0  0  0
  126.7841  105.3736  106.3640 H   0  0  0  0  0  0  0  0  0  0  0  0
  124.0903  107.5002  110.3432 H   0  0  0  0  0  0  0  0  0  0  0  0
  1  2  2  0  0  0  0
  1  8  1  0  0  0  0
  2 11  1  0  0  0  0
  3  4  1  0  0  0  0
  3  9  1  0  0  0  0
  3 10  2  0  0  0  0
  4  8  2  0  0  0  0
  4 11  1  0  0  0  0
  5  7  1  0  0  0  0
  5  9  2  0  0  0  0
  5 13  1  0  0  0  0
  6  7  1  0  0  0  0
  6 14  1  0  0  0  0
  7 12  1  0  0  0  0
 10 13  1  0  0  0  0
  1 15  1  0  0  0  0
  2 16  1  0  0  0  0
  6 17  1  0  0  0  0
  6 18  1  0  0  0  0
  7 19  1  0  0  0  0
 11 20  1  0  0  0  0
 12 21  1  0  0  0  0
 12 22  1  0  0  0  0
 14 23  1  0  0  0  0
M  END
> <FRED Chemgauss4 score>
-7.539629

$$$$
C01532566	P57081967
  -OEChem-05182014473D

 22 22  0     1  0  0  0  0  0999 V2000
  122.6918  105.7742  106.8791 C   0  0  0  0  0  0  0  0  0  0  0  0
  123.2529  106.5561  105.7128 C   0  0  2  0  0  0  0  0  0  0  0  0
  124.3845  107.4931  106.0901 C   0  0  1  0  0  0  0  0  0  0  0  0
  125.4273  106.7438  106.9053 C   0  0  2  0  0  0  0  0  0  0  0  0
  124.7554  106.1164  108.1221 C   0  0  2  0  0  0  0  0  0  0  0  0
  125.7029  105.2091  108.9018 C   0  0  0  0  0  0  0  0  0  0  0  0
  121.5067  105.4630  106.9580 O   0  0  0  0  0  0  0  0  0  0  0  0
  123.6054  105.3169  107.7707 O   0  0  0  0  0  0  0  0  0  0  0  0
  122.2026  107.3234  105.1400 O   0  0  0  0  0  0  0  0  0  0  0  0
  125.0088  107.9692  104.8959 O   0  0  0  0  0  0  0  0  0  0  0  0
  126.4275  107.6709  107.3183 O   0  0  0  0  0  0  0  0  0  0  0  0
  126.8096  105.9790  109.3340 O   0  0  0  0  0  0  0  0  0  0  0  0
  123.5859  105.8396  104.9524 H   0  0  0  0  0  0  0  0  0  0  0  0
  124.0161  108.3744  106.6290 H   0  0  0  0  0  0  0  0  0  0  0  0
  125.9094  105.9850  106.2766 H   0  0  0  0  0  0  0  0  0  0  0  0
  124.4107  106.9000  108.8097 H   0  0  0  0  0  0  0  0  0  0  0  0
  126.0544  104.4006  108.2611 H   0  0  0  0  0  0  0  0  0  0  0  0
  125.1907  104.7949  109.7700 H   0  0  0  0  0  0  0  0  0  0  0  0
  121.5231  106.6943  104.8484 H   0  0  0  0  0  0  0  0  0  0  0  0
  125.3406  107.1867  104.4314 H   0  0  0  0  0  0  0  0  0  0  0  0
  125.9775  108.3436  107.8527 H   0  0  0  0  0  0  0  0  0  0  0  0
  127.3980  105.3819  109.8270 H   0  0  0  0  0  0  0  0  0  0  0  0
  1  2  1  0  0  0  0
  1  7  2  0  0  0  0
  1  8  1  0  0  0  0
  2  3  1  0  0  0  0
  2  9  1  0  0  0  0
  3  4  1  0  0  0  0
  3 10  1  0  0  0  0
  4  5  1  0  0  0  0
  4 11  1  0  0  0  0
  5  6  1  0  0  0  0
  5  8  1  0  0  0  0
  6 12  1  0  0  0  0
  2 13  1  0  0  0  0
  3 14  1  0  0  0  0
  4 15  1  0  0  0  0
  5 16  1  0  0  0  0
  6 17  1  0  0  0  0
  6 18  1  0  0  0  0
  9 19  1  0  0  0  0
 10 20  1  0  0  0  0
 11 21  1  0  0  0  0
 12 22  1  0  0  0  0
M  END
> <FRED Chemgauss4 score>
-7.537712

$$$$
C42805961	P64708179
  -OEChem-05182014473D

 37 37  0     0  0  0  0  0  0999 V2000
  120.1736  105.0704  106.5134 C   0  0  0  0  0  0  0  0  0  0  0  0
  118.9855  106.2360  104.7623 C   0  0  0  0  0  0  0  0  0  0  0  0
  118.0403  104.2398  105.7414 C   0  0  0  0  0  0  0  0  0  0  0  0
  120.0927  106.1243  105.6033 C   0  0  0  0  0  0  0  0  0  0  0  0
  119.1475  104.1281  106.5824 C   0  0  0  0  0  0  0  0  0  0  0  0
  117.9593  105.2937  104.8313 C   0  0  0  0  0  0  0  0  0  0  0  0
  121.1627  107.1064  105.5321 C   0  0  0  0  0  0  0  0  0  0  0  0
  125.7877  106.4980  106.6071 C   0  0  0  0  0  0  0  0  0  0  0  0
  126.2482  105.1010  106.3530 C   0  0  0  0  0  0  0  0  0  0  0  0
  117.0246  104.5078  102.3288 C   0  0  0  0  0  0  0  0  0  0  0  0
  122.9917  108.2716  106.7900 C   0  0  0  0  0  0  0  0  0  0  0  0
  124.0562  107.8391  107.7843 C   0  0  0  0  0  0  0  0  0  0  0  0
  119.2293  103.0624  107.5029 N   0  0  0  0  0  0  0  0  0  0  0  0
  121.9128  107.3146  106.6954 N   0  0  0  0  0  0  0  0  0  0  0  0
  124.6641  106.5900  107.4132 N   0  0  0  0  0  0  0  0  0  0  0  0
  121.3718  107.7373  104.4806 O   0  0  0  0  0  0  0  0  0  0  0  0
  126.4020  107.4360  106.1127 O   0  0  0  0  0  0  0  0  0  0  0  0
  115.4561  104.7497  104.4158 O   0  0  0  0  0  0  0  0  0  0  0  0
  116.4303  106.8231  103.3680 O   0  0  0  0  0  0  0  0  0  0  0  0
  116.5731  105.4330  103.7792 S   0  0  0  0  0  0  0  0  0  0  0  0
  121.0372  104.9822  107.1692 H   0  0  0  0  0  0  0  0  0  0  0  0
  118.9223  107.0575  104.0524 H   0  0  0  0  0  0  0  0  0  0  0  0
  117.2407  103.5044  105.7952 H   0  0  0  0  0  0  0  0  0  0  0  0
  125.7824  104.6611  105.4565 H   0  0  0  0  0  0  0  0  0  0  0  0
  127.3341  105.0419  106.1754 H   0  0  0  0  0  0  0  0  0  0  0  0
  126.0482  104.3837  107.1650 H   0  0  0  0  0  0  0  0  0  0  0  0
  116.1960  104.5520  101.6203 H   0  0  0  0  0  0  0  0  0  0  0  0
  117.9204  104.9579  101.8982 H   0  0  0  0  0  0  0  0  0  0  0  0
  117.2195  103.4761  102.6254 H   0  0  0  0  0  0  0  0  0  0  0  0
  123.4094  108.3938  105.7856 H   0  0  0  0  0  0  0  0  0  0  0  0
  122.5504  109.2232  107.1020 H   0  0  0  0  0  0  0  0  0  0  0  0
  124.8561  108.5844  107.8310 H   0  0  0  0  0  0  0  0  0  0  0  0
  123.6376  107.7158  108.7883 H   0  0  0  0  0  0  0  0  0  0  0  0
  120.0493  102.9670  108.0670 H   0  0  0  0  0  0  0  0  0  0  0  0
  118.5100  102.3678  107.5096 H   0  0  0  0  0  0  0  0  0  0  0  0
  121.6598  106.8190  107.5440 H   0  0  0  0  0  0  0  0  0  0  0  0
  124.2472  105.7276  107.7610 H   0  0  0  0  0  0  0  0  0  0  0  0
  1  4  1  0  0  0  0
  1  5  2  0  0  0  0
  2  4  2  0  0  0  0
  2  6  1  0  0  0  0
  3  5  1  0  0  0  0
  3  6  2  0  0  0  0
  4  7  1  0  0  0  0
  5 13  1  0  0  0  0
  6 20  1  0  0  0  0
  7 14  1  0  0  0  0
  7 16  2  0  0  0  0
  8  9  1  0  0  0  0
  8 15  1  0  0  0  0
  8 17  2  0  0  0  0
 10 20  1  0  0  0  0
 11 12  1  0  0  0  0
 11 14  1  0  0  0  0
 12 15  1  0  0  0  0
 18 20  2  0  0  0  0
 19 20  2  0  0  0  0
  1 21  1  0  0  0  0
  2 22  1  0  0  0  0
  3 23  1  0  0  0  0
  9 24  1  0  0  0  0
  9 25  1  0  0  0  0
  9 26  1  0  0  0  0
 10 27  1  0  0  0  0
 10 28  1  0  0  0  0
 10 29  1  0  0  0  0
 11 30  1  0  0  0  0
 11 31  1  0  0  0  0
 12 32  1  0  0  0  0
 12 33  1  0  0  0  0
 13 34  1  0  0  0  0
 13 35  1  0  0  0  0
 14 36  1  0  0  0  0
 15 37  1  0  0  0  0
M  END
> <FRED Chemgauss4 score>
-7.536977

$$$$
C50973521	P76326569
  -OEChem-05182014473D

 29 30  0     1  0  0  0  0  0999 V2000
  121.3358  105.7068  105.1961 C   0  0  0  0  0  0  0  0  0  0  0  0
  122.9925  106.9045  105.5123 C   0  0  0  0  0  0  0  0  0  0  0  0
  118.0716  104.0550  106.3708 C   0  0  0  0  0  0  0  0  0  0  0  0
  117.9432  103.1832  105.1322 C   0  0  0  0  0  0  0  0  0  0  0  0
  119.4954  104.5946  106.5167 C   0  0  0  0  0  0  0  0  0  0  0  0
  118.3630  103.9468  103.8764 C   0  0  0  0  0  0  0  0  0  0  0  0
  120.2265  104.6787  105.1678 C   0  0  1  0  0  0  0  0  0  0  0  0
  124.0696  108.3569  107.2794 C   0  0  0  0  0  0  0  0  0  0  0  0
  124.2515  107.4037  106.0763 C   0  0  2  0  0  0  0  0  0  0  0  0
  122.3975  105.7611  105.9599 N   0  0  0  0  0  0  0  0  0  0  0  0
  122.3556  107.5434  104.5264 N   0  0  0  0  0  0  0  0  0  0  0  0
  125.1011  108.0605  105.0835 N   0  0  0  0  0  0  0  0  0  0  0  0
  121.2336  106.7331  104.3114 O   0  0  0  0  0  0  0  0  0  0  0  0
  119.2933  105.0011  104.1339 O   0  0  0  0  0  0  0  0  0  0  0  0
  117.3594  104.8887  106.3233 H   0  0  0  0  0  0  0  0  0  0  0  0
  117.8147  103.4675  107.2629 H   0  0  0  0  0  0  0  0  0  0  0  0
  118.5455  102.2733  105.2391 H   0  0  0  0  0  0  0  0  0  0  0  0
  116.8950  102.8734  105.0258 H   0  0  0  0  0  0  0  0  0  0  0  0
  119.4357  105.6001  106.9705 H   0  0  0  0  0  0  0  0  0  0  0  0
  120.0634  103.9702  107.2267 H   0  0  0  0  0  0  0  0  0  0  0  0
  118.7956  103.2607  103.1223 H   0  0  0  0  0  0  0  0  0  0  0  0
  117.4728  104.3989  103.4035 H   0  0  0  0  0  0  0  0  0  0  0  0
  120.6870  103.6900  104.9346 H   0  0  0  0  0  0  0  0  0  0  0  0
  123.4481  109.2126  106.9937 H   0  0  0  0  0  0  0  0  0  0  0  0
  123.5915  107.8594  108.1307 H   0  0  0  0  0  0  0  0  0  0  0  0
  125.0333  108.7418  107.6315 H   0  0  0  0  0  0  0  0  0  0  0  0
  124.8884  106.5702  106.4483 H   0  0  0  0  0  0  0  0  0  0  0  0
  125.1252  107.6790  104.1638 H   0  0  0  0  0  0  0  0  0  0  0  0
  125.7686  108.7253  105.4068 H   0  0  0  0  0  0  0  0  0  0  0  0
  1  7  1  0  0  0  0
  1 10  2  0  0  0  0
  1 13  1  0  0  0  0
  2  9  1  0  0  0  0
  2 10  1  0  0  0  0
  2 11  2  0  0  0  0
  3  4  1  0  0  0  0
  3  5  1  0  0  0  0
  4  6  1  0  0  0  0
  5  7  1  0  0  0  0
  6 14  1  0  0  0  0
  7 14  1  0  0  0  0
  8  9  1  0  0  0  0
  9 12  1  0  0  0  0
 11 13  1  0  0  0  0
  3 15  1  0  0  0  0
  3 16  1  0  0  0  0
  4 17  1  0  0  0  0
  4 18  1  0  0  0  0
  5 19  1  0  0  0  0
  5 20  1  0  0  0  0
  6 21  1  0  0  0  0
  6 22  1  0  0  0  0
  7 23  1  0  0  0  0
  8 24  1  0  0  0  0
  8 25  1  0  0  0  0
  8 26  1  0  0  0  0
  9 27  1  0  0  0  0
 12 28  1  0  0  0  0
 12 29  1  0  0  0  0
M  END
> <FRED Chemgauss4 score>
-7.531659

$$$$
C94297055	P147797732
  -OEChem-05182014473D

 38 38  0     1  0  0  0  0  0999 V2000
  125.1798  103.6196  108.0810 C   0  0  0  0  0  0  0  0  0  0  0  0
  125.6462  105.7287  108.4926 C   0  0  0  0  0  0  0  0  0  0  0  0
  125.4972  104.5156  109.1194 C   0  0  0  0  0  0  0  0  0  0  0  0
  121.2277  108.1121  106.5066 C   0  0  0  0  0  0  0  0  0  0  0  0
  120.7310  104.6785  101.0104 C   0  0  0  0  0  0  0  0  0  0  0  0
  125.4591  106.4846  106.0911 C   0  0  0  0  0  0  0  0  0  0  0  0
  120.7890  106.5445  104.7395 C   0  0  0  0  0  0  0  0  0  0  0  0
  122.9220  106.5422  105.8454 C   0  0  0  0  0  0  0  0  0  0  0  0
  121.2171  106.0834  103.3595 C   0  0  0  0  0  0  0  0  0  0  0  0
  124.2005  107.3606  106.0563 C   0  0  2  0  0  0  0  0  0  0  0  0
  125.1298  104.2128  106.8853 N   0  0  0  0  0  0  0  0  0  0  0  0
  125.4176  105.4946  107.1685 N   0  0  0  0  0  0  0  0  0  0  0  0
  125.6267  104.2510  110.4330 N   0  0  0  0  0  0  0  0  0  0  0  0
  121.8117  107.3673  105.3890 N   0  0  2  0  0  0  0  0  0  0  0  0
  119.9254  103.8110  103.3409 O   0  0  0  0  0  0  0  0  0  0  0  0
  118.8171  105.8511  102.3501 O   0  0  0  0  0  0  0  0  0  0  0  0
  124.3233  108.2757  104.9649 O   0  0  0  0  0  0  0  0  0  0  0  0
  120.0070  105.0527  102.5908 S   0  0  0  0  0  0  0  0  0  0  0  0
  124.9830  102.5585  108.1418 H   0  0  0  0  0  0  0  0  0  0  0  0
  125.8887  106.7147  108.8656 H   0  0  0  0  0  0  0  0  0  0  0  0
  121.9926  108.7254  106.9899 H   0  0  0  0  0  0  0  0  0  0  0  0
  120.8121  107.4212  107.2452 H   0  0  0  0  0  0  0  0  0  0  0  0
  120.4274  108.7652  106.1484 H   0  0  0  0  0  0  0  0  0  0  0  0
  120.0420  104.0365  100.4593 H   0  0  0  0  0  0  0  0  0  0  0  0
  120.8920  105.6153  100.4749 H   0  0  0  0  0  0  0  0  0  0  0  0
  121.6794  104.1661  101.1789 H   0  0  0  0  0  0  0  0  0  0  0  0
  126.3587  107.0935  106.2429 H   0  0  0  0  0  0  0  0  0  0  0  0
  125.5922  105.9229  105.1594 H   0  0  0  0  0  0  0  0  0  0  0  0
  119.8679  107.1340  104.6984 H   0  0  0  0  0  0  0  0  0  0  0  0
  120.6170  105.6803  105.3883 H   0  0  0  0  0  0  0  0  0  0  0  0
  123.1090  105.7490  105.1119 H   0  0  0  0  0  0  0  0  0  0  0  0
  122.6446  106.0350  106.7770 H   0  0  0  0  0  0  0  0  0  0  0  0
  122.1312  105.4858  103.4241 H   0  0  0  0  0  0  0  0  0  0  0  0
  121.3938  106.9273  102.6857 H   0  0  0  0  0  0  0  0  0  0  0  0
  124.1198  107.9555  106.9744 H   0  0  0  0  0  0  0  0  0  0  0  0
  125.4497  103.3130  110.8272 H   0  0  0  0  0  0  0  0  0  0  0  0
  125.8174  104.9902  111.1286 H   0  0  0  0  0  0  0  0  0  0  0  0
  123.5174  108.8129  104.9686 H   0  0  0  0  0  0  0  0  0  0  0  0
  1  3  1  0  0  0  0
  1 11  2  0  0  0  0
  2  3  2  0  0  0  0
  2 12  1  0  0  0  0
  3 13  1  0  0  0  0
  4 14  1  0  0  0  0
  5 18  1  0  0  0  0
  6 10  1  0  0  0  0
  6 12  1  0  0  0  0
  7  9  1  0  0  0  0
  7 14  1  0  0  0  0
  8 10  1  0  0  0  0
  8 14  1  0  0  0  0
  9 18  1  0  0  0  0
 10 17  1  0  0  0  0
 11 12  1  0  0  0  0
 15 18  2  0  0  0  0
 16 18  2  0  0  0  0
  1 19  1  0  0  0  0
  2 20  1  0  0  0  0
  4 21  1  0  0  0  0
  4 22  1  0  0  0  0
  4 23  1  0  0  0  0
  5 24  1  0  0  0  0
  5 25  1  0  0  0  0
  5 26  1  0  0  0  0
  6 27  1  0  0  0  0
  6 28  1  0  0  0  0
  7 29  1  0  0  0  0
  7 30  1  0  0  0  0
  8 31  1  0  0  0  0
  8 32  1  0  0  0  0
  9 33  1  0  0  0  0
  9 34  1  0  0  0  0
 10 35  1  0  0  0  0
 13 36  1  0  0  0  0
 13 37  1  0  0  0  0
 17 38  1  0  0  0  0
M  END
> <FRED Chemgauss4 score>
-7.526978

$$$$
C70062489	P107994538
  -OEChem-05182014473D

 29 30  0     1  0  0  0  0  0999 V2000
  119.3985  105.2351  105.9281 C   0  0  0  0  0  0  0  0  0  0  0  0
  123.2547  106.9570  105.8675 C   0  0  0  0  0  0  0  0  0  0  0  0
  120.1801  103.9603  105.6961 C   0  0  0  0  0  0  0  0  0  0  0  0
  121.6627  104.2983  105.6012 C   0  0  0  0  0  0  0  0  0  0  0  0
  125.5175  106.4517  106.4274 C   0  0  0  0  0  0  0  0  0  0  0  0
  124.5899  105.5845  107.2571 C   0  0  0  0  0  0  0  0  0  0  0  0
  121.0901  105.6645  107.6898 C   0  0  0  0  0  0  0  0  0  0  0  0
  124.6218  107.6042  105.9835 C   0  0  1  0  0  0  0  0  0  0  0  0
  122.1801  104.9210  106.9071 C   0  0  2  0  0  0  0  0  0  0  0  0
  119.9691  106.0739  106.8675 N   0  0  0  0  0  0  0  0  0  0  0  0
  123.3018  105.7939  106.6371 N   0  0  0  0  0  0  0  0  0  0  0  0
  125.0081  108.1747  104.7291 N   0  0  0  0  0  0  0  0  0  0  0  0
  118.3481  105.4780  105.3390 O   0  0  0  0  0  0  0  0  0  0  0  0
  122.3016  107.4154  105.2552 O   0  0  0  0  0  0  0  0  0  0  0  0
  120.0024  103.3138  106.5338 H   0  0  0  0  0  0  0  0  0  0  0  0
  119.8508  103.5099  104.7815 H   0  0  0  0  0  0  0  0  0  0  0  0
  122.2341  103.3874  105.3598 H   0  0  0  0  0  0  0  0  0  0  0  0
  121.8354  104.9945  104.7628 H   0  0  0  0  0  0  0  0  0  0  0  0
  126.3988  106.7849  106.9838 H   0  0  0  0  0  0  0  0  0  0  0  0
  125.8715  105.8753  105.5621 H   0  0  0  0  0  0  0  0  0  0  0  0
  124.8695  104.5283  107.2184 H   0  0  0  0  0  0  0  0  0  0  0  0
  124.5336  105.9212  108.2968 H   0  0  0  0  0  0  0  0  0  0  0  0
  120.6998  105.0369  108.5005 H   0  0  0  0  0  0  0  0  0  0  0  0
  121.4953  106.5738  108.1533 H   0  0  0  0  0  0  0  0  0  0  0  0
  124.5631  108.3733  106.7672 H   0  0  0  0  0  0  0  0  0  0  0  0
  122.6080  104.1128  107.5471 H   0  0  0  0  0  0  0  0  0  0  0  0
  119.5967  106.9868  106.9808 H   0  0  0  0  0  0  0  0  0  0  0  0
  125.9820  108.3215  104.5511 H   0  0  0  0  0  0  0  0  0  0  0  0
  124.3014  108.5941  104.1577 H   0  0  0  0  0  0  0  0  0  0  0  0
  1  3  1  0  0  0  0
  1 10  1  0  0  0  0
  1 13  2  0  0  0  0
  2  8  1  0  0  0  0
  2 11  1  0  0  0  0
  2 14  2  0  0  0  0
  3  4  1  0  0  0  0
  4  9  1  0  0  0  0
  5  6  1  0  0  0  0
  5  8  1  0  0  0  0
  6 11  1  0  0  0  0
  7  9  1  0  0  0  0
  7 10  1  0  0  0  0
  8 12  1  0  0  0  0
  9 11  1  0  0  0  0
  3 15  1  0  0  0  0
  3 16  1  0  0  0  0
  4 17  1  0  0  0  0
  4 18  1  0  0  0  0
  5 19  1  0  0  0  0
  5 20  1  0  0  0  0
  6 21  1  0  0  0  0
  6 22  1  0  0  0  0
  7 23  1  0  0  0  0
  7 24  1  0  0  0  0
  8 25  1  0  0  0  0
  9 26  1  0  0  0  0
 10 27  1  0  0  0  0
 12 28  1  0  0  0  0
 12 29  1  0  0  0  0
M  END
> <FRED Chemgauss4 score>
-7.519879

$$$$
cis-3-hydroxyproline	P10000031
  -OEChem-05182014473D

 18 18  0     1  0  0  0  0  0999 V2000
  124.8531  107.4266  106.0919 C   0  0  0  0  0  0  0  0  0  0  0  0
  124.9696  104.8331  108.7955 C   0  0  0  0  0  0  0  0  0  0  0  0
  124.3325  106.0168  109.5042 C   0  0  0  0  0  0  0  0  0  0  0  0
  125.2630  106.6886  107.3442 C   0  0  2  0  0  0  0  0  0  0  0  0
  124.8950  105.2126  107.3245 C   0  0  2  0  0  0  0  0  0  0  0  0
  124.6192  107.1917  108.6121 N   0  3  0  0  0  0  0  0  0  0  0  0
  123.6242  107.3690  105.8100 O   0  5  0  0  0  0  0  0  0  0  0  0
  125.7972  108.0078  105.4867 O   0  0  0  0  0  0  0  0  0  0  0  0
  123.5680  105.0258  106.8451 O   0  0  0  0  0  0  0  0  0  0  0  0
  126.0146  104.7291  109.1103 H   0  0  0  0  0  0  0  0  0  0  0  0
  124.4403  103.9037  109.0268 H   0  0  0  0  0  0  0  0  0  0  0  0
  123.2440  105.9250  109.5690 H   0  0  0  0  0  0  0  0  0  0  0  0
  124.7600  106.2157  110.4902 H   0  0  0  0  0  0  0  0  0  0  0  0
  126.3391  106.8055  107.4892 H   0  0  0  0  0  0  0  0  0  0  0  0
  125.5760  104.6170  106.7088 H   0  0  0  0  0  0  0  0  0  0  0  0
  123.7423  107.6884  108.4026 H   0  0  0  0  0  0  0  0  0  0  0  0
  125.2333  107.8710  109.0819 H   0  0  0  0  0  0  0  0  0  0  0  0
  123.3573  104.0867  106.9682 H   0  0  0  0  0  0  0  0  0  0  0  0
  1  4  1  0  0  0  0
  1  7  1  0  0  0  0
  1  8  2  0  0  0  0
  2  3  1  0  0  0  0
  2  5  1  0  0  0  0
  3  6  1  0  0  0  0
  4  5  1  0  0  0  0
  4  6  1  0  0  0  0
  5  9  1  0  0  0  0
  2 10  1  0  0  0  0
  2 11  1  0  0  0  0
  3 12  1  0  0  0  0
  3 13  1  0  0  0  0
  4 14  1  0  0  0  0
  5 15  1  0  0  0  0
  6 16  1  0  0  0  0
  6 17  1  0  0  0  0
  9 18  1  0  0  0  0
M  CHG  2   6   1   7  -1
M  END
> <FRED Chemgauss4 score>
-7.517945

$$$$
C87548480	P136945367
  -OEChem-05182014473D

 29 30  0     1  0  0  0  0  0999 V2000
  121.0602  106.0690  105.7432 C   0  0  0  0  0  0  0  0  0  0  0  0
  123.0241  106.7158  105.6790 C   0  0  0  0  0  0  0  0  0  0  0  0
  118.6543  105.9854  106.7619 C   0  0  0  0  0  0  0  0  0  0  0  0
  118.5395  105.4992  105.3510 C   0  0  0  0  0  0  0  0  0  0  0  0
  119.8258  105.2623  106.1218 C   0  0  0  0  0  0  0  0  0  0  0  0
  120.1091  103.8545  106.5840 C   0  0  0  0  0  0  0  0  0  0  0  0
  125.1173  106.0551  108.1393 C   0  0  0  0  0  0  0  0  0  0  0  0
  124.5154  106.9910  105.8150 C   0  0  2  0  0  0  0  0  0  0  0  0
  124.9012  107.3006  107.2821 C   0  0  2  0  0  0  0  0  0  0  0  0
  122.2917  105.8047  106.2681 N   0  0  0  0  0  0  0  0  0  0  0  0
  121.0045  107.0825  104.8740 N   0  0  0  0  0  0  0  0  0  0  0  0
  124.9181  108.0685  104.9044 N   0  0  0  0  0  0  0  0  0  0  0  0
  122.3338  107.5213  104.8298 O   0  0  0  0  0  0  0  0  0  0  0  0
  126.1260  108.0418  107.2962 O   0  0  0  0  0  0  0  0  0  0  0  0
  118.7343  107.0558  106.9194 H   0  0  0  0  0  0  0  0  0  0  0  0
  118.0678  105.4769  107.5198 H   0  0  0  0  0  0  0  0  0  0  0  0
  117.8747  104.6636  105.1587 H   0  0  0  0  0  0  0  0  0  0  0  0
  118.5436  106.2425  104.5607 H   0  0  0  0  0  0  0  0  0  0  0  0
  119.1788  103.3363  106.8384 H   0  0  0  0  0  0  0  0  0  0  0  0
  120.7512  103.8604  107.4708 H   0  0  0  0  0  0  0  0  0  0  0  0
  120.6152  103.2840  105.7984 H   0  0  0  0  0  0  0  0  0  0  0  0
  125.8663  105.3861  107.7063 H   0  0  0  0  0  0  0  0  0  0  0  0
  124.1813  105.5005  108.2677 H   0  0  0  0  0  0  0  0  0  0  0  0
  125.4541  106.3382  109.1429 H   0  0  0  0  0  0  0  0  0  0  0  0
  125.0564  106.0858  105.5084 H   0  0  0  0  0  0  0  0  0  0  0  0
  124.1438  107.9282  107.7655 H   0  0  0  0  0  0  0  0  0  0  0  0
  124.4512  108.1332  104.0296 H   0  0  0  0  0  0  0  0  0  0  0  0
  125.7625  108.5524  105.1059 H   0  0  0  0  0  0  0  0  0  0  0  0
  126.2970  108.2625  108.2230 H   0  0  0  0  0  0  0  0  0  0  0  0
  1  5  1  0  0  0  0
  1 10  1  0  0  0  0
  1 11  2  0  0  0  0
  2  8  1  0  0  0  0
  2 10  2  0  0  0  0
  2 13  1  0  0  0  0
  3  4  1  0  0  0  0
  3  5  1  0  0  0  0
  4  5  1  0  0  0  0
  5  6  1  0  0  0  0
  7  9  1  0  0  0  0
  8  9  1  0  0  0  0
  8 12  1  0  0  0  0
  9 14  1  0  0  0  0
 11 13  1  0  0  0  0
  3 15  1  0  0  0  0
  3 16  1  0  0  0  0
  4 17  1  0  0  0  0
  4 18  1  0  0  0  0
  6 19  1  0  0  0  0
  6 20  1  0  0  0  0
  6 21  1  0  0  0  0
  7 22  1  0  0  0  0
  7 23  1  0  0  0  0
  7 24  1  0  0  0  0
  8 25  1  0  0  0  0
  9 26  1  0  0  0  0
 12 27  1  0  0  0  0
 12 28  1  0  0  0  0
 14 29  1  0  0  0  0
M  END
> <FRED Chemgauss4 score>
-7.516090

$$$$
C74189571	P115619256
  -OEChem-05182014473D

 30 31  0     1  0  0  0  0  0999 V2000
  119.0449  106.1543  105.1352 C   0  0  0  0  0  0  0  0  0  0  0  0
  122.0174  104.7344  106.3181 C   0  0  0  0  0  0  0  0  0  0  0  0
  120.2379  105.6045  104.7340 C   0  0  0  0  0  0  0  0  0  0  0  0
  121.5155  105.6342  105.4076 C   0  0  0  0  0  0  0  0  0  0  0  0
  119.9460  104.9924  103.5003 C   0  0  0  0  0  0  0  0  0  0  0  0
  123.4418  106.3714  105.9333 C   0  0  0  0  0  0  0  0  0  0  0  0
  120.8608  104.2476  102.6154 C   0  0  0  0  0  0  0  0  0  0  0  0
  124.6432  108.2210  107.1693 C   0  0  0  0  0  0  0  0  0  0  0  0
  116.7502  106.2164  104.1296 C   0  0  0  0  0  0  0  0  0  0  0  0
  124.7184  107.1746  106.0593 C   0  0  2  0  0  0  0  0  0  0  0  0
  122.4071  106.6506  105.1721 N   0  0  0  0  0  0  0  0  0  0  0  0
  118.6679  105.1391  103.1415 N   0  0  0  0  0  0  0  0  0  0  0  0
  123.2521  105.2197  106.6454 N   0  0  0  0  0  0  0  0  0  0  0  0
  118.1459  105.8497  104.1558 N   0  0  0  0  0  0  0  0  0  0  0  0
  125.0761  107.7913  104.8024 N   0  0  0  0  0  0  0  0  0  0  0  0
  118.7648  106.7231  106.0122 H   0  0  0  0  0  0  0  0  0  0  0  0
  121.6274  103.8241  106.7511 H   0  0  0  0  0  0  0  0  0  0  0  0
  120.8706  103.1735  102.8653 H   0  0  0  0  0  0  0  0  0  0  0  0
  120.5775  104.3405  101.5525 H   0  0  0  0  0  0  0  0  0  0  0  0
  121.8989  104.6165  102.6861 H   0  0  0  0  0  0  0  0  0  0  0  0
  123.8289  108.9310  106.9877 H   0  0  0  0  0  0  0  0  0  0  0  0
  124.4652  107.7409  108.1381 H   0  0  0  0  0  0  0  0  0  0  0  0
  125.5748  108.7910  107.2591 H   0  0  0  0  0  0  0  0  0  0  0  0
  116.6651  107.1840  103.6280 H   0  0  0  0  0  0  0  0  0  0  0  0
  116.1835  105.4539  103.5882 H   0  0  0  0  0  0  0  0  0  0  0  0
  116.3744  106.2815  105.1545 H   0  0  0  0  0  0  0  0  0  0  0  0
  125.5477  106.4967  106.2961 H   0  0  0  0  0  0  0  0  0  0  0  0
  123.9041  104.8020  107.2961 H   0  0  0  0  0  0  0  0  0  0  0  0
  124.8802  107.3001  103.9487 H   0  0  0  0  0  0  0  0  0  0  0  0
  125.6870  108.5884  104.8107 H   0  0  0  0  0  0  0  0  0  0  0  0
  1  3  2  0  0  0  0
  1 14  1  0  0  0  0
  2  4  2  0  0  0  0
  2 13  1  0  0  0  0
  3  4  1  0  0  0  0
  3  5  1  0  0  0  0
  4 11  1  0  0  0  0
  5  7  1  0  0  0  0
  5 12  2  0  0  0  0
  6 10  1  0  0  0  0
  6 11  2  0  0  0  0
  6 13  1  0  0  0  0
  8 10  1  0  0  0  0
  9 14  1  0  0  0  0
 10 15  1  0  0  0  0
 12 14  1  0  0  0  0
  1 16  1  0  0  0  0
  2 17  1  0  0  0  0
  7 18  1  0  0  0  0
  7 19  1  0  0  0  0
  7 20  1  0  0  0  0
  8 21  1  0  0  0  0
  8 22  1  0  0  0  0
  8 23  1  0  0  0  0
  9 24  1  0  0  0  0
  9 25  1  0  0  0  0
  9 26  1  0  0  0  0
 10 27  1  0  0  0  0
 13 28  1  0  0  0  0
 15 29  1  0  0  0  0
 15 30  1  0  0  0  0
M  END
> <FRED Chemgauss4 score>
-7.514220

$$$$
C90107205	P140837949
  -OEChem-05182014473D

 35 35  0     0  0  0  0  0  0999 V2000
  119.8491  104.3992  101.3677 C   0  0  0  0  0  0  0  0  0  0  0  0
  117.7354  105.4317  101.9182 C   0  0  0  0  0  0  0  0  0  0  0  0
  120.1904  104.3767  102.7199 C   0  0  0  0  0  0  0  0  0  0  0  0
  119.3042  104.8817  103.6713 C   0  0  0  0  0  0  0  0  0  0  0  0
  118.6216  104.9267  100.9668 C   0  0  0  0  0  0  0  0  0  0  0  0
  118.0767  105.4092  103.2705 C   0  0  0  0  0  0  0  0  0  0  0  0
  120.7521  105.4687  105.6467 C   0  0  0  0  0  0  0  0  0  0  0  0
  120.7620  105.1864  107.1439 C   0  0  0  0  0  0  0  0  0  0  0  0
  125.4800  105.3017  107.2350 C   0  0  0  0  0  0  0  0  0  0  0  0
  126.7873  105.5337  107.9819 C   0  0  0  0  0  0  0  0  0  0  0  0
  122.1741  105.1608  107.7162 C   0  0  0  0  0  0  0  0  0  0  0  0
  124.7102  104.1248  107.8214 C   0  0  0  0  0  0  0  0  0  0  0  0
  121.4400  103.8369  103.1006 N   0  0  0  0  0  0  0  0  0  0  0  0
  119.6593  104.8548  105.0410 N   0  0  0  0  0  0  0  0  0  0  0  0
  121.6175  106.1500  105.1067 O   0  0  0  0  0  0  0  0  0  0  0  0
  127.4550  106.6472  107.4049 O   0  0  0  0  0  0  0  0  0  0  0  0
  123.1637  103.8619  106.9237 S   0  0  0  0  0  0  0  0  0  0  0  0
  118.2006  104.9546   99.2982 Cl  0  0  0  0  0  0  0  0  0  0  0  0
  116.9470  106.0462  104.4130 Cl  0  0  0  0  0  0  0  0  0  0  0  0
  120.5418  104.0046  100.6273 H   0  0  0  0  0  0  0  0  0  0  0  0
  116.7787  105.8430  101.6033 H   0  0  0  0  0  0  0  0  0  0  0  0
  120.2665  104.2207  107.3050 H   0  0  0  0  0  0  0  0  0  0  0  0
  120.1649  105.9642  107.6365 H   0  0  0  0  0  0  0  0  0  0  0  0
  124.8791  106.2194  107.2763 H   0  0  0  0  0  0  0  0  0  0  0  0
  125.7025  105.1318  106.1735 H   0  0  0  0  0  0  0  0  0  0  0  0
  126.6005  105.7489  109.0388 H   0  0  0  0  0  0  0  0  0  0  0  0
  127.4407  104.6587  107.9063 H   0  0  0  0  0  0  0  0  0  0  0  0
  122.6732  106.1230  107.5614 H   0  0  0  0  0  0  0  0  0  0  0  0
  122.1500  104.9692  108.7940 H   0  0  0  0  0  0  0  0  0  0  0  0
  124.4705  104.3078  108.8738 H   0  0  0  0  0  0  0  0  0  0  0  0
  125.3046  103.2075  107.7637 H   0  0  0  0  0  0  0  0  0  0  0  0
  122.0308  103.4407  102.3999 H   0  0  0  0  0  0  0  0  0  0  0  0
  121.6664  103.7766  104.0713 H   0  0  0  0  0  0  0  0  0  0  0  0
  119.0335  104.3226  105.6420 H   0  0  0  0  0  0  0  0  0  0  0  0
  128.2806  106.7676  107.9017 H   0  0  0  0  0  0  0  0  0  0  0  0
  1  3  2  0  0  0  0
  1  5  1  0  0  0  0
  2  5  2  0  0  0  0
  2  6  1  0  0  0  0
  3  4  1  0  0  0  0
  3 13  1  0  0  0  0
  4  6  2  0  0  0  0
  4 14  1  0  0  0  0
  5 18  1  0  0  0  0
  6 19  1  0  0  0  0
  7  8  1  0  0  0  0
  7 14  1  0  0  0  0
  7 15  2  0  0  0  0
  8 11  1  0  0  0  0
  9 10  1  0  0  0  0
  9 12  1  0  0  0  0
 10 16  1  0  0  0  0
 11 17  1  0  0  0  0
 12 17  1  0  0  0  0
  1 20  1  0  0  0  0
  2 21  1  0  0  0  0
  8 22  1  0  0  0  0
  8 23  1  0  0  0  0
  9 24  1  0  0  0  0
  9 25  1  0  0  0  0
 10 26  1  0  0  0  0
 10 27  1  0  0  0  0
 11 28  1  0  0  0  0
 11 29  1  0  0  0  0
 12 30  1  0  0  0  0
 12 31  1  0  0  0  0
 13 32  1  0  0  0  0
 13 33  1  0  0  0  0
 14 34  1  0  0  0  0
 16 35  1  0  0  0  0
M  END
> <FRED Chemgauss4 score>
-7.511950

$$$$
C83574842	P130736246
  -OEChem-05182014473D

 26 27  0     1  0  0  0  0  0999 V2000
  119.9382  105.8734  104.3912 C   0  0  0  0  0  0  0  0  0  0  0  0
  118.7326  105.2572  104.1603 C   0  0  0  0  0  0  0  0  0  0  0  0
  120.6088  105.0124  105.2805 C   0  0  0  0  0  0  0  0  0  0  0  0
  121.9618  105.2344  105.8365 C   0  0  0  0  0  0  0  0  0  0  0  0
  123.8004  106.1531  106.2005 C   0  0  0  0  0  0  0  0  0  0  0  0
  126.3088  106.3323  106.4742 C   0  0  0  0  0  0  0  0  0  0  0  0
  117.7010  103.1249  104.9797 C   0  0  0  0  0  0  0  0  0  0  0  0
  124.9984  107.0776  106.2286 C   0  0  1  0  0  0  0  0  0  0  0  0
  119.8889  103.9317  105.5934 N   0  0  0  0  0  0  0  0  0  0  0  0
  122.6961  106.3400  105.5156 N   0  0  0  0  0  0  0  0  0  0  0  0
  123.7167  104.9862  106.8942 N   0  0  0  0  0  0  0  0  0  0  0  0
  122.5422  104.3752  106.6769 N   0  0  0  0  0  0  0  0  0  0  0  0
  118.7534  104.1095  104.8969 N   0  0  0  0  0  0  0  0  0  0  0  0
  125.0912  107.8592  105.0169 N   0  0  0  0  0  0  0  0  0  0  0  0
  120.2747  106.8107  103.9720 H   0  0  0  0  0  0  0  0  0  0  0  0
  117.8842  105.5328  103.5493 H   0  0  0  0  0  0  0  0  0  0  0  0
  126.4909  105.5865  105.6927 H   0  0  0  0  0  0  0  0  0  0  0  0
  127.1528  107.0313  106.4795 H   0  0  0  0  0  0  0  0  0  0  0  0
  126.3121  105.8165  107.4410 H   0  0  0  0  0  0  0  0  0  0  0  0
  117.8689  102.3849  104.1927 H   0  0  0  0  0  0  0  0  0  0  0  0
  117.7246  102.6486  105.9637 H   0  0  0  0  0  0  0  0  0  0  0  0
  116.7341  103.6172  104.8432 H   0  0  0  0  0  0  0  0  0  0  0  0
  124.8711  107.8065  107.0384 H   0  0  0  0  0  0  0  0  0  0  0  0
  122.2929  103.4888  107.1074 H   0  0  0  0  0  0  0  0  0  0  0  0
  125.9791  108.2528  104.7611 H   0  0  0  0  0  0  0  0  0  0  0  0
  124.2444  108.1622  104.5699 H   0  0  0  0  0  0  0  0  0  0  0  0
  1  2  2  0  0  0  0
  1  3  1  0  0  0  0
  2 13  1  0  0  0  0
  3  4  1  0  0  0  0
  3  9  2  0  0  0  0
  4 10  2  0  0  0  0
  4 12  1  0  0  0  0
  5  8  1  0  0  0  0
  5 10  1  0  0  0  0
  5 11  2  0  0  0  0
  6  8  1  0  0  0  0
  7 13  1  0  0  0  0
  8 14  1  0  0  0  0
  9 13  1  0  0  0  0
 11 12  1  0  0  0  0
  1 15  1  0  0  0  0
  2 16  1  0  0  0  0
  6 17  1  0  0  0  0
  6 18  1  0  0  0  0
  6 19  1  0  0  0  0
  7 20  1  0  0  0  0
  7 21  1  0  0  0  0
  7 22  1  0  0  0  0
  8 23  1  0  0  0  0
 12 24  1  0  0  0  0
 14 25  1  0  0  0  0
 14 26  1  0  0  0  0
M  END
> <FRED Chemgauss4 score>
-7.511031

$$$$
C49689603	P74238009
  -OEChem-05182014473D

 29 29  0     1  0  0  0  0  0999 V2000
  119.9013  105.6024  106.5049 C   0  0  0  0  0  0  0  0  0  0  0  0
  119.1609  104.3162  106.8065 C   0  0  0  0  0  0  0  0  0  0  0  0
  119.8365  104.2673  104.5774 C   0  0  0  0  0  0  0  0  0  0  0  0
  120.7736  105.1879  105.3399 C   0  0  1  0  0  0  0  0  0  0  0  0
  121.2995  106.3460  104.5139 C   0  0  0  0  0  0  0  0  0  0  0  0
  125.1813  106.9877  107.4206 C   0  0  0  0  0  0  0  0  0  0  0  0
  123.1739  106.5049  105.9225 C   0  0  0  0  0  0  0  0  0  0  0  0
  124.2187  107.5261  106.3621 C   0  0  2  0  0  0  0  0  0  0  0  0
  124.5844  107.0171  108.7362 N   0  0  0  0  0  0  0  0  0  0  0  0
  119.0149  103.6189  105.5605 O   0  0  0  0  0  0  0  0  0  0  0  0
  124.9548  107.9460  105.2127 O   0  0  0  0  0  0  0  0  0  0  0  0
  122.0697  107.1946  105.3502 O   0  0  0  0  0  0  0  0  0  0  0  0
  119.1898  106.3788  106.1981 H   0  0  0  0  0  0  0  0  0  0  0  0
  120.4644  105.9765  107.3645 H   0  0  0  0  0  0  0  0  0  0  0  0
  119.7378  103.6752  107.4817 H   0  0  0  0  0  0  0  0  0  0  0  0
  118.1762  104.4921  107.2483 H   0  0  0  0  0  0  0  0  0  0  0  0
  119.1732  104.8189  103.9019 H   0  0  0  0  0  0  0  0  0  0  0  0
  120.3735  103.5115  103.9967 H   0  0  0  0  0  0  0  0  0  0  0  0
  121.6189  104.6013  105.7231 H   0  0  0  0  0  0  0  0  0  0  0  0
  120.4707  106.9209  104.0927 H   0  0  0  0  0  0  0  0  0  0  0  0
  121.9328  105.9786  103.7022 H   0  0  0  0  0  0  0  0  0  0  0  0
  125.4494  105.9512  107.1898 H   0  0  0  0  0  0  0  0  0  0  0  0
  126.1031  107.5786  107.4307 H   0  0  0  0  0  0  0  0  0  0  0  0
  122.8067  105.9258  106.7754 H   0  0  0  0  0  0  0  0  0  0  0  0
  123.5707  105.8268  105.1603 H   0  0  0  0  0  0  0  0  0  0  0  0
  123.7128  108.4171  106.7524 H   0  0  0  0  0  0  0  0  0  0  0  0
  125.1852  107.0502  109.5402 H   0  0  0  0  0  0  0  0  0  0  0  0
  123.6082  106.8005  108.8300 H   0  0  0  0  0  0  0  0  0  0  0  0
  125.5603  108.6398  105.5144 H   0  0  0  0  0  0  0  0  0  0  0  0
  1  2  1  0  0  0  0
  1  4  1  0  0  0  0
  2 10  1  0  0  0  0
  3  4  1  0  0  0  0
  3 10  1  0  0  0  0
  4  5  1  0  0  0  0
  5 12  1  0  0  0  0
  6  8  1  0  0  0  0
  6  9  1  0  0  0  0
  7  8  1  0  0  0  0
  7 12  1  0  0  0  0
  8 11  1  0  0  0  0
  1 13  1  0  0  0  0
  1 14  1  0  0  0  0
  2 15  1  0  0  0  0
  2 16  1  0  0  0  0
  3 17  1  0  0  0  0
  3 18  1  0  0  0  0
  4 19  1  0  0  0  0
  5 20  1  0  0  0  0
  5 21  1  0  0  0  0
  6 22  1  0  0  0  0
  6 23  1  0  0  0  0
  7 24  1  0  0  0  0
  7 25  1  0  0  0  0
  8 26  1  0  0  0  0
  9 27  1  0  0  0  0
  9 28  1  0  0  0  0
 11 29  1  0  0  0  0
M  END
> <FRED Chemgauss4 score>
-7.507519

$$$$
C72200928	P112162344
  -OEChem-05182014473D

 27 27  0     1  0  0  0  0  0999 V2000
  125.0503  106.0285  107.3973 C   0  0  0  0  0  0  0  0  0  0  0  0
  123.5211  104.1918  107.0433 C   0  0  0  0  0  0  0  0  0  0  0  0
  124.1369  106.9026  106.8082 C   0  0  0  0  0  0  0  0  0  0  0  0
  122.6076  105.0660  106.4541 C   0  0  0  0  0  0  0  0  0  0  0  0
  122.9156  106.4214  106.3366 C   0  0  0  0  0  0  0  0  0  0  0  0
  124.7425  104.6730  107.5148 C   0  0  0  0  0  0  0  0  0  0  0  0
  124.5247  108.3475  106.7107 C   0  0  0  0  0  0  0  0  0  0  0  0
  121.1185  104.7038  104.4590 C   0  0  0  0  0  0  0  0  0  0  0  0
  121.2987  104.4830  105.9626 C   0  0  2  0  0  0  0  0  0  0  0  0
  120.1876  105.0227  106.7153 N   0  0  0  0  0  0  0  0  0  0  0  0
  120.0894  103.7680  103.9372 N   0  3  0  0  0  0  0  0  0  0  0  0
  122.0741  107.2263  105.7938 O   0  5  0  0  0  0  0  0  0  0  0  0
  124.8794  108.6438  105.3683 O   0  0  0  0  0  0  0  0  0  0  0  0
  125.8700  103.5943  108.2415 Cl  0  0  0  0  0  0  0  0  0  0  0  0
  126.0024  106.4066  107.7639 H   0  0  0  0  0  0  0  0  0  0  0  0
  123.2783  103.1352  107.1331 H   0  0  0  0  0  0  0  0  0  0  0  0
  123.6960  108.9980  107.0121 H   0  0  0  0  0  0  0  0  0  0  0  0
  125.3773  108.5663  107.3633 H   0  0  0  0  0  0  0  0  0  0  0  0
  120.7695  105.7129  104.2168 H   0  0  0  0  0  0  0  0  0  0  0  0
  122.0374  104.4963  103.9011 H   0  0  0  0  0  0  0  0  0  0  0  0
  121.2884  103.4044  106.1651 H   0  0  0  0  0  0  0  0  0  0  0  0
  120.3196  105.2325  107.6878 H   0  0  0  0  0  0  0  0  0  0  0  0
  119.2686  104.9847  106.3138 H   0  0  0  0  0  0  0  0  0  0  0  0
  120.3590  103.4053  103.0174 H   0  0  0  0  0  0  0  0  0  0  0  0
  119.1843  104.2392  103.8402 H   0  0  0  0  0  0  0  0  0  0  0  0
  119.9668  102.9710  104.5698 H   0  0  0  0  0  0  0  0  0  0  0  0
  125.1238  109.5835  105.3424 H   0  0  0  0  0  0  0  0  0  0  0  0
  1  3  2  0  0  0  0
  1  6  1  0  0  0  0
  2  4  1  0  0  0  0
  2  6  2  0  0  0  0
  3  5  1  0  0  0  0
  3  7  1  0  0  0  0
  4  5  2  0  0  0  0
  4  9  1  0  0  0  0
  5 12  1  0  0  0  0
  6 14  1  0  0  0  0
  7 13  1  0  0  0  0
  8  9  1  0  0  0  0
  8 11  1  0  0  0  0
  9 10  1  0  0  0  0
  1 15  1  0  0  0  0
  2 16  1  0  0  0  0
  7 17  1  0  0  0  0
  7 18  1  0  0  0  0
  8 19  1  0  0  0  0
  8 20  1  0  0  0  0
  9 21  1  0  0  0  0
 10 22  1  0  0  0  0
 10 23  1  0  0  0  0
 11 24  1  0  0  0  0
 11 25  1  0  0  0  0
 11 26  1  0  0  0  0
 13 27  1  0  0  0  0
M  CHG  2  11   1  12  -1
M  END
> <FRED Chemgauss4 score>
-7.504941

$$$$
C20546222	P30637893
  -OEChem-05182014473D

 37 38  0     1  0  0  0  0  0999 V2000
  120.8506  104.4349  106.7484 C   0  0  0  0  0  0  0  0  0  0  0  0
  122.1114  104.8346  106.3058 C   0  0  0  0  0  0  0  0  0  0  0  0
  119.7391  105.2435  106.5104 C   0  0  0  0  0  0  0  0  0  0  0  0
  121.1496  106.8517  105.3874 C   0  0  0  0  0  0  0  0  0  0  0  0
  122.2610  106.0430  105.6253 C   0  0  0  0  0  0  0  0  0  0  0  0
  119.8886  106.4519  105.8300 C   0  0  0  0  0  0  0  0  0  0  0  0
  126.3229  105.2173  108.0537 C   0  0  0  0  0  0  0  0  0  0  0  0
  125.6427  105.7929  106.8135 C   0  0  0  0  0  0  0  0  0  0  0  0
  125.3864  105.2049  109.2517 C   0  0  0  0  0  0  0  0  0  0  0  0
  124.1203  107.1459  108.3040 C   0  0  0  0  0  0  0  0  0  0  0  0
  125.0468  107.1729  107.0961 C   0  0  2  0  0  0  0  0  0  0  0  0
  123.4866  106.4308  105.1962 N   0  5  0  0  0  0  0  0  0  0  0  0
  118.4973  108.4398  106.9333 N   0  0  0  0  0  0  0  0  0  0  0  0
  124.8562  106.5830  109.4753 N   0  3  0  0  0  0  0  0  0  0  0  0
  118.7774  108.3011  104.3744 O   0  0  0  0  0  0  0  0  0  0  0  0
  117.3053  106.6255  105.5460 O   0  0  0  0  0  0  0  0  0  0  0  0
  123.2859  108.7933  106.2228 O   0  0  0  0  0  0  0  0  0  0  0  0
  125.2491  108.2804  104.8109 O   0  0  0  0  0  0  0  0  0  0  0  0
  118.4965  107.4629  105.5314 S   0  0  0  0  0  0  0  0  0  0  0  0
  124.1815  107.7778  105.6730 S   0  0  0  0  0  0  0  0  0  0  0  0
  120.7341  103.4940  107.2785 H   0  0  0  0  0  0  0  0  0  0  0  0
  122.9664  104.1906  106.5009 H   0  0  0  0  0  0  0  0  0  0  0  0
  118.7613  104.9224  106.8599 H   0  0  0  0  0  0  0  0  0  0  0  0
  121.2579  107.7962  104.8575 H   0  0  0  0  0  0  0  0  0  0  0  0
  126.6700  104.1983  107.8474 H   0  0  0  0  0  0  0  0  0  0  0  0
  127.2134  105.8091  108.2915 H   0  0  0  0  0  0  0  0  0  0  0  0
  126.3882  105.8892  106.0220 H   0  0  0  0  0  0  0  0  0  0  0  0
  124.8764  105.1027  106.4617 H   0  0  0  0  0  0  0  0  0  0  0  0
  124.5242  104.5547  109.0798 H   0  0  0  0  0  0  0  0  0  0  0  0
  125.8951  104.8970  110.1706 H   0  0  0  0  0  0  0  0  0  0  0  0
  123.8010  108.1507  108.5854 H   0  0  0  0  0  0  0  0  0  0  0  0
  123.2457  106.5145  108.1472 H   0  0  0  0  0  0  0  0  0  0  0  0
  125.8375  107.8866  107.2598 H   0  0  0  0  0  0  0  0  0  0  0  0
  118.2281  108.0045  107.8241 H   0  0  0  0  0  0  0  0  0  0  0  0
  119.2325  109.1514  107.0244 H   0  0  0  0  0  0  0  0  0  0  0  0
  124.2469  106.5863  110.3041 H   0  0  0  0  0  0  0  0  0  0  0  0
  125.6396  107.2076  109.7086 H   0  0  0  0  0  0  0  0  0  0  0  0
  1  2  1  0  0  0  0
  1  3  2  0  0  0  0
  2  5  2  0  0  0  0
  3  6  1  0  0  0  0
  4  5  1  0  0  0  0
  4  6  2  0  0  0  0
  5 12  1  0  0  0  0
  6 19  1  0  0  0  0
  7  8  1  0  0  0  0
  7  9  1  0  0  0  0
  8 11  1  0  0  0  0
  9 14  1  0  0  0  0
 10 11  1  0  0  0  0
 10 14  1  0  0  0  0
 11 20  1  0  0  0  0
 12 20  1  0  0  0  0
 13 19  1  0  0  0  0
 15 19  2  0  0  0  0
 16 19  2  0  0  0  0
 17 20  2  0  0  0  0
 18 20  2  0  0  0  0
  1 21  1  0  0  0  0
  2 22  1  0  0  0  0
  3 23  1  0  0  0  0
  4 24  1  0  0  0  0
  7 25  1  0  0  0  0
  7 26  1  0  0  0  0
  8 27  1  0  0  0  0
  8 28  1  0  0  0  0
  9 29  1  0  0  0  0
  9 30  1  0  0  0  0
 10 31  1  0  0  0  0
 10 32  1  0  0  0  0
 11 33  1  0  0  0  0
 13 34  1  0  0  0  0
 13 35  1  0  0  0  0
 14 36  1  0  0  0  0
 14 37  1  0  0  0  0
M  CHG  2  12  -1  14   1
M  END
> <FRED Chemgauss4 score>
-7.504694

$$$$
C95869841	P150894217
  -OEChem-05182014473D

 32 33  0     1  0  0  0  0  0999 V2000
  120.7736  104.6217  106.8037 C   0  0  0  0  0  0  0  0  0  0  0  0
  120.1351  106.3524  105.1431 C   0  0  0  0  0  0  0  0  0  0  0  0
  118.7343  104.5813  105.6989 C   0  0  0  0  0  0  0  0  0  0  0  0
  122.8569  104.9707  108.1263 C   0  0  0  0  0  0  0  0  0  0  0  0
  121.2771  105.5633  105.7358 C   0  0  1  0  0  0  0  0  0  0  0  0
  123.3703  105.7483  106.9136 C   0  0  2  0  0  0  0  0  0  0  0  0
  125.9413  105.3498  108.8844 C   0  0  0  0  0  0  0  0  0  0  0  0
  124.4723  106.7223  107.3241 C   0  0  2  0  0  0  0  0  0  0  0  0
  125.8229  106.0221  107.5216 C   0  0  1  0  0  0  0  0  0  0  0  0
  119.5591  104.1638  106.7256 N   0  0  0  0  0  0  0  0  0  0  0  0
  118.9842  105.6262  104.9523 N   0  0  0  0  0  0  0  0  0  0  0  0
  121.6427  104.2483  107.8058 N   0  0  0  0  0  0  0  0  0  0  0  0
  122.2557  106.4895  106.3082 N   0  0  0  0  0  0  0  0  0  0  0  0
  117.5851  103.8586  105.4834 N   0  0  0  0  0  0  0  0  0  0  0  0
  120.2562  107.5193  104.7800 O   0  0  0  0  0  0  0  0  0  0  0  0
  124.0830  107.3620  108.5368 O   0  0  0  0  0  0  0  0  0  0  0  0
  126.8910  106.9575  107.3862 O   0  0  0  0  0  0  0  0  0  0  0  0
  123.6185  104.2645  108.4743 H   0  0  0  0  0  0  0  0  0  0  0  0
  122.6399  105.6519  108.9581 H   0  0  0  0  0  0  0  0  0  0  0  0
  121.7262  104.9708  104.9288 H   0  0  0  0  0  0  0  0  0  0  0  0
  123.7900  105.0513  106.1761 H   0  0  0  0  0  0  0  0  0  0  0  0
  125.8124  106.0726  109.6955 H   0  0  0  0  0  0  0  0  0  0  0  0
  125.2024  104.5501  109.0035 H   0  0  0  0  0  0  0  0  0  0  0  0
  126.9253  104.8799  108.9900 H   0  0  0  0  0  0  0  0  0  0  0  0
  124.5741  107.4972  106.5568 H   0  0  0  0  0  0  0  0  0  0  0  0
  125.9576  105.2657  106.7404 H   0  0  0  0  0  0  0  0  0  0  0  0
  121.3259  103.5699  108.4931 H   0  0  0  0  0  0  0  0  0  0  0  0
  122.6151  107.0945  105.5694 H   0  0  0  0  0  0  0  0  0  0  0  0
  117.4064  103.0796  106.0708 H   0  0  0  0  0  0  0  0  0  0  0  0
  116.9830  104.1464  104.7497 H   0  0  0  0  0  0  0  0  0  0  0  0
  123.2528  107.8269  108.3495 H   0  0  0  0  0  0  0  0  0  0  0  0
  127.7131  106.4490  107.4598 H   0  0  0  0  0  0  0  0  0  0  0  0
  1  5  1  0  0  0  0
  1 10  2  0  0  0  0
  1 12  1  0  0  0  0
  2  5  1  0  0  0  0
  2 11  1  0  0  0  0
  2 15  2  0  0  0  0
  3 10  1  0  0  0  0
  3 11  2  0  0  0  0
  3 14  1  0  0  0  0
  4  6  1  0  0  0  0
  4 12  1  0  0  0  0
  5 13  1  0  0  0  0
  6  8  1  0  0  0  0
  6 13  1  0  0  0  0
  7  9  1  0  0  0  0
  8  9  1  0  0  0  0
  8 16  1  0  0  0  0
  9 17  1  0  0  0  0
  4 18  1  0  0  0  0
  4 19  1  0  0  0  0
  5 20  1  0  0  0  0
  6 21  1  0  0  0  0
  7 22  1  0  0  0  0
  7 23  1  0  0  0  0
  7 24  1  0  0  0  0
  8 25  1  0  0  0  0
  9 26  1  0  0  0  0
 12 27  1  0  0  0  0
 13 28  1  0  0  0  0
 14 29  1  0  0  0  0
 14 30  1  0  0  0  0
 16 31  1  0  0  0  0
 17 32  1  0  0  0  0
M  END
> <FRED Chemgauss4 score>
-7.498905

$$$$
C90313229	P141186972
  -OEChem-05182014473D

 33 34  0     1  0  0  0  0  0999 V2000
  126.3397  105.4288  108.5208 C   0  0  0  0  0  0  0  0  0  0  0  0
  125.8414  106.5884  107.8595 C   0  0  0  0  0  0  0  0  0  0  0  0
  125.5889  104.3090  108.2381 C   0  0  0  0  0  0  0  0  0  0  0  0
  124.7287  106.3105  107.0962 C   0  0  0  0  0  0  0  0  0  0  0  0
  120.3509  108.7822  108.8603 C   0  0  0  0  0  0  0  0  0  0  0  0
  121.6727  108.3743  109.5392 C   0  0  1  0  0  0  0  0  0  0  0  0
  122.0316  107.5915  108.2527 C   0  0  1  0  0  0  0  0  0  0  0  0
  120.5013  107.5268  107.9678 C   0  0  2  0  0  0  0  0  0  0  0  0
  117.8924  106.9413  107.1651 C   0  0  0  0  0  0  0  0  0  0  0  0
  118.7223  108.0288  106.5167 C   0  0  0  0  0  0  0  0  0  0  0  0
  122.5161  109.5523  109.6845 N   0  0  0  0  0  0  0  0  0  0  0  0
  122.8779  108.2590  107.1979 N   0  0  0  0  0  0  0  0  0  0  0  0
  124.5367  108.1326  105.2379 O   0  0  0  0  0  0  0  0  0  0  0  0
  122.7184  106.4098  105.4615 O   0  0  0  0  0  0  0  0  0  0  0  0
  120.0901  107.6751  106.5979 O   0  0  0  0  0  0  0  0  0  0  0  0
  124.2891  104.6576  107.1790 S   0  0  0  0  0  0  0  0  0  0  0  0
  123.6863  107.3026  106.0696 S   0  0  0  0  0  0  0  0  0  0  0  0
  127.2052  105.4164  109.1704 H   0  0  0  0  0  0  0  0  0  0  0  0
  126.2785  107.5751  107.9411 H   0  0  0  0  0  0  0  0  0  0  0  0
  125.7417  103.3028  108.6021 H   0  0  0  0  0  0  0  0  0  0  0  0
  119.4751  108.7820  109.5161 H   0  0  0  0  0  0  0  0  0  0  0  0
  120.3608  109.7220  108.2942 H   0  0  0  0  0  0  0  0  0  0  0  0
  121.5615  107.7653  110.4359 H   0  0  0  0  0  0  0  0  0  0  0  0
  122.4639  106.6078  108.4703 H   0  0  0  0  0  0  0  0  0  0  0  0
  120.0301  106.6395  108.4104 H   0  0  0  0  0  0  0  0  0  0  0  0
  118.0363  105.9845  106.6555 H   0  0  0  0  0  0  0  0  0  0  0  0
  118.1646  106.8248  108.2193 H   0  0  0  0  0  0  0  0  0  0  0  0
  116.8286  107.1996  107.1378 H   0  0  0  0  0  0  0  0  0  0  0  0
  118.5738  108.9829  107.0311 H   0  0  0  0  0  0  0  0  0  0  0  0
  118.4497  108.1432  105.4633 H   0  0  0  0  0  0  0  0  0  0  0  0
  123.5043  109.4393  109.5968 H   0  0  0  0  0  0  0  0  0  0  0  0
  122.1082  110.3812  110.0634 H   0  0  0  0  0  0  0  0  0  0  0  0
  122.5980  109.2066  106.9835 H   0  0  0  0  0  0  0  0  0  0  0  0
  1  2  1  0  0  0  0
  1  3  2  0  0  0  0
  2  4  2  0  0  0  0
  3 16  1  0  0  0  0
  4 16  1  0  0  0  0
  4 17  1  0  0  0  0
  5  6  1  0  0  0  0
  5  8  1  0  0  0  0
  6  7  1  0  0  0  0
  6 11  1  0  0  0  0
  7  8  1  0  0  0  0
  7 12  1  0  0  0  0
  8 15  1  0  0  0  0
  9 10  1  0  0  0  0
 10 15  1  0  0  0  0
 12 17  1  0  0  0  0
 13 17  2  0  0  0  0
 14 17  2  0  0  0  0
  1 18  1  0  0  0  0
  2 19  1  0  0  0  0
  3 20  1  0  0  0  0
  5 21  1  0  0  0  0
  5 22  1  0  0  0  0
  6 23  1  0  0  0  0
  7 24  1  0  0  0  0
  8 25  1  0  0  0  0
  9 26  1  0  0  0  0
  9 27  1  0  0  0  0
  9 28  1  0  0  0  0
 10 29  1  0  0  0  0
 10 30  1  0  0  0  0
 11 31  1  0  0  0  0
 11 32  1  0  0  0  0
 12 33  1  0  0  0  0
M  END
> <FRED Chemgauss4 score>
-7.494095

$$$$
C22061976	P32822232
  -OEChem-05182014473D

 23 23  0     1  0  0  0  0  0999 V2000
  123.6690  106.6966  105.8147 C   0  0  0  0  0  0  0  0  0  0  0  0
  125.1288  107.1074  105.9157 C   0  0  2  0  0  0  0  0  0  0  0  0
  125.4746  107.7095  107.2811 C   0  0  2  0  0  0  0  0  0  0  0  0
  124.7911  107.0090  108.4721 C   0  0  1  0  0  0  0  0  0  0  0  0
  124.0278  105.7334  108.0914 C   0  0  2  0  0  0  0  0  0  0  0  0
  124.8955  104.4852  107.9286 C   0  0  0  0  0  0  0  0  0  0  0  0
  123.2129  105.9893  106.9115 N   0  0  0  0  0  0  0  0  0  0  0  0
  122.9761  106.9392  104.8293 O   0  0  0  0  0  0  0  0  0  0  0  0
  125.4710  108.0121  104.8810 O   0  0  0  0  0  0  0  0  0  0  0  0
  125.0662  109.0840  107.2886 O   0  0  0  0  0  0  0  0  0  0  0  0
  125.7547  106.7234  109.4822 O   0  0  0  0  0  0  0  0  0  0  0  0
  125.1831  103.9666  109.2140 O   0  0  0  0  0  0  0  0  0  0  0  0
  125.7158  106.1951  105.7779 H   0  0  0  0  0  0  0  0  0  0  0  0
  126.5679  107.7133  107.4076 H   0  0  0  0  0  0  0  0  0  0  0  0
  124.0620  107.7193  108.9365 H   0  0  0  0  0  0  0  0  0  0  0  0
  123.2920  105.5458  108.8889 H   0  0  0  0  0  0  0  0  0  0  0  0
  125.8276  104.7441  107.4269 H   0  0  0  0  0  0  0  0  0  0  0  0
  124.3605  103.7343  107.3478 H   0  0  0  0  0  0  0  0  0  0  0  0
  122.2813  105.6387  106.8912 H   0  0  0  0  0  0  0  0  0  0  0  0
  125.3114  107.5542  104.0385 H   0  0  0  0  0  0  0  0  0  0  0  0
  125.2980  109.4342  108.1621 H   0  0  0  0  0  0  0  0  0  0  0  0
  126.1304  107.5750  109.7536 H   0  0  0  0  0  0  0  0  0  0  0  0
  125.7343  103.1756  109.0863 H   0  0  0  0  0  0  0  0  0  0  0  0
  1  2  1  0  0  0  0
  1  7  1  0  0  0  0
  1  8  2  0  0  0  0
  2  3  1  0  0  0  0
  2  9  1  0  0  0  0
  3  4  1  0  0  0  0
  3 10  1  0  0  0  0
  4  5  1  0  0  0  0
  4 11  1  0  0  0  0
  5  6  1  0  0  0  0
  5  7  1  0  0  0  0
  6 12  1  0  0  0  0
  2 13  1  0  0  0  0
  3 14  1  0  0  0  0
  4 15  1  0  0  0  0
  5 16  1  0  0  0  0
  6 17  1  0  0  0  0
  6 18  1  0  0  0  0
  7 19  1  0  0  0  0
  9 20  1  0  0  0  0
 10 21  1  0  0  0  0
 11 22  1  0  0  0  0
 12 23  1  0  0  0  0
M  END
> <FRED Chemgauss4 score>
-7.492382

$$$$
C82583446	P129059853
  -OEChem-05182014473D

 29 30  0     1  0  0  0  0  0999 V2000
  120.7801  104.4985  104.7282 C   0  0  0  0  0  0  0  0  0  0  0  0
  121.6473  104.0181  105.7098 C   0  0  0  0  0  0  0  0  0  0  0  0
  121.0512  105.7256  104.1310 C   0  0  0  0  0  0  0  0  0  0  0  0
  122.7520  104.8156  106.0349 C   0  0  0  0  0  0  0  0  0  0  0  0
  122.9021  106.0191  105.3597 C   0  0  0  0  0  0  0  0  0  0  0  0
  124.5273  105.7081  106.8121 C   0  0  0  0  0  0  0  0  0  0  0  0
  126.1477  103.9204  109.1239 C   0  0  0  0  0  0  0  0  0  0  0  0
  124.6196  107.8400  105.4823 C   0  0  0  0  0  0  0  0  0  0  0  0
  125.7614  105.9901  107.5743 C   0  0  1  0  0  0  0  0  0  0  0  0
  125.7422  105.3892  109.0193 C   0  0  2  0  0  0  0  0  0  0  0  0
  122.1038  106.5327  104.4094 N   0  0  0  0  0  0  0  0  0  0  0  0
  123.7730  104.6366  106.9364 N   0  0  0  0  0  0  0  0  0  0  0  0
  124.0413  106.5745  105.8700 N   0  0  0  0  0  0  0  0  0  0  0  0
  126.9752  105.5200  106.8632 N   0  0  0  0  0  0  0  0  0  0  0  0
  126.6570  106.1391  109.8262 O   0  0  0  0  0  0  0  0  0  0  0  0
  119.9080  103.9234  104.4358 H   0  0  0  0  0  0  0  0  0  0  0  0
  121.4684  103.0665  106.1975 H   0  0  0  0  0  0  0  0  0  0  0  0
  120.3834  106.1102  103.3649 H   0  0  0  0  0  0  0  0  0  0  0  0
  127.1347  103.7371  108.6900 H   0  0  0  0  0  0  0  0  0  0  0  0
  125.4171  103.2757  108.6230 H   0  0  0  0  0  0  0  0  0  0  0  0
  126.1743  103.6072  110.1736 H   0  0  0  0  0  0  0  0  0  0  0  0
  124.1928  108.6163  106.1228 H   0  0  0  0  0  0  0  0  0  0  0  0
  125.7054  107.7971  105.6054 H   0  0  0  0  0  0  0  0  0  0  0  0
  124.3858  108.0378  104.4325 H   0  0  0  0  0  0  0  0  0  0  0  0
  125.8938  107.0883  107.6975 H   0  0  0  0  0  0  0  0  0  0  0  0
  124.7498  105.5088  109.4687 H   0  0  0  0  0  0  0  0  0  0  0  0
  127.7736  105.3408  107.4139 H   0  0  0  0  0  0  0  0  0  0  0  0
  126.9791  105.6087  105.8807 H   0  0  0  0  0  0  0  0  0  0  0  0
  126.5633  105.7985  110.7273 H   0  0  0  0  0  0  0  0  0  0  0  0
  1  2  2  0  0  0  0
  1  3  1  0  0  0  0
  2  4  1  0  0  0  0
  3 11  2  0  0  0  0
  4  5  2  0  0  0  0
  4 12  1  0  0  0  0
  5 11  1  0  0  0  0
  5 13  1  0  0  0  0
  6  9  1  0  0  0  0
  6 12  2  0  0  0  0
  6 13  1  0  0  0  0
  7 10  1  0  0  0  0
  8 13  1  0  0  0  0
  9 10  1  0  0  0  0
  9 14  1  0  0  0  0
 10 15  1  0  0  0  0
  1 16  1  0  0  0  0
  2 17  1  0  0  0  0
  3 18  1  0  0  0  0
  7 19  1  0  0  0  0
  7 20  1  0  0  0  0
  7 21  1  0  0  0  0
  8 22  1  0  0  0  0
  8 23  1  0  0  0  0
  8 24  1  0  0  0  0
  9 25  1  0  0  0  0
 10 26  1  0  0  0  0
 14 27  1  0  0  0  0
 14 28  1  0  0  0  0
 15 29  1  0  0  0  0
M  END
> <FRED Chemgauss4 score>
-7.492377

$$$$
C72430167	P112678220
  -OEChem-05182014473D

 42 44  0     0  0  0  0  0  0999 V2000
  115.6121  106.1842  104.7296 C   0  0  0  0  0  0  0  0  0  0  0  0
  125.4693  104.8002  107.5067 C   0  0  0  0  0  0  0  0  0  0  0  0
  124.3788  106.6593  107.9423 C   0  0  0  0  0  0  0  0  0  0  0  0
  116.6901  105.6233  104.0532 C   0  0  0  0  0  0  0  0  0  0  0  0
  117.9718  106.0897  104.3734 C   0  0  0  0  0  0  0  0  0  0  0  0
  118.1138  107.1083  105.3166 C   0  0  0  0  0  0  0  0  0  0  0  0
  125.6511  106.1457  107.8787 C   0  0  0  0  0  0  0  0  0  0  0  0
  116.9697  107.6029  105.9219 C   0  0  0  0  0  0  0  0  0  0  0  0
  121.5847  106.7191  106.5658 C   0  0  0  0  0  0  0  0  0  0  0  0
  119.1769  105.5366  103.6581 C   0  0  0  0  0  0  0  0  0  0  0  0
  116.4951  104.5070  103.0642 C   0  0  0  0  0  0  0  0  0  0  0  0
  118.8833  104.2073  102.9580 C   0  0  0  0  0  0  0  0  0  0  0  0
  117.0658  108.6888  106.9438 C   0  0  0  0  0  0  0  0  0  0  0  0
  119.4564  107.6521  105.6787 C   0  0  0  0  0  0  0  0  0  0  0  0
  122.0878  105.6839  107.5490 C   0  0  0  0  0  0  0  0  0  0  0  0
  115.7203  107.1644  105.6544 N   0  0  0  0  0  0  0  0  0  0  0  0
  124.1829  104.4791  107.3455 N   0  0  0  0  0  0  0  0  0  0  0  0
  123.5448  105.6301  107.6176 N   0  0  0  0  0  0  0  0  0  0  0  0
  117.6485  104.3041  102.1790 N   0  0  0  0  0  0  0  0  0  0  0  0
  126.8079  106.7909  108.1198 N   0  0  0  0  0  0  0  0  0  0  0  0
  120.1960  106.7576  106.5316 N   0  0  0  0  0  0  0  0  0  0  0  0
  122.3262  107.4264  105.8890 O   0  0  0  0  0  0  0  0  0  0  0  0
  114.5964  105.8506  104.5397 H   0  0  0  0  0  0  0  0  0  0  0  0
  126.2181  104.0377  107.3448 H   0  0  0  0  0  0  0  0  0  0  0  0
  124.0038  107.6443  108.1855 H   0  0  0  0  0  0  0  0  0  0  0  0
  119.5326  106.2474  102.9030 H   0  0  0  0  0  0  0  0  0  0  0  0
  119.9789  105.3939  104.3937 H   0  0  0  0  0  0  0  0  0  0  0  0
  116.3098  103.5686  103.5994 H   0  0  0  0  0  0  0  0  0  0  0  0
  115.6051  104.7184  102.4590 H   0  0  0  0  0  0  0  0  0  0  0  0
  119.7168  103.9193  102.3047 H   0  0  0  0  0  0  0  0  0  0  0  0
  118.7816  103.4138  103.7065 H   0  0  0  0  0  0  0  0  0  0  0  0
  117.0029  109.6705  106.4609 H   0  0  0  0  0  0  0  0  0  0  0  0
  116.2590  108.6095  107.6825 H   0  0  0  0  0  0  0  0  0  0  0  0
  118.0118  108.6299  107.4958 H   0  0  0  0  0  0  0  0  0  0  0  0
  120.0639  107.8322  104.7816 H   0  0  0  0  0  0  0  0  0  0  0  0
  119.3719  108.6125  106.2042 H   0  0  0  0  0  0  0  0  0  0  0  0
  121.7235  104.6914  107.2609 H   0  0  0  0  0  0  0  0  0  0  0  0
  121.7090  105.9090  108.5524 H   0  0  0  0  0  0  0  0  0  0  0  0
  117.5177  103.4422  101.6489 H   0  0  0  0  0  0  0  0  0  0  0  0
  127.7226  106.3122  108.0944 H   0  0  0  0  0  0  0  0  0  0  0  0
  126.8360  107.7740  108.4348 H   0  0  0  0  0  0  0  0  0  0  0  0
  119.6705  106.1039  107.1082 H   0  0  0  0  0  0  0  0  0  0  0  0
  1  4  2  0  0  0  0
  1 16  1  0  0  0  0
  2  7  1  0  0  0  0
  2 17  2  0  0  0  0
  3  7  2  0  0  0  0
  3 18  1  0  0  0  0
  4  5  1  0  0  0  0
  4 11  1  0  0  0  0
  5  6  2  0  0  0  0
  5 10  1  0  0  0  0
  6  8  1  0  0  0  0
  6 14  1  0  0  0  0
  7 20  1  0  0  0  0
  8 13  1  0  0  0  0
  8 16  2  0  0  0  0
  9 15  1  0  0  0  0
  9 21  1  0  0  0  0
  9 22  2  0  0  0  0
 10 12  1  0  0  0  0
 11 19  1  0  0  0  0
 12 19  1  0  0  0  0
 14 21  1  0  0  0  0
 15 18  1  0  0  0  0
 17 18  1  0  0  0  0
  1 23  1  0  0  0  0
  2 24  1  0  0  0  0
  3 25  1  0  0  0  0
 10 26  1  0  0  0  0
 10 27  1  0  0  0  0
 11 28  1  0  0  0  0
 11 29  1  0  0  0  0
 12 30  1  0  0  0  0
 12 31  1  0  0  0  0
 13 32  1  0  0  0  0
 13 33  1  0  0  0  0
 13 34  1  0  0  0  0
 14 35  1  0  0  0  0
 14 36  1  0  0  0  0
 15 37  1  0  0  0  0
 15 38  1  0  0  0  0
 19 39  1  0  0  0  0
 20 40  1  0  0  0  0
 20 41  1  0  0  0  0
 21 42  1  0  0  0  0
M  END
> <FRED Chemgauss4 score>
-7.488692

$$$$
C91671276	P143506488
  -OEChem-05182014473D

 37 38  0     1  0  0  0  0  0999 V2000
  125.1369  105.4219  107.7111 C   0  0  0  0  0  0  0  0  0  0  0  0
  115.5341  105.6666  104.2689 C   0  0  0  0  0  0  0  0  0  0  0  0
  116.3608  105.0307  103.1646 C   0  0  0  0  0  0  0  0  0  0  0  0
  116.5816  106.0049  105.3126 C   0  0  0  0  0  0  0  0  0  0  0  0
  118.7827  105.0820  105.8365 C   0  0  0  0  0  0  0  0  0  0  0  0
  118.8444  104.4561  103.2513 C   0  0  0  0  0  0  0  0  0  0  0  0
  117.4770  104.3029  103.9118 C   0  0  1  0  0  0  0  0  0  0  0  0
  119.7148  103.9316  105.4344 C   0  0  2  0  0  0  0  0  0  0  0  0
  124.0132  104.9102  106.8519 C   0  0  0  0  0  0  0  0  0  0  0  0
  121.1019  104.1073  106.0384 C   0  0  0  0  0  0  0  0  0  0  0  0
  117.4518  104.8305  105.2864 N   0  0  2  0  0  0  0  0  0  0  0  0
  124.9550  105.2664  109.0594 N   0  0  0  0  0  0  0  0  0  0  0  0
  121.6822  105.3255  105.5782 N   0  0  0  0  0  0  0  0  0  0  0  0
  122.1847  106.5063  107.8312 O   0  0  0  0  0  0  0  0  0  0  0  0
  123.4619  107.2233  105.7791 O   0  0  0  0  0  0  0  0  0  0  0  0
  119.8750  103.8243  104.0125 O   0  0  0  0  0  0  0  0  0  0  0  0
  126.5058  106.1369  107.0734 S   0  0  0  0  0  0  0  0  0  0  0  0
  122.8131  106.1902  106.5635 S   0  0  0  0  0  0  0  0  0  0  0  0
  115.0320  106.5563  103.9012 H   0  0  0  0  0  0  0  0  0  0  0  0
  114.7982  104.9728  104.6624 H   0  0  0  0  0  0  0  0  0  0  0  0
  115.7649  104.3416  102.5579 H   0  0  0  0  0  0  0  0  0  0  0  0
  116.7542  105.8048  102.4957 H   0  0  0  0  0  0  0  0  0  0  0  0
  117.0929  106.9374  105.1120 H   0  0  0  0  0  0  0  0  0  0  0  0
  116.1136  106.0738  106.2901 H   0  0  0  0  0  0  0  0  0  0  0  0
  118.7233  105.1391  106.9237 H   0  0  0  0  0  0  0  0  0  0  0  0
  119.1984  106.0216  105.4673 H   0  0  0  0  0  0  0  0  0  0  0  0
  118.8397  104.0247  102.2429 H   0  0  0  0  0  0  0  0  0  0  0  0
  119.1050  105.5151  103.1523 H   0  0  0  0  0  0  0  0  0  0  0  0
  117.2405  103.2333  103.9364 H   0  0  0  0  0  0  0  0  0  0  0  0
  119.3120  102.9600  105.8167 H   0  0  0  0  0  0  0  0  0  0  0  0
  124.3672  104.5667  105.8760 H   0  0  0  0  0  0  0  0  0  0  0  0
  123.4856  104.0915  107.3505 H   0  0  0  0  0  0  0  0  0  0  0  0
  121.7268  103.2772  105.7314 H   0  0  0  0  0  0  0  0  0  0  0  0
  121.0190  104.1386  107.1178 H   0  0  0  0  0  0  0  0  0  0  0  0
  124.1210  104.8382  109.4483 H   0  0  0  0  0  0  0  0  0  0  0  0
  125.6557  105.5811  109.7222 H   0  0  0  0  0  0  0  0  0  0  0  0
  121.8848  105.3858  104.5509 H   0  0  0  0  0  0  0  0  0  0  0  0
  1  9  1  0  0  0  0
  1 12  1  0  0  0  0
  1 17  2  0  0  0  0
  2  3  1  0  0  0  0
  2  4  1  0  0  0  0
  3  7  1  0  0  0  0
  4 11  1  0  0  0  0
  5  8  1  0  0  0  0
  5 11  1  0  0  0  0
  6  7  1  0  0  0  0
  6 16  1  0  0  0  0
  7 11  1  0  0  0  0
  8 10  1  0  0  0  0
  8 16  1  0  0  0  0
  9 18  1  0  0  0  0
 10 13  1  0  0  0  0
 13 18  1  0  0  0  0
 14 18  2  0  0  0  0
 15 18  2  0  0  0  0
  2 19  1  0  0  0  0
  2 20  1  0  0  0  0
  3 21  1  0  0  0  0
  3 22  1  0  0  0  0
  4 23  1  0  0  0  0
  4 24  1  0  0  0  0
  5 25  1  0  0  0  0
  5 26  1  0  0  0  0
  6 27  1  0  0  0  0
  6 28  1  0  0  0  0
  7 29  1  0  0  0  0
  8 30  1  0  0  0  0
  9 31  1  0  0  0  0
  9 32  1  0  0  0  0
 10 33  1  0  0  0  0
 10 34  1  0  0  0  0
 12 35  1  0  0  0  0
 12 36  1  0  0  0  0
 13 37  1  0  0  0  0
M  END
> <FRED Chemgauss4 score>
-7.474759

$$$$
C50242200	P137988432
  -OEChem-05182014473D

 32 33  0     1  0  0  0  0  0999 V2000
  121.9937  106.2171  104.0567 C   0  0  0  0  0  0  0  0  0  0  0  0
  121.8386  106.3022  105.4705 C   0  0  0  0  0  0  0  0  0  0  0  0
  121.0370  105.4119  103.4787 C   0  0  0  0  0  0  0  0  0  0  0  0
  120.7689  105.5589  105.9193 C   0  0  0  0  0  0  0  0  0  0  0  0
  120.8587  105.0814  102.1021 C   0  0  0  0  0  0  0  0  0  0  0  0
  125.5831  104.5255  107.4505 C   0  0  0  0  0  0  0  0  0  0  0  0
  124.5324  105.0599  106.4873 C   0  0  0  0  0  0  0  0  0  0  0  0
  124.5670  106.4066  108.5018 C   0  0  0  0  0  0  0  0  0  0  0  0
  125.9324  105.7675  108.2567 C   0  0  1  0  0  0  0  0  0  0  0  0
  119.5051  103.8344  100.5492 C   0  0  0  0  0  0  0  0  0  0  0  0
  123.7519  106.0311  107.3063 N   0  0  1  0  0  0  0  0  0  0  0  0
  126.6385  105.4589  109.4870 N   0  0  0  0  0  0  0  0  0  0  0  0
  121.5753  105.4888  101.1572 O   0  0  0  0  0  0  0  0  0  0  0  0
  123.8334  107.9681  105.6072 O   0  0  0  0  0  0  0  0  0  0  0  0
  122.0943  107.9992  107.4299 O   0  0  0  0  0  0  0  0  0  0  0  0
  119.7869  104.2400  101.8930 O   0  0  0  0  0  0  0  0  0  0  0  0
  119.9575  104.7627  104.6387 S   0  0  0  0  0  0  0  0  0  0  0  0
  122.9184  107.2641  106.4874 S   0  0  0  0  0  0  0  0  0  0  0  0
  120.2091  105.3945  107.7320 Br  0  0  0  0  0  0  0  0  0  0  0  0
  122.7671  106.7206  103.4896 H   0  0  0  0  0  0  0  0  0  0  0  0
  125.1440  103.7482  108.0892 H   0  0  0  0  0  0  0  0  0  0  0  0
  126.4448  104.0956  106.9310 H   0  0  0  0  0  0  0  0  0  0  0  0
  125.0103  105.5746  105.6462 H   0  0  0  0  0  0  0  0  0  0  0  0
  123.8853  104.2636  106.1106 H   0  0  0  0  0  0  0  0  0  0  0  0
  124.0671  105.9964  109.3871 H   0  0  0  0  0  0  0  0  0  0  0  0
  124.6511  107.4910  108.6225 H   0  0  0  0  0  0  0  0  0  0  0  0
  126.5471  106.4367  107.6486 H   0  0  0  0  0  0  0  0  0  0  0  0
  118.6344  103.1741  100.5422 H   0  0  0  0  0  0  0  0  0  0  0  0
  120.3729  103.3150  100.1349 H   0  0  0  0  0  0  0  0  0  0  0  0
  119.2921  104.7211   99.9475 H   0  0  0  0  0  0  0  0  0  0  0  0
  126.5784  106.1074  110.2464 H   0  0  0  0  0  0  0  0  0  0  0  0
  127.3190  104.7256  109.4745 H   0  0  0  0  0  0  0  0  0  0  0  0
  1  2  1  0  0  0  0
  1  3  2  0  0  0  0
  2  4  2  0  0  0  0
  2 18  1  0  0  0  0
  3  5  1  0  0  0  0
  3 17  1  0  0  0  0
  4 17  1  0  0  0  0
  4 19  1  0  0  0  0
  5 13  2  0  0  0  0
  5 16  1  0  0  0  0
  6  7  1  0  0  0  0
  6  9  1  0  0  0  0
  7 11  1  0  0  0  0
  8  9  1  0  0  0  0
  8 11  1  0  0  0  0
  9 12  1  0  0  0  0
 10 16  1  0  0  0  0
 11 18  1  0  0  0  0
 14 18  2  0  0  0  0
 15 18  2  0  0  0  0
  1 20  1  0  0  0  0
  6 21  1  0  0  0  0
  6 22  1  0  0  0  0
  7 23  1  0  0  0  0
  7 24  1  0  0  0  0
  8 25  1  0  0  0  0
  8 26  1  0  0  0  0
  9 27  1  0  0  0  0
 10 28  1  0  0  0  0
 10 29  1  0  0  0  0
 10 30  1  0  0  0  0
 12 31  1  0  0  0  0
 12 32  1  0  0  0  0
M  END
> <FRED Chemgauss4 score>
-7.472874

$$$$
C87593473	P137019368
  -OEChem-05182014473D

 38 38  0     0  0  0  0  0  0999 V2000
  117.7412  104.6369  103.4594 C   0  0  0  0  0  0  0  0  0  0  0  0
  119.0662  104.7716  103.8738 C   0  0  0  0  0  0  0  0  0  0  0  0
  117.4228  104.7176  102.1037 C   0  0  0  0  0  0  0  0  0  0  0  0
  119.7545  105.0679  101.5770 C   0  0  0  0  0  0  0  0  0  0  0  0
  120.0729  104.9871  102.9326 C   0  0  0  0  0  0  0  0  0  0  0  0
  118.4295  104.9332  101.1625 C   0  0  0  0  0  0  0  0  0  0  0  0
  125.2163  105.2978  107.2327 C   0  0  0  0  0  0  0  0  0  0  0  0
  124.4463  107.3614  108.4299 C   0  0  0  0  0  0  0  0  0  0  0  0
  125.3234  107.6029  106.1160 C   0  0  0  0  0  0  0  0  0  0  0  0
  121.4989  105.1321  103.3794 C   0  0  0  0  0  0  0  0  0  0  0  0
  123.0747  106.4902  106.5059 C   0  0  0  0  0  0  0  0  0  0  0  0
  122.9920  105.8420  105.1193 C   0  0  0  0  0  0  0  0  0  0  0  0
  124.5178  106.6763  107.0496 C   0  0  0  0  0  0  0  0  0  0  0  0
  126.3200  105.0882  106.5716 N   0  0  0  0  0  0  0  0  0  0  0  0
  124.6121  104.4001  108.0883 N   0  0  0  0  0  0  0  0  0  0  0  0
  121.5964  105.7174  104.7083 N   0  0  0  0  0  0  0  0  0  0  0  0
  126.8177  103.8110  106.8452 O   0  0  0  0  0  0  0  0  0  0  0  0
  117.9974  105.0425   99.3258 Br  0  0  0  0  0  0  0  0  0  0  0  0
  116.9574  104.4691  104.1923 H   0  0  0  0  0  0  0  0  0  0  0  0
  119.3048  104.7072  104.9321 H   0  0  0  0  0  0  0  0  0  0  0  0
  116.3854  104.6105  101.7975 H   0  0  0  0  0  0  0  0  0  0  0  0
  120.5448  105.2361  100.8488 H   0  0  0  0  0  0  0  0  0  0  0  0
  123.9611  108.3416  108.3612 H   0  0  0  0  0  0  0  0  0  0  0  0
  123.8784  106.7652  109.1526 H   0  0  0  0  0  0  0  0  0  0  0  0
  125.4487  107.5096  108.8481 H   0  0  0  0  0  0  0  0  0  0  0  0
  124.8239  108.5713  105.9929 H   0  0  0  0  0  0  0  0  0  0  0  0
  125.4343  107.1602  105.1196 H   0  0  0  0  0  0  0  0  0  0  0  0
  126.3266  107.8083  106.5039 H   0  0  0  0  0  0  0  0  0  0  0  0
  121.9971  104.1567  103.4031 H   0  0  0  0  0  0  0  0  0  0  0  0
  122.0637  105.7691  102.6907 H   0  0  0  0  0  0  0  0  0  0  0  0
  122.4881  105.8877  107.2121 H   0  0  0  0  0  0  0  0  0  0  0  0
  122.5804  107.4711  106.4682 H   0  0  0  0  0  0  0  0  0  0  0  0
  123.4429  104.8451  105.1304 H   0  0  0  0  0  0  0  0  0  0  0  0
  123.5223  106.4442  104.3755 H   0  0  0  0  0  0  0  0  0  0  0  0
  123.7540  104.6135  108.5842 H   0  0  0  0  0  0  0  0  0  0  0  0
  125.0204  103.4859  108.2508 H   0  0  0  0  0  0  0  0  0  0  0  0
  121.1683  106.6416  104.7027 H   0  0  0  0  0  0  0  0  0  0  0  0
  127.6212  103.7937  106.2985 H   0  0  0  0  0  0  0  0  0  0  0  0
  1  2  2  0  0  0  0
  1  3  1  0  0  0  0
  2  5  1  0  0  0  0
  3  6  2  0  0  0  0
  4  5  2  0  0  0  0
  4  6  1  0  0  0  0
  5 10  1  0  0  0  0
  6 18  1  0  0  0  0
  7 13  1  0  0  0  0
  7 14  2  0  0  0  0
  7 15  1  0  0  0  0
  8 13  1  0  0  0  0
  9 13  1  0  0  0  0
 10 16  1  0  0  0  0
 11 12  1  0  0  0  0
 11 13  1  0  0  0  0
 12 16  1  0  0  0  0
 14 17  1  0  0  0  0
  1 19  1  0  0  0  0
  2 20  1  0  0  0  0
  3 21  1  0  0  0  0
  4 22  1  0  0  0  0
  8 23  1  0  0  0  0
  8 24  1  0  0  0  0
  8 25  1  0  0  0  0
  9 26  1  0  0  0  0
  9 27  1  0  0  0  0
  9 28  1  0  0  0  0
 10 29  1  0  0  0  0
 10 30  1  0  0  0  0
 11 31  1  0  0  0  0
 11 32  1  0  0  0  0
 12 33  1  0  0  0  0
 12 34  1  0  0  0  0
 15 35  1  0  0  0  0
 15 36  1  0  0  0  0
 16 37  1  0  0  0  0
 17 38  1  0  0  0  0
M  END
> <FRED Chemgauss4 score>
-7.471889

$$$$
C48630888	P72699270
  -OEChem-05182014473D

 26 26  0     1  0  0  0  0  0999 V2000
  122.8105  105.7050  106.2647 C   0  0  0  0  0  0  0  0  0  0  0  0
  121.2396  104.3686  105.9436 C   0  0  0  0  0  0  0  0  0  0  0  0
  118.7732  104.1218  106.3211 C   0  0  0  0  0  0  0  0  0  0  0  0
  126.0514  106.1706  106.6546 C   0  0  0  0  0  0  0  0  0  0  0  0
  120.0125  103.6619  105.5425 C   0  0  0  0  0  0  0  0  0  0  0  0
  123.6482  106.9741  106.1882 C   0  0  1  0  0  0  0  0  0  0  0  0
  125.0582  106.6882  105.6162 C   0  0  1  0  0  0  0  0  0  0  0  0
  121.6128  105.5849  105.6200 N   0  0  0  0  0  0  0  0  0  0  0  0
  123.2019  104.6396  106.9669 N   0  0  0  0  0  0  0  0  0  0  0  0
  122.1796  103.7993  106.7449 N   0  0  0  0  0  0  0  0  0  0  0  0
  122.9456  108.0015  105.4115 N   0  0  0  0  0  0  0  0  0  0  0  0
  125.6000  107.9001  105.0797 O   0  0  0  0  0  0  0  0  0  0  0  0
  118.9311  104.0119  107.3994 H   0  0  0  0  0  0  0  0  0  0  0  0
  117.8893  103.5375  106.0466 H   0  0  0  0  0  0  0  0  0  0  0  0
  118.5588  105.1766  106.1187 H   0  0  0  0  0  0  0  0  0  0  0  0
  126.1428  106.8499  107.5068 H   0  0  0  0  0  0  0  0  0  0  0  0
  127.0427  106.0263  106.2109 H   0  0  0  0  0  0  0  0  0  0  0  0
  125.7317  105.1928  107.0321 H   0  0  0  0  0  0  0  0  0  0  0  0
  119.8079  103.7905  104.4603 H   0  0  0  0  0  0  0  0  0  0  0  0
  120.1164  102.5658  105.6746 H   0  0  0  0  0  0  0  0  0  0  0  0
  123.7698  107.3620  107.2085 H   0  0  0  0  0  0  0  0  0  0  0  0
  125.0107  105.9682  104.7913 H   0  0  0  0  0  0  0  0  0  0  0  0
  122.1964  102.8774  107.1650 H   0  0  0  0  0  0  0  0  0  0  0  0
  123.4873  108.7392  105.0240 H   0  0  0  0  0  0  0  0  0  0  0  0
  121.9543  108.0321  105.4756 H   0  0  0  0  0  0  0  0  0  0  0  0
  126.4508  107.6629  104.6836 H   0  0  0  0  0  0  0  0  0  0  0  0
  1  6  1  0  0  0  0
  1  8  1  0  0  0  0
  1  9  2  0  0  0  0
  2  5  1  0  0  0  0
  2  8  2  0  0  0  0
  2 10  1  0  0  0  0
  3  5  1  0  0  0  0
  4  7  1  0  0  0  0
  6  7  1  0  0  0  0
  6 11  1  0  0  0  0
  7 12  1  0  0  0  0
  9 10  1  0  0  0  0
  3 13  1  0  0  0  0
  3 14  1  0  0  0  0
  3 15  1  0  0  0  0
  4 16  1  0  0  0  0
  4 17  1  0  0  0  0
  4 18  1  0  0  0  0
  5 19  1  0  0  0  0
  5 20  1  0  0  0  0
  6 21  1  0  0  0  0
  7 22  1  0  0  0  0
 10 23  1  0  0  0  0
 11 24  1  0  0  0  0
 11 25  1  0  0  0  0
 12 26  1  0  0  0  0
M  END
> <FRED Chemgauss4 score>
-7.465612

$$$$
C84143509	P131667660
  -OEChem-05182014473D

 36 38  0     0  0  0  0  0  0999 V2000
  120.2461  104.4870  106.1232 C   0  0  0  0  0  0  0  0  0  0  0  0
  119.5459  104.2165  104.9429 C   0  0  0  0  0  0  0  0  0  0  0  0
  120.8014  105.9092  103.7237 C   0  0  0  0  0  0  0  0  0  0  0  0
  121.5145  106.1942  104.9004 C   0  0  0  0  0  0  0  0  0  0  0  0
  121.2218  105.4824  106.0603 C   0  0  0  0  0  0  0  0  0  0  0  0
  119.8169  104.9137  103.7634 C   0  0  0  0  0  0  0  0  0  0  0  0
  122.8303  106.9640  106.3956 C   0  0  0  0  0  0  0  0  0  0  0  0
  123.4937  105.1166  109.0215 C   0  0  0  0  0  0  0  0  0  0  0  0
  122.4058  104.1144  108.7938 C   0  0  0  0  0  0  0  0  0  0  0  0
  122.1713  105.5656  108.4453 C   0  0  0  0  0  0  0  0  0  0  0  0
  126.2477  108.5406  107.4303 C   0  0  0  0  0  0  0  0  0  0  0  0
  125.8634  106.2578  106.4962 C   0  0  0  0  0  0  0  0  0  0  0  0
  123.8874  107.7467  107.1414 C   0  0  0  0  0  0  0  0  0  0  0  0
  125.3189  107.6932  106.5444 C   0  0  0  0  0  0  0  0  0  0  0  0
  122.5162  107.1098  105.1279 N   0  0  0  0  0  0  0  0  0  0  0  0
  122.0783  105.9955  107.0004 N   0  0  0  0  0  0  0  0  0  0  0  0
  125.3363  108.2571  105.2051 N   0  0  0  0  0  0  0  0  0  0  0  0
  118.9301  104.5443  102.3325 Cl  0  0  0  0  0  0  0  0  0  0  0  0
  120.0347  103.9450  107.0380 H   0  0  0  0  0  0  0  0  0  0  0  0
  118.7794  103.4441  104.9598 H   0  0  0  0  0  0  0  0  0  0  0  0
  121.0155  106.4538  102.8089 H   0  0  0  0  0  0  0  0  0  0  0  0
  123.7183  105.3949  110.0439 H   0  0  0  0  0  0  0  0  0  0  0  0
  124.3561  105.0803  108.3669 H   0  0  0  0  0  0  0  0  0  0  0  0
  122.5367  103.4039  107.9867 H   0  0  0  0  0  0  0  0  0  0  0  0
  121.8949  103.7173  109.6624 H   0  0  0  0  0  0  0  0  0  0  0  0
  121.5148  106.1379  109.0645 H   0  0  0  0  0  0  0  0  0  0  0  0
  125.8973  109.5775  107.4946 H   0  0  0  0  0  0  0  0  0  0  0  0
  127.2704  108.5544  107.0374 H   0  0  0  0  0  0  0  0  0  0  0  0
  126.2839  108.1489  108.4536 H   0  0  0  0  0  0  0  0  0  0  0  0
  125.2326  105.6133  105.8743 H   0  0  0  0  0  0  0  0  0  0  0  0
  125.9024  105.8183  107.5002 H   0  0  0  0  0  0  0  0  0  0  0  0
  126.8847  106.2242  106.1015 H   0  0  0  0  0  0  0  0  0  0  0  0
  123.9110  107.3939  108.1819 H   0  0  0  0  0  0  0  0  0  0  0  0
  123.5518  108.7919  107.2022 H   0  0  0  0  0  0  0  0  0  0  0  0
  126.0796  107.9966  104.5884 H   0  0  0  0  0  0  0  0  0  0  0  0
  124.7356  109.0321  105.0071 H   0  0  0  0  0  0  0  0  0  0  0  0
  1  2  2  0  0  0  0
  1  5  1  0  0  0  0
  2  6  1  0  0  0  0
  3  4  1  0  0  0  0
  3  6  2  0  0  0  0
  4  5  2  0  0  0  0
  4 15  1  0  0  0  0
  5 16  1  0  0  0  0
  6 18  1  0  0  0  0
  7 13  1  0  0  0  0
  7 15  2  0  0  0  0
  7 16  1  0  0  0  0
  8  9  1  0  0  0  0
  8 10  1  0  0  0  0
  9 10  1  0  0  0  0
 10 16  1  0  0  0  0
 11 14  1  0  0  0  0
 12 14  1  0  0  0  0
 13 14  1  0  0  0  0
 14 17  1  0  0  0  0
  1 19  1  0  0  0  0
  2 20  1  0  0  0  0
  3 21  1  0  0  0  0
  8 22  1  0  0  0  0
  8 23  1  0  0  0  0
  9 24  1  0  0  0  0
  9 25  1  0  0  0  0
 10 26  1  0  0  0  0
 11 27  1  0  0  0  0
 11 28  1  0  0  0  0
 11 29  1  0  0  0  0
 12 30  1  0  0  0  0
 12 31  1  0  0  0  0
 12 32  1  0  0  0  0
 13 33  1  0  0  0  0
 13 34  1  0  0  0  0
 17 35  1  0  0  0  0
 17 36  1  0  0  0  0
M  END
> <FRED Chemgauss4 score>
-7.458304

$$$$
C50674474	P80478612
  -OEChem-05182014473D

 31 31  0     1  0  0  0  0  0999 V2000
  123.2684  104.9741  106.4603 C   0  0  0  0  0  0  0  0  0  0  0  0
  123.8889  107.1834  105.7274 C   0  0  0  0  0  0  0  0  0  0  0  0
  124.5949  104.7470  106.7984 C   0  0  0  0  0  0  0  0  0  0  0  0
  122.9162  106.2069  105.9194 C   0  0  0  0  0  0  0  0  0  0  0  0
  125.1997  106.9005  106.0842 C   0  0  0  0  0  0  0  0  0  0  0  0
  119.1839  104.6846  104.0615 C   0  0  0  0  0  0  0  0  0  0  0  0
  121.0464  104.1124  102.4666 C   0  0  0  0  0  0  0  0  0  0  0  0
  117.3317  103.2999  104.9815 C   0  0  0  0  0  0  0  0  0  0  0  0
  120.6904  104.6692  103.8403 C   0  0  1  0  0  0  0  0  0  0  0  0
  121.0799  106.0679  103.9479 N   0  5  0  0  0  0  0  0  0  0  0  0
  125.5113  105.7050  106.6030 N   0  3  0  0  0  0  0  0  0  0  0  0
  126.2221  107.8440  105.9143 N   0  0  0  0  0  0  0  0  0  0  0  0
  118.7226  103.5182  104.6574 N   0  0  0  0  0  0  0  0  0  0  0  0
  118.4754  105.6404  103.7502 O   0  0  0  0  0  0  0  0  0  0  0  0
  121.0893  107.9783  105.6842 O   0  0  0  0  0  0  0  0  0  0  0  0
  120.4588  105.7282  106.4304 O   0  0  0  0  0  0  0  0  0  0  0  0
  121.2033  106.5377  105.4684 S   0  0  0  0  0  0  0  0  0  0  0  0
  122.5276  104.1968  106.6180 H   0  0  0  0  0  0  0  0  0  0  0  0
  123.6273  108.1496  105.3053 H   0  0  0  0  0  0  0  0  0  0  0  0
  124.9588  103.8217  107.2231 H   0  0  0  0  0  0  0  0  0  0  0  0
  120.5857  104.7092  101.6713 H   0  0  0  0  0  0  0  0  0  0  0  0
  120.7070  103.0771  102.3409 H   0  0  0  0  0  0  0  0  0  0  0  0
  122.1313  104.1242  102.3149 H   0  0  0  0  0  0  0  0  0  0  0  0
  117.1210  103.6571  105.9929 H   0  0  0  0  0  0  0  0  0  0  0  0
  117.0939  102.2340  104.9281 H   0  0  0  0  0  0  0  0  0  0  0  0
  116.6907  103.8377  104.2778 H   0  0  0  0  0  0  0  0  0  0  0  0
  121.1667  104.0496  104.6089 H   0  0  0  0  0  0  0  0  0  0  0  0
  126.4806  105.5208  106.8584 H   0  0  0  0  0  0  0  0  0  0  0  0
  126.0162  108.7275  105.4835 H   0  0  0  0  0  0  0  0  0  0  0  0
  127.1692  107.5952  106.1373 H   0  0  0  0  0  0  0  0  0  0  0  0
  119.3924  102.7864  104.8751 H   0  0  0  0  0  0  0  0  0  0  0  0
  1  3  2  0  0  0  0
  1  4  1  0  0  0  0
  2  4  2  0  0  0  0
  2  5  1  0  0  0  0
  3 11  1  0  0  0  0
  4 17  1  0  0  0  0
  5 11  2  0  0  0  0
  5 12  1  0  0  0  0
  6  9  1  0  0  0  0
  6 13  1  0  0  0  0
  6 14  2  0  0  0  0
  7  9  1  0  0  0  0
  8 13  1  0  0  0  0
  9 10  1  0  0  0  0
 10 17  1  0  0  0  0
 15 17  2  0  0  0  0
 16 17  2  0  0  0  0
  1 18  1  0  0  0  0
  2 19  1  0  0  0  0
  3 20  1  0  0  0  0
  7 21  1  0  0  0  0
  7 22  1  0  0  0  0
  7 23  1  0  0  0  0
  8 24  1  0  0  0  0
  8 25  1  0  0  0  0
  8 26  1  0  0  0  0
  9 27  1  0  0  0  0
 11 28  1  0  0  0  0
 12 29  1  0  0  0  0
 12 30  1  0  0  0  0
 13 31  1  0  0  0  0
M  CHG  2  10  -1  11   1
M  END
> <FRED Chemgauss4 score>
-7.449154

$$$$
C61707657	P94524272
  -OEChem-05182014473D

 29 29  0     1  0  0  0  0  0999 V2000
  124.2759  106.9926  105.9233 C   0  0  0  0  0  0  0  0  0  0  0  0
  122.8533  106.6149  105.7366 C   0  0  0  0  0  0  0  0  0  0  0  0
  125.4252  104.6231  108.4808 C   0  0  0  0  0  0  0  0  0  0  0  0
  124.2842  105.3132  107.7450 C   0  0  0  0  0  0  0  0  0  0  0  0
  126.3275  106.5212  107.3343 C   0  0  0  0  0  0  0  0  0  0  0  0
  126.4593  105.7346  108.6328 C   0  0  1  0  0  0  0  0  0  0  0  0
  120.7850  105.7541  103.3085 C   0  0  0  0  0  0  0  0  0  0  0  0
  121.4067  105.0378  104.4956 C   0  0  0  0  0  0  0  0  0  0  0  0
  124.9364  106.3243  106.9290 N   0  0  0  0  0  0  0  0  0  0  0  0
  120.6098  107.1604  103.5541 N   0  0  0  0  0  0  0  0  0  0  0  0
  122.7010  105.5817  104.8390 N   0  0  0  0  0  0  0  0  0  0  0  0
  124.7158  107.8555  105.1769 O   0  0  0  0  0  0  0  0  0  0  0  0
  121.9751  107.2021  106.3495 O   0  0  0  0  0  0  0  0  0  0  0  0
  126.1142  106.5792  109.7254 O   0  0  0  0  0  0  0  0  0  0  0  0
  125.0922  104.2003  109.4330 H   0  0  0  0  0  0  0  0  0  0  0  0
  125.8338  103.8202  107.8557 H   0  0  0  0  0  0  0  0  0  0  0  0
  123.6967  104.6306  107.1237 H   0  0  0  0  0  0  0  0  0  0  0  0
  123.6091  105.8278  108.4379 H   0  0  0  0  0  0  0  0  0  0  0  0
  126.5389  107.5890  107.4420 H   0  0  0  0  0  0  0  0  0  0  0  0
  126.9567  106.0966  106.5447 H   0  0  0  0  0  0  0  0  0  0  0  0
  127.4721  105.3575  108.7976 H   0  0  0  0  0  0  0  0  0  0  0  0
  119.8021  105.3401  103.0623 H   0  0  0  0  0  0  0  0  0  0  0  0
  121.4326  105.6596  102.4313 H   0  0  0  0  0  0  0  0  0  0  0  0
  120.7690  105.1442  105.3786 H   0  0  0  0  0  0  0  0  0  0  0  0
  121.5418  103.9708  104.2915 H   0  0  0  0  0  0  0  0  0  0  0  0
  120.3071  107.4658  104.4652 H   0  0  0  0  0  0  0  0  0  0  0  0
  120.5917  107.7967  102.7731 H   0  0  0  0  0  0  0  0  0  0  0  0
  123.5290  105.1873  104.4020 H   0  0  0  0  0  0  0  0  0  0  0  0
  126.8006  107.2632  109.7757 H   0  0  0  0  0  0  0  0  0  0  0  0
  1  2  1  0  0  0  0
  1  9  1  0  0  0  0
  1 12  2  0  0  0  0
  2 11  1  0  0  0  0
  2 13  2  0  0  0  0
  3  4  1  0  0  0  0
  3  6  1  0  0  0  0
  4  9  1  0  0  0  0
  5  6  1  0  0  0  0
  5  9  1  0  0  0  0
  6 14  1  0  0  0  0
  7  8  1  0  0  0  0
  7 10  1  0  0  0  0
  8 11  1  0  0  0  0
  3 15  1  0  0  0  0
  3 16  1  0  0  0  0
  4 17  1  0  0  0  0
  4 18  1  0  0  0  0
  5 19  1  0  0  0  0
  5 20  1  0  0  0  0
  6 21  1  0  0  0  0
  7 22  1  0  0  0  0
  7 23  1  0  0  0  0
  8 24  1  0  0  0  0
  8 25  1  0  0  0  0
 10 26  1  0  0  0  0
 10 27  1  0  0  0  0
 11 28  1  0  0  0  0
 14 29  1  0  0  0  0
M  END
> <FRED Chemgauss4 score>
-7.441656

$$$$
C97229240	P153967145
  -OEChem-05182014473D

 27 27  0     0  0  0  0  0  0999 V2000
  118.9108  104.2030  106.2861 C   0  0  0  0  0  0  0  0  0  0  0  0
  117.6214  104.2215  105.7660 C   0  0  0  0  0  0  0  0  0  0  0  0
  119.7390  104.6961  104.1118 C   0  0  0  0  0  0  0  0  0  0  0  0
  119.9953  104.4438  105.4499 C   0  0  0  0  0  0  0  0  0  0  0  0
  117.4714  104.4840  104.4138 C   0  0  0  0  0  0  0  0  0  0  0  0
  121.3960  104.4311  105.9796 C   0  0  0  0  0  0  0  0  0  0  0  0
  125.6365  105.3885  107.5100 C   0  0  0  0  0  0  0  0  0  0  0  0
  124.3022  104.9668  106.9178 C   0  0  0  0  0  0  0  0  0  0  0  0
  118.5006  104.7225  103.5703 N   0  0  0  0  0  0  0  0  0  0  0  0
  126.0925  106.6454  106.9799 N   0  0  0  0  0  0  0  0  0  0  0  0
  123.2457  105.9625  107.1724 N   0  0  0  0  0  0  0  0  0  0  0  0
  122.4794  106.4746  104.7548 O   0  0  0  0  0  0  0  0  0  0  0  0
  120.9060  106.8960  106.6792 O   0  0  0  0  0  0  0  0  0  0  0  0
  121.9599  106.1156  106.0598 S   0  0  0  0  0  0  0  0  0  0  0  0
  115.9188  104.5270  103.6856 Cl  0  0  0  0  0  0  0  0  0  0  0  0
  119.0610  104.0000  107.3428 H   0  0  0  0  0  0  0  0  0  0  0  0
  116.7690  104.0345  106.4106 H   0  0  0  0  0  0  0  0  0  0  0  0
  120.5452  104.8916  103.4112 H   0  0  0  0  0  0  0  0  0  0  0  0
  122.0756  103.8748  105.3279 H   0  0  0  0  0  0  0  0  0  0  0  0
  121.4498  104.0056  106.9857 H   0  0  0  0  0  0  0  0  0  0  0  0
  126.4155  104.6464  107.3081 H   0  0  0  0  0  0  0  0  0  0  0  0
  125.5448  105.5114  108.5936 H   0  0  0  0  0  0  0  0  0  0  0  0
  124.3868  104.8586  105.8321 H   0  0  0  0  0  0  0  0  0  0  0  0
  123.9637  104.0135  107.3362 H   0  0  0  0  0  0  0  0  0  0  0  0
  125.9588  106.8431  106.0011 H   0  0  0  0  0  0  0  0  0  0  0  0
  126.7114  107.2161  107.5335 H   0  0  0  0  0  0  0  0  0  0  0  0
  123.0160  106.0820  108.1676 H   0  0  0  0  0  0  0  0  0  0  0  0
  1  2  1  0  0  0  0
  1  4  2  0  0  0  0
  2  5  2  0  0  0  0
  3  4  1  0  0  0  0
  3  9  2  0  0  0  0
  4  6  1  0  0  0  0
  5  9  1  0  0  0  0
  5 15  1  0  0  0  0
  6 14  1  0  0  0  0
  7  8  1  0  0  0  0
  7 10  1  0  0  0  0
  8 11  1  0  0  0  0
 11 14  1  0  0  0  0
 12 14  2  0  0  0  0
 13 14  2  0  0  0  0
  1 16  1  0  0  0  0
  2 17  1  0  0  0  0
  3 18  1  0  0  0  0
  6 19  1  0  0  0  0
  6 20  1  0  0  0  0
  7 21  1  0  0  0  0
  7 22  1  0  0  0  0
  8 23  1  0  0  0  0
  8 24  1  0  0  0  0
 10 25  1  0  0  0  0
 10 26  1  0  0  0  0
 11 27  1  0  0  0  0
M  END
> <FRED Chemgauss4 score>
-7.437745

$$$$
C86093116	P134836689
  -OEChem-05182014473D

 27 27  0     1  0  0  0  0  0999 V2000
  117.8979  104.5985  102.5592 C   0  0  0  0  0  0  0  0  0  0  0  0
  118.6029  104.7123  103.5243 C   0  0  0  0  0  0  0  0  0  0  0  0
  124.5991  105.0574  106.8117 C   0  0  0  0  0  0  0  0  0  0  0  0
  125.5567  105.9873  106.8842 C   0  0  0  0  0  0  0  0  0  0  0  0
  122.4650  105.6397  105.8377 C   0  0  0  0  0  0  0  0  0  0  0  0
  123.5549  107.0237  107.6312 C   0  0  0  0  0  0  0  0  0  0  0  0
  123.2509  105.6170  107.1109 C   0  0  2  0  0  0  0  0  0  0  0  0
  125.0050  107.3295  107.2318 C   0  0  2  0  0  0  0  0  0  0  0  0
  119.4633  104.8527  104.7093 C   0  0  0  0  0  0  0  0  0  0  0  0
  120.8706  104.3199  104.4599 C   0  0  0  0  0  0  0  0  0  0  0  0
  125.0757  108.2453  106.0981 N   0  0  0  0  0  0  0  0  0  0  0  0
  121.7057  104.5050  105.6249 N   0  0  0  0  0  0  0  0  0  0  0  0
  122.5383  106.6153  105.0998 O   0  0  0  0  0  0  0  0  0  0  0  0
  117.2726  104.4970  101.7031 H   0  0  0  0  0  0  0  0  0  0  0  0
  124.7811  104.0220  106.5600 H   0  0  0  0  0  0  0  0  0  0  0  0
  126.6027  105.7947  106.6914 H   0  0  0  0  0  0  0  0  0  0  0  0
  122.8413  107.7771  107.2762 H   0  0  0  0  0  0  0  0  0  0  0  0
  123.4834  107.0242  108.7277 H   0  0  0  0  0  0  0  0  0  0  0  0
  122.7149  105.0186  107.8532 H   0  0  0  0  0  0  0  0  0  0  0  0
  125.5429  107.7626  108.0822 H   0  0  0  0  0  0  0  0  0  0  0  0
  119.0063  104.3344  105.5608 H   0  0  0  0  0  0  0  0  0  0  0  0
  119.5282  105.9138  104.9771 H   0  0  0  0  0  0  0  0  0  0  0  0
  120.8451  103.2566  104.1971 H   0  0  0  0  0  0  0  0  0  0  0  0
  121.3223  104.8577  103.6200 H   0  0  0  0  0  0  0  0  0  0  0  0
  125.8894  108.2181  105.5216 H   0  0  0  0  0  0  0  0  0  0  0  0
  124.4180  108.9942  106.0569 H   0  0  0  0  0  0  0  0  0  0  0  0
  121.7359  103.7656  106.3205 H   0  0  0  0  0  0  0  0  0  0  0  0
  1  2  3  0  0  0  0
  2  9  1  0  0  0  0
  3  4  2  0  0  0  0
  3  7  1  0  0  0  0
  4  8  1  0  0  0  0
  5  7  1  0  0  0  0
  5 12  1  0  0  0  0
  5 13  2  0  0  0  0
  6  7  1  0  0  0  0
  6  8  1  0  0  0  0
  8 11  1  0  0  0  0
  9 10  1  0  0  0  0
 10 12  1  0  0  0  0
  1 14  1  0  0  0  0
  3 15  1  0  0  0  0
  4 16  1  0  0  0  0
  6 17  1  0  0  0  0
  6 18  1  0  0  0  0
  7 19  1  0  0  0  0
  8 20  1  0  0  0  0
  9 21  1  0  0  0  0
  9 22  1  0  0  0  0
 10 23  1  0  0  0  0
 10 24  1  0  0  0  0
 11 25  1  0  0  0  0
 11 26  1  0  0  0  0
 12 27  1  0  0  0  0
M  END
> <FRED Chemgauss4 score>
-7.437513

$$$$
C01530418	P120022890
  -OEChem-05182014473D

 20 20  0     1  0  0  0  0  0999 V2000
  123.4444  106.9175  106.7081 C   0  0  0  0  0  0  0  0  0  0  0  0
  124.9819  103.5012  107.3946 C   0  0  0  0  0  0  0  0  0  0  0  0
  124.8298  107.4909  106.5805 C   0  0  1  0  0  0  0  0  0  0  0  0
  125.6730  106.3959  107.1927 C   0  0  2  0  0  0  0  0  0  0  0  0
  124.7468  105.8554  108.2641 C   0  0  2  0  0  0  0  0  0  0  0  0
  125.0227  104.4018  108.6071 C   0  0  2  0  0  0  0  0  0  0  0  0
  122.4730  107.2319  106.0385 O   0  0  0  0  0  0  0  0  0  0  0  0
  125.9365  102.8561  106.9734 O   0  0  0  0  0  0  0  0  0  0  0  0
  123.4316  105.9780  107.7046 O   0  0  0  0  0  0  0  0  0  0  0  0
  125.1836  107.7130  105.2380 O   0  0  0  0  0  0  0  0  0  0  0  0
  126.8557  106.9097  107.7774 O   0  0  0  0  0  0  0  0  0  0  0  0
  126.3255  104.3027  109.1557 O   0  0  0  0  0  0  0  0  0  0  0  0
  124.0185  103.4836  106.8554 H   0  0  0  0  0  0  0  0  0  0  0  0
  124.8998  108.4299  107.1398 H   0  0  0  0  0  0  0  0  0  0  0  0
  125.9450  105.6379  106.4475 H   0  0  0  0  0  0  0  0  0  0  0  0
  124.7905  106.4546  109.1828 H   0  0  0  0  0  0  0  0  0  0  0  0
  124.2963  104.0396  109.3405 H   0  0  0  0  0  0  0  0  0  0  0  0
  124.5398  108.3426  104.8629 H   0  0  0  0  0  0  0  0  0  0  0  0
  126.5831  107.5366  108.4690 H   0  0  0  0  0  0  0  0  0  0  0  0
  126.4635  103.3704  109.3940 H   0  0  0  0  0  0  0  0  0  0  0  0
  1  3  1  0  0  0  0
  1  7  2  0  0  0  0
  1  9  1  0  0  0  0
  2  6  1  0  0  0  0
  2  8  2  0  0  0  0
  3  4  1  0  0  0  0
  3 10  1  0  0  0  0
  4  5  1  0  0  0  0
  4 11  1  0  0  0  0
  5  6  1  0  0  0  0
  5  9  1  0  0  0  0
  6 12  1  0  0  0  0
  2 13  1  0  0  0  0
  3 14  1  0  0  0  0
  4 15  1  0  0  0  0
  5 16  1  0  0  0  0
  6 17  1  0  0  0  0
 10 18  1  0  0  0  0
 11 19  1  0  0  0  0
 12 20  1  0  0  0  0
M  END
> <FRED Chemgauss4 score>
-7.436718

$$$$
C40229108	P61083142
  -OEChem-05182014473D

 42 43  0     0  0  0  0  0  0999 V2000
  117.8990  103.0367  104.9070 C   0  0  0  0  0  0  0  0  0  0  0  0
  118.9385  103.9492  104.7271 C   0  0  0  0  0  0  0  0  0  0  0  0
  116.5738  103.4664  104.8372 C   0  0  0  0  0  0  0  0  0  0  0  0
  117.3276  105.7213  104.4077 C   0  0  0  0  0  0  0  0  0  0  0  0
  118.6528  105.2914  104.4775 C   0  0  0  0  0  0  0  0  0  0  0  0
  116.2881  104.8087  104.5876 C   0  0  0  0  0  0  0  0  0  0  0  0
  120.9828  105.8189  103.7328 C   0  0  0  0  0  0  0  0  0  0  0  0
  119.7133  107.4640  105.0403 C   0  0  0  0  0  0  0  0  0  0  0  0
  122.0201  105.7304  104.8554 C   0  0  0  0  0  0  0  0  0  0  0  0
  120.7751  107.3692  106.1454 C   0  0  0  0  0  0  0  0  0  0  0  0
  123.0921  106.9286  106.6544 C   0  0  0  0  0  0  0  0  0  0  0  0
  124.4721  107.1692  106.0703 C   0  0  0  0  0  0  0  0  0  0  0  0
  126.8221  105.8188  108.5585 C   0  0  0  0  0  0  0  0  0  0  0  0
  125.7730  105.7948  107.4636 C   0  0  0  0  0  0  0  0  0  0  0  0
  119.6882  106.2002  104.2988 N   0  0  0  0  0  0  0  0  0  0  0  0
  122.0901  107.0039  105.5923 N   0  0  0  0  0  0  0  0  0  0  0  0
  114.9481  105.2428  104.5154 N   0  0  0  0  0  0  0  0  0  0  0  0
  127.9849  106.4785  108.0728 O   0  0  0  0  0  0  0  0  0  0  0  0
  125.4392  107.1304  107.1120 O   0  0  0  0  0  0  0  0  0  0  0  0
  118.1211  101.9913  105.1014 H   0  0  0  0  0  0  0  0  0  0  0  0
  119.9674  103.6029  104.7838 H   0  0  0  0  0  0  0  0  0  0  0  0
  115.7712  102.7468  104.9780 H   0  0  0  0  0  0  0  0  0  0  0  0
  117.1043  106.7681  104.2135 H   0  0  0  0  0  0  0  0  0  0  0  0
  121.3133  106.5629  103.0046 H   0  0  0  0  0  0  0  0  0  0  0  0
  120.8997  104.8542  103.2253 H   0  0  0  0  0  0  0  0  0  0  0  0
  118.7351  107.6589  105.4817 H   0  0  0  0  0  0  0  0  0  0  0  0
  119.9685  108.2903  104.3771 H   0  0  0  0  0  0  0  0  0  0  0  0
  121.7260  104.9228  105.5315 H   0  0  0  0  0  0  0  0  0  0  0  0
  122.9979  105.4742  104.4343 H   0  0  0  0  0  0  0  0  0  0  0  0
  120.8339  108.3267  106.6803 H   0  0  0  0  0  0  0  0  0  0  0  0
  120.4484  106.6116  106.8679 H   0  0  0  0  0  0  0  0  0  0  0  0
  123.0250  105.9402  107.1198 H   0  0  0  0  0  0  0  0  0  0  0  0
  122.8560  107.6929  107.4010 H   0  0  0  0  0  0  0  0  0  0  0  0
  124.5152  108.1594  105.6061 H   0  0  0  0  0  0  0  0  0  0  0  0
  124.7301  106.4127  105.3221 H   0  0  0  0  0  0  0  0  0  0  0  0
  127.1049  104.8045  108.8561 H   0  0  0  0  0  0  0  0  0  0  0  0
  126.4542  106.3695  109.4292 H   0  0  0  0  0  0  0  0  0  0  0  0
  124.8609  105.2932  107.8019 H   0  0  0  0  0  0  0  0  0  0  0  0
  126.1610  105.2926  106.5726 H   0  0  0  0  0  0  0  0  0  0  0  0
  114.2124  104.5705  104.5979 H   0  0  0  0  0  0  0  0  0  0  0  0
  114.7564  106.1978  104.2893 H   0  0  0  0  0  0  0  0  0  0  0  0
  128.6309  106.4747  108.7971 H   0  0  0  0  0  0  0  0  0  0  0  0
  1  2  2  0  0  0  0
  1  3  1  0  0  0  0
  2  5  1  0  0  0  0
  3  6  2  0  0  0  0
  4  5  2  0  0  0  0
  4  6  1  0  0  0  0
  5 15  1  0  0  0  0
  6 17  1  0  0  0  0
  7  9  1  0  0  0  0
  7 15  1  0  0  0  0
  8 10  1  0  0  0  0
  8 15  1  0  0  0  0
  9 16  1  0  0  0  0
 10 16  1  0  0  0  0
 11 12  1  0  0  0  0
 11 16  1  0  0  0  0
 12 19  1  0  0  0  0
 13 14  1  0  0  0  0
 13 18  1  0  0  0  0
 14 19  1  0  0  0  0
  1 20  1  0  0  0  0
  2 21  1  0  0  0  0
  3 22  1  0  0  0  0
  4 23  1  0  0  0  0
  7 24  1  0  0  0  0
  7 25  1  0  0  0  0
  8 26  1  0  0  0  0
  8 27  1  0  0  0  0
  9 28  1  0  0  0  0
  9 29  1  0  0  0  0
 10 30  1  0  0  0  0
 10 31  1  0  0  0  0
 11 32  1  0  0  0  0
 11 33  1  0  0  0  0
 12 34  1  0  0  0  0
 12 35  1  0  0  0  0
 13 36  1  0  0  0  0
 13 37  1  0  0  0  0
 14 38  1  0  0  0  0
 14 39  1  0  0  0  0
 17 40  1  0  0  0  0
 17 41  1  0  0  0  0
 18 42  1  0  0  0  0
M  END
> <FRED Chemgauss4 score>
-7.436674

$$$$
C19264076	P28486446
  -OEChem-05182014473D

 29 29  0     1  0  0  0  0  0999 V2000
  119.3637  104.3039  106.8212 C   0  0  0  0  0  0  0  0  0  0  0  0
  120.2300  105.5216  106.6181 C   0  0  0  0  0  0  0  0  0  0  0  0
  118.9618  103.9655  105.4013 C   0  0  0  0  0  0  0  0  0  0  0  0
  120.9604  105.1627  105.3355 C   0  0  2  0  0  0  0  0  0  0  0  0
  121.4267  106.3708  104.5466 C   0  0  0  0  0  0  0  0  0  0  0  0
  125.6154  106.7077  107.0506 C   0  0  0  0  0  0  0  0  0  0  0  0
  123.4455  106.3827  105.7495 C   0  0  0  0  0  0  0  0  0  0  0  0
  124.5599  107.3457  106.1474 C   0  0  2  0  0  0  0  0  0  0  0  0
  125.1647  106.6466  108.4222 N   0  0  0  0  0  0  0  0  0  0  0  0
  120.0345  104.3939  104.5492 O   0  0  0  0  0  0  0  0  0  0  0  0
  125.1795  107.8391  104.9591 O   0  0  0  0  0  0  0  0  0  0  0  0
  122.3061  107.1365  105.3550 O   0  0  0  0  0  0  0  0  0  0  0  0
  119.9616  103.4886  107.2455 H   0  0  0  0  0  0  0  0  0  0  0  0
  118.5072  104.4770  107.4778 H   0  0  0  0  0  0  0  0  0  0  0  0
  119.5953  106.4047  106.4765 H   0  0  0  0  0  0  0  0  0  0  0  0
  120.9081  105.7166  107.4534 H   0  0  0  0  0  0  0  0  0  0  0  0
  118.7826  102.8961  105.2593 H   0  0  0  0  0  0  0  0  0  0  0  0
  118.0615  104.5134  105.1034 H   0  0  0  0  0  0  0  0  0  0  0  0
  121.8156  104.5125  105.5554 H   0  0  0  0  0  0  0  0  0  0  0  0
  120.5739  106.9933  104.2630 H   0  0  0  0  0  0  0  0  0  0  0  0
  121.9585  106.0555  103.6450 H   0  0  0  0  0  0  0  0  0  0  0  0
  125.8278  105.6872  106.7146 H   0  0  0  0  0  0  0  0  0  0  0  0
  126.5491  107.2777  107.0040 H   0  0  0  0  0  0  0  0  0  0  0  0
  123.1562  105.7464  106.5915 H   0  0  0  0  0  0  0  0  0  0  0  0
  123.7387  105.7582  104.8995 H   0  0  0  0  0  0  0  0  0  0  0  0
  124.1243  108.2136  106.6566 H   0  0  0  0  0  0  0  0  0  0  0  0
  125.8493  106.6052  109.1557 H   0  0  0  0  0  0  0  0  0  0  0  0
  124.1986  106.4427  108.6058 H   0  0  0  0  0  0  0  0  0  0  0  0
  125.8332  108.4952  105.2439 H   0  0  0  0  0  0  0  0  0  0  0  0
  1  2  1  0  0  0  0
  1  3  1  0  0  0  0
  2  4  1  0  0  0  0
  3 10  1  0  0  0  0
  4  5  1  0  0  0  0
  4 10  1  0  0  0  0
  5 12  1  0  0  0  0
  6  8  1  0  0  0  0
  6  9  1  0  0  0  0
  7  8  1  0  0  0  0
  7 12  1  0  0  0  0
  8 11  1  0  0  0  0
  1 13  1  0  0  0  0
  1 14  1  0  0  0  0
  2 15  1  0  0  0  0
  2 16  1  0  0  0  0
  3 17  1  0  0  0  0
  3 18  1  0  0  0  0
  4 19  1  0  0  0  0
  5 20  1  0  0  0  0
  5 21  1  0  0  0  0
  6 22  1  0  0  0  0
  6 23  1  0  0  0  0
  7 24  1  0  0  0  0
  7 25  1  0  0  0  0
  8 26  1  0  0  0  0
  9 27  1  0  0  0  0
  9 28  1  0  0  0  0
 11 29  1  0  0  0  0
M  END
> <FRED Chemgauss4 score>
-7.433440

$$$$
C76956266	P120080704
  -OEChem-05182014473D

 39 40  0     0  0  0  0  0  0999 V2000
  118.0023  104.9658  103.1687 C   0  0  0  0  0  0  0  0  0  0  0  0
  117.0763  105.4001  104.0270 C   0  0  0  0  0  0  0  0  0  0  0  0
  119.0253  103.5854  105.9953 C   0  0  0  0  0  0  0  0  0  0  0  0
  124.7672  107.7374  105.8026 C   0  0  0  0  0  0  0  0  0  0  0  0
  118.5484  103.6323  103.5594 C   0  0  0  0  0  0  0  0  0  0  0  0
  116.8438  104.4315  105.1392 C   0  0  0  0  0  0  0  0  0  0  0  0
  120.5591  106.7172  107.2464 C   0  0  0  0  0  0  0  0  0  0  0  0
  122.0360  104.8753  106.3634 C   0  0  0  0  0  0  0  0  0  0  0  0
  121.0538  107.5988  106.0936 C   0  0  0  0  0  0  0  0  0  0  0  0
  122.4811  105.8305  105.2493 C   0  0  0  0  0  0  0  0  0  0  0  0
  117.9668  103.4051  104.9583 C   0  0  0  0  0  0  0  0  0  0  0  0
  120.6513  105.2265  106.9138 C   0  0  0  0  0  0  0  0  0  0  0  0
  123.4462  107.6577  106.5325 C   0  0  0  0  0  0  0  0  0  0  0  0
  122.3937  107.2524  105.6038 N   0  0  0  0  0  0  0  0  0  0  0  0
  125.8387  107.4729  106.6284 N   0  0  0  0  0  0  0  0  0  0  0  0
  119.6074  104.8384  105.9926 N   0  0  0  0  0  0  0  0  0  0  0  0
  119.2978  102.6577  106.7482 O   0  0  0  0  0  0  0  0  0  0  0  0
  124.8735  107.9660  104.6008 O   0  0  0  0  0  0  0  0  0  0  0  0
  118.3067  105.5017  102.2813 H   0  0  0  0  0  0  0  0  0  0  0  0
  116.5381  106.3309  103.9204 H   0  0  0  0  0  0  0  0  0  0  0  0
  118.1978  102.8717  102.8535 H   0  0  0  0  0  0  0  0  0  0  0  0
  119.6432  103.6387  103.5525 H   0  0  0  0  0  0  0  0  0  0  0  0
  116.8816  104.9326  106.1117 H   0  0  0  0  0  0  0  0  0  0  0  0
  115.8580  103.9686  105.0219 H   0  0  0  0  0  0  0  0  0  0  0  0
  121.1677  106.9229  108.1369 H   0  0  0  0  0  0  0  0  0  0  0  0
  119.5275  106.9925  107.4976 H   0  0  0  0  0  0  0  0  0  0  0  0
  122.0498  103.8449  105.9855 H   0  0  0  0  0  0  0  0  0  0  0  0
  122.7674  104.9203  107.1823 H   0  0  0  0  0  0  0  0  0  0  0  0
  120.3158  107.5700  105.2629 H   0  0  0  0  0  0  0  0  0  0  0  0
  121.0527  108.6497  106.4497 H   0  0  0  0  0  0  0  0  0  0  0  0
  123.5309  105.5797  104.9909 H   0  0  0  0  0  0  0  0  0  0  0  0
  121.8953  105.6219  104.3277 H   0  0  0  0  0  0  0  0  0  0  0  0
  117.5840  102.3807  105.0617 H   0  0  0  0  0  0  0  0  0  0  0  0
  120.4642  104.6406  107.8260 H   0  0  0  0  0  0  0  0  0  0  0  0
  123.1723  108.6297  106.9515 H   0  0  0  0  0  0  0  0  0  0  0  0
  123.5135  106.9130  107.3302 H   0  0  0  0  0  0  0  0  0  0  0  0
  125.6993  107.2540  107.6093 H   0  0  0  0  0  0  0  0  0  0  0  0
  126.7975  107.4843  106.2956 H   0  0  0  0  0  0  0  0  0  0  0  0
  119.2864  105.5192  105.3110 H   0  0  0  0  0  0  0  0  0  0  0  0
  1  2  2  0  0  0  0
  1  5  1  0  0  0  0
  2  6  1  0  0  0  0
  3 11  1  0  0  0  0
  3 16  1  0  0  0  0
  3 17  2  0  0  0  0
  4 13  1  0  0  0  0
  4 15  1  0  0  0  0
  4 18  2  0  0  0  0
  5 11  1  0  0  0  0
  6 11  1  0  0  0  0
  7  9  1  0  0  0  0
  7 12  1  0  0  0  0
  8 10  1  0  0  0  0
  8 12  1  0  0  0  0
  9 14  1  0  0  0  0
 10 14  1  0  0  0  0
 12 16  1  0  0  0  0
 13 14  1  0  0  0  0
  1 19  1  0  0  0  0
  2 20  1  0  0  0  0
  5 21  1  0  0  0  0
  5 22  1  0  0  0  0
  6 23  1  0  0  0  0
  6 24  1  0  0  0  0
  7 25  1  0  0  0  0
  7 26  1  0  0  0  0
  8 27  1  0  0  0  0
  8 28  1  0  0  0  0
  9 29  1  0  0  0  0
  9 30  1  0  0  0  0
 10 31  1  0  0  0  0
 10 32  1  0  0  0  0
 11 33  1  0  0  0  0
 12 34  1  0  0  0  0
 13 35  1  0  0  0  0
 13 36  1  0  0  0  0
 15 37  1  0  0  0  0
 15 38  1  0  0  0  0
 16 39  1  0  0  0  0
M  END
> <FRED Chemgauss4 score>
-7.428185

$$$$
L-Methionine	P10000023
  -OEChem-05182014473D

 20 19  0     1  0  0  0  0  0999 V2000
  124.7190  107.4386  106.0538 C   0  0  0  0  0  0  0  0  0  0  0  0
  122.7899  104.3120  109.5124 C   0  0  0  0  0  0  0  0  0  0  0  0
  124.9214  105.0285  107.0077 C   0  0  0  0  0  0  0  0  0  0  0  0
  123.4008  104.8890  106.9028 C   0  0  0  0  0  0  0  0  0  0  0  0
  125.4142  106.4831  107.0394 C   0  0  2  0  0  0  0  0  0  0  0  0
  125.3843  106.9383  108.4652 N   0  3  0  0  0  0  0  0  0  0  0  0
  123.4765  107.5937  106.2214 O   0  5  0  0  0  0  0  0  0  0  0  0
  125.4806  107.9808  105.2026 O   0  0  0  0  0  0  0  0  0  0  0  0
  122.5893  105.6657  108.3323 S   0  0  0  0  0  0  0  0  0  0  0  0
  122.3511  104.5891  110.4741 H   0  0  0  0  0  0  0  0  0  0  0  0
  123.8521  104.0975  109.6539 H   0  0  0  0  0  0  0  0  0  0  0  0
  122.2911  103.4153  109.1369 H   0  0  0  0  0  0  0  0  0  0  0  0
  125.3933  104.5150  106.1588 H   0  0  0  0  0  0  0  0  0  0  0  0
  125.2779  104.5160  107.9109 H   0  0  0  0  0  0  0  0  0  0  0  0
  123.1023  103.8370  106.8839 H   0  0  0  0  0  0  0  0  0  0  0  0
  123.0208  105.3666  105.9952 H   0  0  0  0  0  0  0  0  0  0  0  0
  126.4762  106.4892  106.7638 H   0  0  0  0  0  0  0  0  0  0  0  0
  126.1086  106.4613  109.0037 H   0  0  0  0  0  0  0  0  0  0  0  0
  124.4761  106.7307  108.8829 H   0  0  0  0  0  0  0  0  0  0  0  0
  125.5465  107.9448  108.5183 H   0  0  0  0  0  0  0  0  0  0  0  0
  1  5  1  0  0  0  0
  1  7  1  0  0  0  0
  1  8  2  0  0  0  0
  2  9  1  0  0  0  0
  3  4  1  0  0  0  0
  3  5  1  0  0  0  0
  4  9  1  0  0  0  0
  5  6  1  0  0  0  0
  2 10  1  0  0  0  0
  2 11  1  0  0  0  0
  2 12  1  0  0  0  0
  3 13  1  0  0  0  0
  3 14  1  0  0  0  0
  4 15  1  0  0  0  0
  4 16  1  0  0  0  0
  5 17  1  0  0  0  0
  6 18  1  0  0  0  0
  6 19  1  0  0  0  0
  6 20  1  0  0  0  0
M  CHG  2   6   1   7  -1
M  END
> <FRED Chemgauss4 score>
-7.424991

$$$$
C89646623	P140145016
  -OEChem-05182014473D

 37 38  0     0  0  0  0  0  0999 V2000
  122.1751  106.1997  106.7464 C   0  0  0  0  0  0  0  0  0  0  0  0
  121.0885  105.5295  107.2047 C   0  0  0  0  0  0  0  0  0  0  0  0
  122.0315  107.1749  105.6266 C   0  0  0  0  0  0  0  0  0  0  0  0
  119.6185  106.6554  105.5679 C   0  0  0  0  0  0  0  0  0  0  0  0
  123.9792  106.3061  108.4994 C   0  0  0  0  0  0  0  0  0  0  0  0
  124.6666  105.8981  106.5421 C   0  0  0  0  0  0  0  0  0  0  0  0
  125.3464  105.8638  107.9296 C   0  0  0  0  0  0  0  0  0  0  0  0
  125.8036  104.4848  108.3864 C   0  0  0  0  0  0  0  0  0  0  0  0
  117.1919  103.5227  104.1593 C   0  0  0  0  0  0  0  0  0  0  0  0
  118.6771  105.0130  107.1441 C   0  0  0  0  0  0  0  0  0  0  0  0
  118.3201  103.8897  106.1879 C   0  0  0  0  0  0  0  0  0  0  0  0
  120.7556  107.3192  105.1296 N   0  0  0  0  0  0  0  0  0  0  0  0
  123.4532  106.0747  107.2211 N   0  0  0  0  0  0  0  0  0  0  0  0
  119.8273  105.7547  106.6230 N   0  0  0  0  0  0  0  0  0  0  0  0
  121.2416  104.6315  108.2435 N   0  0  0  0  0  0  0  0  0  0  0  0
  122.9955  107.7998  105.1889 O   0  0  0  0  0  0  0  0  0  0  0  0
  118.5248  106.8730  105.0400 O   0  0  0  0  0  0  0  0  0  0  0  0
  126.4145  106.8160  108.1144 O   0  0  0  0  0  0  0  0  0  0  0  0
  117.9595  104.4394  104.9271 O   0  0  0  0  0  0  0  0  0  0  0  0
  123.5459  105.6656  109.2726 H   0  0  0  0  0  0  0  0  0  0  0  0
  123.9130  107.3561  108.8012 H   0  0  0  0  0  0  0  0  0  0  0  0
  124.9285  106.7539  105.9120 H   0  0  0  0  0  0  0  0  0  0  0  0
  124.7106  104.9744  105.9584 H   0  0  0  0  0  0  0  0  0  0  0  0
  126.7711  104.2466  107.9438 H   0  0  0  0  0  0  0  0  0  0  0  0
  125.0792  103.7304  108.0787 H   0  0  0  0  0  0  0  0  0  0  0  0
  125.8969  104.4631  109.4724 H   0  0  0  0  0  0  0  0  0  0  0  0
  116.9332  103.9771  103.1998 H   0  0  0  0  0  0  0  0  0  0  0  0
  116.2833  103.2590  104.7065 H   0  0  0  0  0  0  0  0  0  0  0  0
  117.7845  102.6215  103.9851 H   0  0  0  0  0  0  0  0  0  0  0  0
  117.8436  105.7124  107.2636 H   0  0  0  0  0  0  0  0  0  0  0  0
  118.9479  104.6077  108.1237 H   0  0  0  0  0  0  0  0  0  0  0  0
  117.4608  103.3305  106.5709 H   0  0  0  0  0  0  0  0  0  0  0  0
  119.1591  103.2010  106.0448 H   0  0  0  0  0  0  0  0  0  0  0  0
  120.6330  107.9783  104.3660 H   0  0  0  0  0  0  0  0  0  0  0  0
  122.1489  104.5108  108.6171 H   0  0  0  0  0  0  0  0  0  0  0  0
  120.4364  104.1543  108.5615 H   0  0  0  0  0  0  0  0  0  0  0  0
  127.1940  106.4109  107.7153 H   0  0  0  0  0  0  0  0  0  0  0  0
  1  2  2  0  0  0  0
  1  3  1  0  0  0  0
  1 13  1  0  0  0  0
  2 14  1  0  0  0  0
  2 15  1  0  0  0  0
  3 12  1  0  0  0  0
  3 16  2  0  0  0  0
  4 12  1  0  0  0  0
  4 14  1  0  0  0  0
  4 17  2  0  0  0  0
  5  7  1  0  0  0  0
  5 13  1  0  0  0  0
  6  7  1  0  0  0  0
  6 13  1  0  0  0  0
  7  8  1  0  0  0  0
  7 18  1  0  0  0  0
  9 19  1  0  0  0  0
 10 11  1  0  0  0  0
 10 14  1  0  0  0  0
 11 19  1  0  0  0  0
  5 20  1  0  0  0  0
  5 21  1  0  0  0  0
  6 22  1  0  0  0  0
  6 23  1  0  0  0  0
  8 24  1  0  0  0  0
  8 25  1  0  0  0  0
  8 26  1  0  0  0  0
  9 27  1  0  0  0  0
  9 28  1  0  0  0  0
  9 29  1  0  0  0  0
 10 30  1  0  0  0  0
 10 31  1  0  0  0  0
 11 32  1  0  0  0  0
 11 33  1  0  0  0  0
 12 34  1  0  0  0  0
 15 35  1  0  0  0  0
 15 36  1  0  0  0  0
 18 37  1  0  0  0  0
M  END
> <FRED Chemgauss4 score>
-7.422292

$$$$
C70590893	P108886028
  -OEChem-05182014473D

 28 28  0     1  0  0  0  0  0999 V2000
  123.2336  106.5520  105.9409 C   0  0  0  0  0  0  0  0  0  0  0  0
  124.6904  106.9356  106.0126 C   0  0  0  0  0  0  0  0  0  0  0  0
  124.2231  105.1570  107.5727 C   0  0  0  0  0  0  0  0  0  0  0  0
  125.3486  105.7854  106.7708 C   0  0  2  0  0  0  0  0  0  0  0  0
  117.4868  104.0968  105.9974 C   0  0  0  0  0  0  0  0  0  0  0  0
  121.7517  104.9138  107.1528 C   0  0  0  0  0  0  0  0  0  0  0  0
  119.7805  103.6195  106.1801 C   0  0  0  0  0  0  0  0  0  0  0  0
  121.1334  104.2713  105.9111 C   0  0  2  0  0  0  0  0  0  0  0  0
  123.0301  105.5206  106.8493 N   0  0  0  0  0  0  0  0  0  0  0  0
  122.4090  107.0999  105.2240 O   0  0  0  0  0  0  0  0  0  0  0  0
  126.3564  106.2649  107.6426 O   0  0  0  0  0  0  0  0  0  0  0  0
  122.0200  103.2796  105.3916 O   0  0  0  0  0  0  0  0  0  0  0  0
  118.7816  104.6339  106.2240 O   0  0  0  0  0  0  0  0  0  0  0  0
  125.0735  107.0059  104.9860 H   0  0  0  0  0  0  0  0  0  0  0  0
  124.8023  107.8991  106.5252 H   0  0  0  0  0  0  0  0  0  0  0  0
  124.2899  104.0606  107.5772 H   0  0  0  0  0  0  0  0  0  0  0  0
  124.1637  105.5341  108.6022 H   0  0  0  0  0  0  0  0  0  0  0  0
  125.8236  105.0556  106.0850 H   0  0  0  0  0  0  0  0  0  0  0  0
  116.7463  104.8995  106.0377 H   0  0  0  0  0  0  0  0  0  0  0  0
  117.2654  103.3439  106.7580 H   0  0  0  0  0  0  0  0  0  0  0  0
  117.4629  103.6315  105.0091 H   0  0  0  0  0  0  0  0  0  0  0  0
  121.0870  105.6928  107.5412 H   0  0  0  0  0  0  0  0  0  0  0  0
  121.8870  104.1649  107.9400 H   0  0  0  0  0  0  0  0  0  0  0  0
  119.7788  103.1000  107.1433 H   0  0  0  0  0  0  0  0  0  0  0  0
  119.5062  102.9201  105.3839 H   0  0  0  0  0  0  0  0  0  0  0  0
  121.0206  105.0309  105.1284 H   0  0  0  0  0  0  0  0  0  0  0  0
  127.0098  106.7178  107.0872 H   0  0  0  0  0  0  0  0  0  0  0  0
  122.8438  103.7388  105.1696 H   0  0  0  0  0  0  0  0  0  0  0  0
  1  2  1  0  0  0  0
  1  9  1  0  0  0  0
  1 10  2  0  0  0  0
  2  4  1  0  0  0  0
  3  4  1  0  0  0  0
  3  9  1  0  0  0  0
  4 11  1  0  0  0  0
  5 13  1  0  0  0  0
  6  8  1  0  0  0  0
  6  9  1  0  0  0  0
  7  8  1  0  0  0  0
  7 13  1  0  0  0  0
  8 12  1  0  0  0  0
  2 14  1  0  0  0  0
  2 15  1  0  0  0  0
  3 16  1  0  0  0  0
  3 17  1  0  0  0  0
  4 18  1  0  0  0  0
  5 19  1  0  0  0  0
  5 20  1  0  0  0  0
  5 21  1  0  0  0  0
  6 22  1  0  0  0  0
  6 23  1  0  0  0  0
  7 24  1  0  0  0  0
  7 25  1  0  0  0  0
  8 26  1  0  0  0  0
 11 27  1  0  0  0  0
 12 28  1  0  0  0  0
M  END
> <FRED Chemgauss4 score>
-7.422094

$$$$
C52925068	P79325338
  -OEChem-05182014473D

 33 33  0     0  0  0  0  0  0999 V2000
  117.2021  103.8191  106.4495 C   0  0  0  0  0  0  0  0  0  0  0  0
  118.5127  103.9385  105.9875 C   0  0  0  0  0  0  0  0  0  0  0  0
  116.3815  104.0995  104.1944 C   0  0  0  0  0  0  0  0  0  0  0  0
  116.1364  103.8996  105.5529 C   0  0  0  0  0  0  0  0  0  0  0  0
  118.7578  104.1385  104.6289 C   0  0  0  0  0  0  0  0  0  0  0  0
  117.6922  104.2190  103.7324 C   0  0  0  0  0  0  0  0  0  0  0  0
  120.2664  106.9687  104.6917 C   0  0  0  0  0  0  0  0  0  0  0  0
  121.2652  106.8506  105.8284 C   0  0  0  0  0  0  0  0  0  0  0  0
  124.9403  106.9976  105.7304 C   0  0  0  0  0  0  0  0  0  0  0  0
  123.5582  106.8761  106.3427 C   0  0  0  0  0  0  0  0  0  0  0  0
  114.8114  103.7788  106.0209 N   0  0  0  0  0  0  0  0  0  0  0  0
  120.5365  105.9293  103.6880 N   0  0  0  0  0  0  0  0  0  0  0  0
  121.2862  104.0369  105.2669 O   0  0  0  0  0  0  0  0  0  0  0  0
  120.5885  103.4723  102.9177 O   0  0  0  0  0  0  0  0  0  0  0  0
  125.0452  108.2513  105.0665 O   0  0  0  0  0  0  0  0  0  0  0  0
  122.5842  106.9801  105.3133 O   0  0  0  0  0  0  0  0  0  0  0  0
  120.4281  104.2800  104.1171 S   0  0  0  0  0  0  0  0  0  0  0  0
  117.9547  104.4898  101.8719 Br  0  0  0  0  0  0  0  0  0  0  0  0
  117.0223  103.6636  107.5102 H   0  0  0  0  0  0  0  0  0  0  0  0
  119.3334  103.8738  106.6971 H   0  0  0  0  0  0  0  0  0  0  0  0
  115.5440  104.1611  103.5025 H   0  0  0  0  0  0  0  0  0  0  0  0
  119.2401  106.8407  105.0504 H   0  0  0  0  0  0  0  0  0  0  0  0
  120.3568  107.9445  104.2052 H   0  0  0  0  0  0  0  0  0  0  0  0
  121.1818  105.8664  106.2998 H   0  0  0  0  0  0  0  0  0  0  0  0
  121.1057  107.6242  106.5865 H   0  0  0  0  0  0  0  0  0  0  0  0
  125.1169  106.2067  104.9951 H   0  0  0  0  0  0  0  0  0  0  0  0
  125.7085  106.9565  106.5081 H   0  0  0  0  0  0  0  0  0  0  0  0
  123.3755  107.6763  107.0669 H   0  0  0  0  0  0  0  0  0  0  0  0
  123.4394  105.9039  106.8299 H   0  0  0  0  0  0  0  0  0  0  0  0
  114.6515  103.5889  106.9895 H   0  0  0  0  0  0  0  0  0  0  0  0
  114.0588  103.7910  105.3626 H   0  0  0  0  0  0  0  0  0  0  0  0
  120.3784  106.1967  102.7088 H   0  0  0  0  0  0  0  0  0  0  0  0
  125.9383  108.2931  104.6890 H   0  0  0  0  0  0  0  0  0  0  0  0
  1  2  1  0  0  0  0
  1  4  2  0  0  0  0
  2  5  2  0  0  0  0
  3  4  1  0  0  0  0
  3  6  2  0  0  0  0
  4 11  1  0  0  0  0
  5  6  1  0  0  0  0
  5 17  1  0  0  0  0
  6 18  1  0  0  0  0
  7  8  1  0  0  0  0
  7 12  1  0  0  0  0
  8 16  1  0  0  0  0
  9 10  1  0  0  0  0
  9 15  1  0  0  0  0
 10 16  1  0  0  0  0
 12 17  1  0  0  0  0
 13 17  2  0  0  0  0
 14 17  2  0  0  0  0
  1 19  1  0  0  0  0
  2 20  1  0  0  0  0
  3 21  1  0  0  0  0
  7 22  1  0  0  0  0
  7 23  1  0  0  0  0
  8 24  1  0  0  0  0
  8 25  1  0  0  0  0
  9 26  1  0  0  0  0
  9 27  1  0  0  0  0
 10 28  1  0  0  0  0
 10 29  1  0  0  0  0
 11 30  1  0  0  0  0
 11 31  1  0  0  0  0
 12 32  1  0  0  0  0
 15 33  1  0  0  0  0
M  END
> <FRED Chemgauss4 score>
-7.420638

$$$$
C83274984	P130168707
  -OEChem-05182014473D

 27 28  0     1  0  0  0  0  0999 V2000
  122.8431  106.6531  105.4461 C   0  0  0  0  0  0  0  0  0  0  0  0
  124.6037  106.8936  106.7136 C   0  0  0  0  0  0  0  0  0  0  0  0
  121.6397  106.0128  104.8564 C   0  0  0  0  0  0  0  0  0  0  0  0
  121.0877  104.9073  105.7629 C   0  0  0  0  0  0  0  0  0  0  0  0
  122.2125  104.0055  106.2811 C   0  0  0  0  0  0  0  0  0  0  0  0
  123.2329  104.8120  107.0871 C   0  0  0  0  0  0  0  0  0  0  0  0
  125.0692  106.4556  109.1625 C   0  0  0  0  0  0  0  0  0  0  0  0
  125.6329  106.6161  107.7312 C   0  0  1  0  0  0  0  0  0  0  0  0
  123.4140  107.7954  105.1252 N   0  0  0  0  0  0  0  0  0  0  0  0
  124.5292  107.9473  105.9301 N   0  0  0  0  0  0  0  0  0  0  0  0
  123.5709  106.0593  106.4393 N   0  0  0  0  0  0  0  0  0  0  0  0
  126.4349  105.4395  107.4002 N   0  0  0  0  0  0  0  0  0  0  0  0
  126.0895  106.6807  110.1298 O   0  0  0  0  0  0  0  0  0  0  0  0
  120.8718  106.7818  104.7096 H   0  0  0  0  0  0  0  0  0  0  0  0
  121.8776  105.5984  103.8709 H   0  0  0  0  0  0  0  0  0  0  0  0
  120.5472  105.3562  106.6039 H   0  0  0  0  0  0  0  0  0  0  0  0
  120.3652  104.2982  105.2047 H   0  0  0  0  0  0  0  0  0  0  0  0
  121.7803  103.2204  106.9147 H   0  0  0  0  0  0  0  0  0  0  0  0
  122.7136  103.5052  105.4454 H   0  0  0  0  0  0  0  0  0  0  0  0
  122.8391  105.0337  108.0843 H   0  0  0  0  0  0  0  0  0  0  0  0
  124.1676  104.2496  107.1922 H   0  0  0  0  0  0  0  0  0  0  0  0
  124.2778  107.1925  109.3381 H   0  0  0  0  0  0  0  0  0  0  0  0
  124.6576  105.4533  109.3238 H   0  0  0  0  0  0  0  0  0  0  0  0
  126.3868  107.4313  107.7772 H   0  0  0  0  0  0  0  0  0  0  0  0
  126.8953  104.9632  108.1442 H   0  0  0  0  0  0  0  0  0  0  0  0
  126.6570  105.2797  106.4422 H   0  0  0  0  0  0  0  0  0  0  0  0
  125.6767  106.5664  111.0003 H   0  0  0  0  0  0  0  0  0  0  0  0
  1  3  1  0  0  0  0
  1  9  2  0  0  0  0
  1 11  1  0  0  0  0
  2  8  1  0  0  0  0
  2 10  2  0  0  0  0
  2 11  1  0  0  0  0
  3  4  1  0  0  0  0
  4  5  1  0  0  0  0
  5  6  1  0  0  0  0
  6 11  1  0  0  0  0
  7  8  1  0  0  0  0
  7 13  1  0  0  0  0
  8 12  1  0  0  0  0
  9 10  1  0  0  0  0
  3 14  1  0  0  0  0
  3 15  1  0  0  0  0
  4 16  1  0  0  0  0
  4 17  1  0  0  0  0
  5 18  1  0  0  0  0
  5 19  1  0  0  0  0
  6 20  1  0  0  0  0
  6 21  1  0  0  0  0
  7 22  1  0  0  0  0
  7 23  1  0  0  0  0
  8 24  1  0  0  0  0
 12 25  1  0  0  0  0
 12 26  1  0  0  0  0
 13 27  1  0  0  0  0
M  END
> <FRED Chemgauss4 score>
-7.418465

$$$$
C70628573	P108955019
  -OEChem-05182014473D

 29 30  0     1  0  0  0  0  0999 V2000
  119.0555  103.9693  105.9224 C   0  0  0  0  0  0  0  0  0  0  0  0
  123.5293  106.7647  105.5982 C   0  0  0  0  0  0  0  0  0  0  0  0
  119.6465  104.5788  104.6750 C   0  0  0  0  0  0  0  0  0  0  0  0
  121.1456  104.3593  104.8616 C   0  0  0  0  0  0  0  0  0  0  0  0
  125.1963  106.6354  107.2965 C   0  0  0  0  0  0  0  0  0  0  0  0
  124.0225  105.7546  107.6777 C   0  0  0  0  0  0  0  0  0  0  0  0
  125.0235  106.8305  105.7940 C   0  0  2  0  0  0  0  0  0  0  0  0
  121.3391  104.3754  106.3730 C   0  0  1  0  0  0  0  0  0  0  0  0
  121.6174  105.7710  106.9154 C   0  0  0  0  0  0  0  0  0  0  0  0
  120.0794  103.8684  106.8585 N   0  0  0  0  0  0  0  0  0  0  0  0
  123.0045  106.1370  106.7277 N   0  0  0  0  0  0  0  0  0  0  0  0
  125.5126  108.1484  105.3728 N   0  0  0  0  0  0  0  0  0  0  0  0
  117.8829  103.6625  106.0723 O   0  0  0  0  0  0  0  0  0  0  0  0
  122.9260  107.1632  104.6127 O   0  0  0  0  0  0  0  0  0  0  0  0
  119.2708  104.0783  103.7793 H   0  0  0  0  0  0  0  0  0  0  0  0
  119.3945  105.6431  104.6453 H   0  0  0  0  0  0  0  0  0  0  0  0
  121.4111  103.3687  104.4699 H   0  0  0  0  0  0  0  0  0  0  0  0
  121.7517  105.0989  104.3299 H   0  0  0  0  0  0  0  0  0  0  0  0
  125.2357  107.5628  107.8708 H   0  0  0  0  0  0  0  0  0  0  0  0
  126.1308  106.0937  107.4786 H   0  0  0  0  0  0  0  0  0  0  0  0
  124.2561  104.6912  107.5856 H   0  0  0  0  0  0  0  0  0  0  0  0
  123.6555  105.9732  108.6847 H   0  0  0  0  0  0  0  0  0  0  0  0
  125.5297  106.0308  105.2376 H   0  0  0  0  0  0  0  0  0  0  0  0
  122.1397  103.7012  106.6842 H   0  0  0  0  0  0  0  0  0  0  0  0
  121.4024  105.8157  107.9873 H   0  0  0  0  0  0  0  0  0  0  0  0
  121.0036  106.5166  106.4014 H   0  0  0  0  0  0  0  0  0  0  0  0
  119.9439  103.5030  107.7959 H   0  0  0  0  0  0  0  0  0  0  0  0
  125.1130  108.5619  104.5565 H   0  0  0  0  0  0  0  0  0  0  0  0
  126.3545  108.4934  105.7844 H   0  0  0  0  0  0  0  0  0  0  0  0
  1  3  1  0  0  0  0
  1 10  1  0  0  0  0
  1 13  2  0  0  0  0
  2  7  1  0  0  0  0
  2 11  1  0  0  0  0
  2 14  2  0  0  0  0
  3  4  1  0  0  0  0
  4  8  1  0  0  0  0
  5  6  1  0  0  0  0
  5  7  1  0  0  0  0
  6 11  1  0  0  0  0
  7 12  1  0  0  0  0
  8  9  1  0  0  0  0
  8 10  1  0  0  0  0
  9 11  1  0  0  0  0
  3 15  1  0  0  0  0
  3 16  1  0  0  0  0
  4 17  1  0  0  0  0
  4 18  1  0  0  0  0
  5 19  1  0  0  0  0
  5 20  1  0  0  0  0
  6 21  1  0  0  0  0
  6 22  1  0  0  0  0
  7 23  1  0  0  0  0
  8 24  1  0  0  0  0
  9 25  1  0  0  0  0
  9 26  1  0  0  0  0
 10 27  1  0  0  0  0
 12 28  1  0  0  0  0
 12 29  1  0  0  0  0
M  END
> <FRED Chemgauss4 score>
-7.417805

$$$$
C35644384	P52904168
  -OEChem-05182014473D

 24 24  0     1  0  0  0  0  0999 V2000
  125.8908  107.0422  106.7548 C   0  0  1  0  0  0  0  0  0  0  0  0
  125.6606  106.0120  107.8642 C   0  0  2  0  0  0  0  0  0  0  0  0
  125.0505  106.6532  105.5383 C   0  0  1  0  0  0  0  0  0  0  0  0
  124.1600  105.8498  108.1553 C   0  0  2  0  0  0  0  0  0  0  0  0
  123.5676  106.4461  105.8912 C   0  0  2  0  0  0  0  0  0  0  0  0
  123.8901  104.7457  109.1740 C   0  0  0  0  0  0  0  0  0  0  0  0
  122.8542  107.6945  106.1652 N   0  0  0  0  0  0  0  0  0  0  0  0
  123.4487  105.4956  106.9597 O   0  0  0  0  0  0  0  0  0  0  0  0
  125.5089  108.3416  107.2077 O   0  0  0  0  0  0  0  0  0  0  0  0
  126.3719  106.4230  109.0250 O   0  0  0  0  0  0  0  0  0  0  0  0
  125.2103  107.6143  104.5030 O   0  0  0  0  0  0  0  0  0  0  0  0
  126.9536  107.1074  106.4933 H   0  0  0  0  0  0  0  0  0  0  0  0
  126.0786  105.0543  107.5302 H   0  0  0  0  0  0  0  0  0  0  0  0
  125.4454  105.7012  105.1571 H   0  0  0  0  0  0  0  0  0  0  0  0
  123.7433  106.7771  108.5699 H   0  0  0  0  0  0  0  0  0  0  0  0
  123.0736  106.0026  105.0269 H   0  0  0  0  0  0  0  0  0  0  0  0
  124.2864  103.7999  108.8077 H   0  0  0  0  0  0  0  0  0  0  0  0
  122.8177  104.6445  109.3338 H   0  0  0  0  0  0  0  0  0  0  0  0
  124.3700  104.9906  110.1203 H   0  0  0  0  0  0  0  0  0  0  0  0
  122.0190  107.6452  106.7046 H   0  0  0  0  0  0  0  0  0  0  0  0
  123.1099  108.5017  105.6416 H   0  0  0  0  0  0  0  0  0  0  0  0
  125.6751  108.9477  106.4703 H   0  0  0  0  0  0  0  0  0  0  0  0
  127.3093  106.4673  108.7771 H   0  0  0  0  0  0  0  0  0  0  0  0
  126.1537  107.6250  104.2746 H   0  0  0  0  0  0  0  0  0  0  0  0
  1  2  1  0  0  0  0
  1  3  1  0  0  0  0
  1  9  1  0  0  0  0
  2  4  1  0  0  0  0
  2 10  1  0  0  0  0
  3  5  1  0  0  0  0
  3 11  1  0  0  0  0
  4  6  1  0  0  0  0
  4  8  1  0  0  0  0
  5  7  1  0  0  0  0
  5  8  1  0  0  0  0
  1 12  1  0  0  0  0
  2 13  1  0  0  0  0
  3 14  1  0  0  0  0
  4 15  1  0  0  0  0
  5 16  1  0  0  0  0
  6 17  1  0  0  0  0
  6 18  1  0  0  0  0
  6 19  1  0  0  0  0
  7 20  1  0  0  0  0
  7 21  1  0  0  0  0
  9 22  1  0  0  0  0
 10 23  1  0  0  0  0
 11 24  1  0  0  0  0
M  END
> <FRED Chemgauss4 score>
-7.412382

$$$$
C88037226	P137697175
  -OEChem-05182014473D

 26 27  0     1  0  0  0  0  0999 V2000
  120.3356  104.3684  106.4118 C   0  0  0  0  0  0  0  0  0  0  0  0
  119.4616  104.2921  105.3271 C   0  0  0  0  0  0  0  0  0  0  0  0
  121.3536  105.3286  106.3484 C   0  0  0  0  0  0  0  0  0  0  0  0
  119.6416  105.1593  104.2540 C   0  0  0  0  0  0  0  0  0  0  0  0
  121.4177  106.1294  105.2165 C   0  0  0  0  0  0  0  0  0  0  0  0
  123.0156  106.6331  106.6448 C   0  0  0  0  0  0  0  0  0  0  0  0
  118.6953  105.0634  103.0998 C   0  0  0  0  0  0  0  0  0  0  0  0
  125.4576  107.2134  106.3006 C   0  0  0  0  0  0  0  0  0  0  0  0
  124.1922  107.3434  107.1795 C   0  0  2  0  0  0  0  0  0  0  0  0
  122.3562  105.6549  107.2288 N   0  0  0  0  0  0  0  0  0  0  0  0
  120.6083  106.1030  104.1448 N   0  0  0  0  0  0  0  0  0  0  0  0
  122.4854  106.9561  105.4246 N   0  0  0  0  0  0  0  0  0  0  0  0
  124.5378  106.9159  108.5337 N   0  0  0  0  0  0  0  0  0  0  0  0
  125.4126  108.1403  105.2205 O   0  0  0  0  0  0  0  0  0  0  0  0
  120.2263  103.7095  107.2660 H   0  0  0  0  0  0  0  0  0  0  0  0
  118.6572  103.5633  105.3315 H   0  0  0  0  0  0  0  0  0  0  0  0
  117.8372  105.7253  103.2589 H   0  0  0  0  0  0  0  0  0  0  0  0
  119.1876  105.3456  102.1618 H   0  0  0  0  0  0  0  0  0  0  0  0
  118.3294  104.0376  102.9742 H   0  0  0  0  0  0  0  0  0  0  0  0
  126.3508  107.4389  106.8935 H   0  0  0  0  0  0  0  0  0  0  0  0
  125.5580  106.2051  105.8843 H   0  0  0  0  0  0  0  0  0  0  0  0
  123.9907  108.4300  107.2930 H   0  0  0  0  0  0  0  0  0  0  0  0
  122.8195  107.6718  104.7928 H   0  0  0  0  0  0  0  0  0  0  0  0
  123.7938  106.7025  109.1612 H   0  0  0  0  0  0  0  0  0  0  0  0
  125.4766  107.0480  108.8407 H   0  0  0  0  0  0  0  0  0  0  0  0
  126.2271  108.0109  104.7097 H   0  0  0  0  0  0  0  0  0  0  0  0
  1  2  2  0  0  0  0
  1  3  1  0  0  0  0
  2  4  1  0  0  0  0
  3  5  2  0  0  0  0
  3 10  1  0  0  0  0
  4  7  1  0  0  0  0
  4 11  2  0  0  0  0
  5 11  1  0  0  0  0
  5 12  1  0  0  0  0
  6  9  1  0  0  0  0
  6 10  2  0  0  0  0
  6 12  1  0  0  0  0
  8  9  1  0  0  0  0
  8 14  1  0  0  0  0
  9 13  1  0  0  0  0
  1 15  1  0  0  0  0
  2 16  1  0  0  0  0
  7 17  1  0  0  0  0
  7 18  1  0  0  0  0
  7 19  1  0  0  0  0
  8 20  1  0  0  0  0
  8 21  1  0  0  0  0
  9 22  1  0  0  0  0
 12 23  1  0  0  0  0
 13 24  1  0  0  0  0
 13 25  1  0  0  0  0
 14 26  1  0  0  0  0
M  END
> <FRED Chemgauss4 score>
-7.408908

$$$$
C94233960	P147687780
  -OEChem-05182014473D

 43 43  0     1  0  0  0  0  0999 V2000
  123.3515  106.1704  105.5382 C   0  0  0  0  0  0  0  0  0  0  0  0
  117.3691  105.3110  106.2951 C   0  0  0  0  0  0  0  0  0  0  0  0
  118.2682  105.4609  104.0575 C   0  0  0  0  0  0  0  0  0  0  0  0
  118.1499  104.0100  106.5192 C   0  0  0  0  0  0  0  0  0  0  0  0
  119.0472  104.1596  104.2857 C   0  0  0  0  0  0  0  0  0  0  0  0
  122.9203  108.5086  107.5145 C   0  0  0  0  0  0  0  0  0  0  0  0
  125.6912  105.9635  106.4467 C   0  0  0  0  0  0  0  0  0  0  0  0
  116.3099  106.7325  104.6601 C   0  0  0  0  0  0  0  0  0  0  0  0
  124.0621  107.5003  107.6069 C   0  0  0  0  0  0  0  0  0  0  0  0
  120.4453  104.7367  106.1879 C   0  0  0  0  0  0  0  0  0  0  0  0
  121.8079  104.2432  105.7313 C   0  0  0  0  0  0  0  0  0  0  0  0
  124.5017  106.9126  106.2480 C   0  0  2  0  0  0  0  0  0  0  0  0
  117.0491  105.4900  104.8741 N   0  0  0  0  0  0  0  0  0  0  0  0
  119.3593  103.8919  105.6951 N   0  0  0  0  0  0  0  0  0  0  0  0
  124.9194  107.9797  105.3559 N   0  0  0  0  0  0  0  0  0  0  0  0
  122.8792  105.0683  106.2369 N   0  0  0  0  0  0  0  0  0  0  0  0
  122.9035  106.5287  104.4486 O   0  0  0  0  0  0  0  0  0  0  0  0
  116.4556  105.3019  106.9049 H   0  0  0  0  0  0  0  0  0  0  0  0
  117.9864  106.1473  106.6447 H   0  0  0  0  0  0  0  0  0  0  0  0
  118.9170  106.3023  104.3295 H   0  0  0  0  0  0  0  0  0  0  0  0
  118.0285  105.5647  102.9906 H   0  0  0  0  0  0  0  0  0  0  0  0
  118.4058  103.9188  107.5948 H   0  0  0  0  0  0  0  0  0  0  0  0
  117.4724  103.1632  106.2972 H   0  0  0  0  0  0  0  0  0  0  0  0
  118.4428  103.3251  103.8806 H   0  0  0  0  0  0  0  0  0  0  0  0
  119.9775  104.1803  103.6817 H   0  0  0  0  0  0  0  0  0  0  0  0
  122.0583  108.0500  107.0193 H   0  0  0  0  0  0  0  0  0  0  0  0
  123.2084  109.3892  106.9323 H   0  0  0  0  0  0  0  0  0  0  0  0
  122.5955  108.8395  108.5055 H   0  0  0  0  0  0  0  0  0  0  0  0
  126.5308  106.4554  106.9492 H   0  0  0  0  0  0  0  0  0  0  0  0
  125.4055  105.0942  107.0505 H   0  0  0  0  0  0  0  0  0  0  0  0
  126.0594  105.5871  105.4847 H   0  0  0  0  0  0  0  0  0  0  0  0
  116.0780  106.8537  103.5988 H   0  0  0  0  0  0  0  0  0  0  0  0
  116.9052  107.5881  104.9902 H   0  0  0  0  0  0  0  0  0  0  0  0
  115.3741  106.7177  105.2253 H   0  0  0  0  0  0  0  0  0  0  0  0
  124.9090  107.9865  108.1059 H   0  0  0  0  0  0  0  0  0  0  0  0
  123.7412  106.6853  108.2691 H   0  0  0  0  0  0  0  0  0  0  0  0
  120.2517  105.7556  105.8378 H   0  0  0  0  0  0  0  0  0  0  0  0
  120.3889  104.7271  107.2809 H   0  0  0  0  0  0  0  0  0  0  0  0
  121.9850  103.2271  106.0972 H   0  0  0  0  0  0  0  0  0  0  0  0
  121.8845  104.2372  104.6393 H   0  0  0  0  0  0  0  0  0  0  0  0
  124.4076  108.8396  105.3680 H   0  0  0  0  0  0  0  0  0  0  0  0
  125.5635  107.7626  104.6212 H   0  0  0  0  0  0  0  0  0  0  0  0
  123.2899  104.8168  107.1301 H   0  0  0  0  0  0  0  0  0  0  0  0
  1 12  1  0  0  0  0
  1 16  1  0  0  0  0
  1 17  2  0  0  0  0
  2  4  1  0  0  0  0
  2 13  1  0  0  0  0
  3  5  1  0  0  0  0
  3 13  1  0  0  0  0
  4 14  1  0  0  0  0
  5 14  1  0  0  0  0
  6  9  1  0  0  0  0
  7 12  1  0  0  0  0
  8 13  1  0  0  0  0
  9 12  1  0  0  0  0
 10 11  1  0  0  0  0
 10 14  1  0  0  0  0
 11 16  1  0  0  0  0
 12 15  1  0  0  0  0
  2 18  1  0  0  0  0
  2 19  1  0  0  0  0
  3 20  1  0  0  0  0
  3 21  1  0  0  0  0
  4 22  1  0  0  0  0
  4 23  1  0  0  0  0
  5 24  1  0  0  0  0
  5 25  1  0  0  0  0
  6 26  1  0  0  0  0
  6 27  1  0  0  0  0
  6 28  1  0  0  0  0
  7 29  1  0  0  0  0
  7 30  1  0  0  0  0
  7 31  1  0  0  0  0
  8 32  1  0  0  0  0
  8 33  1  0  0  0  0
  8 34  1  0  0  0  0
  9 35  1  0  0  0  0
  9 36  1  0  0  0  0
 10 37  1  0  0  0  0
 10 38  1  0  0  0  0
 11 39  1  0  0  0  0
 11 40  1  0  0  0  0
 15 41  1  0  0  0  0
 15 42  1  0  0  0  0
 16 43  1  0  0  0  0
M  END
> <FRED Chemgauss4 score>
-7.405602

$$$$
C69942987	P107812252
  -OEChem-05182014473D

 24 24  0     1  0  0  0  0  0999 V2000
  123.3592  105.1279  106.7408 C   0  0  0  0  0  0  0  0  0  0  0  0
  122.1171  106.5798  105.3246 C   0  0  0  0  0  0  0  0  0  0  0  0
  122.1899  105.3937  106.0370 C   0  0  0  0  0  0  0  0  0  0  0  0
  124.4053  106.0434  106.7111 C   0  0  0  0  0  0  0  0  0  0  0  0
  124.2334  107.2004  105.9683 C   0  0  0  0  0  0  0  0  0  0  0  0
  121.0522  104.4358  106.0494 C   0  0  0  0  0  0  0  0  0  0  0  0
  125.6209  104.4183  108.2228 C   0  0  0  0  0  0  0  0  0  0  0  0
  125.6574  105.7553  107.4674 C   0  0  1  0  0  0  0  0  0  0  0  0
  123.1123  107.4933  105.2718 N   0  0  0  0  0  0  0  0  0  0  0  0
  125.2973  108.1365  105.9349 N   0  0  0  0  0  0  0  0  0  0  0  0
  126.8358  105.7809  106.6173 N   0  0  0  0  0  0  0  0  0  0  0  0
  123.4541  104.2073  107.3115 H   0  0  0  0  0  0  0  0  0  0  0  0
  121.2297  106.8407  104.7561 H   0  0  0  0  0  0  0  0  0  0  0  0
  120.3675  104.6604  106.8783 H   0  0  0  0  0  0  0  0  0  0  0  0
  120.4817  104.4762  105.1107 H   0  0  0  0  0  0  0  0  0  0  0  0
  121.4002  103.3990  106.1612 H   0  0  0  0  0  0  0  0  0  0  0  0
  125.4430  103.5879  107.5308 H   0  0  0  0  0  0  0  0  0  0  0  0
  126.5666  104.2295  108.7434 H   0  0  0  0  0  0  0  0  0  0  0  0
  124.8285  104.4031  108.9796 H   0  0  0  0  0  0  0  0  0  0  0  0
  125.8390  106.5431  108.2200 H   0  0  0  0  0  0  0  0  0  0  0  0
  126.1119  107.9582  106.4805 H   0  0  0  0  0  0  0  0  0  0  0  0
  125.1681  108.9935  105.4430 H   0  0  0  0  0  0  0  0  0  0  0  0
  127.6487  105.2798  106.9150 H   0  0  0  0  0  0  0  0  0  0  0  0
  126.8733  106.4514  105.8758 H   0  0  0  0  0  0  0  0  0  0  0  0
  1  3  1  0  0  0  0
  1  4  2  0  0  0  0
  2  3  2  0  0  0  0
  2  9  1  0  0  0  0
  3  6  1  0  0  0  0
  4  5  1  0  0  0  0
  4  8  1  0  0  0  0
  5  9  2  0  0  0  0
  5 10  1  0  0  0  0
  7  8  1  0  0  0  0
  8 11  1  0  0  0  0
  1 12  1  0  0  0  0
  2 13  1  0  0  0  0
  6 14  1  0  0  0  0
  6 15  1  0  0  0  0
  6 16  1  0  0  0  0
  7 17  1  0  0  0  0
  7 18  1  0  0  0  0
  7 19  1  0  0  0  0
  8 20  1  0  0  0  0
 10 21  1  0  0  0  0
 10 22  1  0  0  0  0
 11 23  1  0  0  0  0
 11 24  1  0  0  0  0
M  END
> <FRED Chemgauss4 score>
-7.404032

$$$$
C36877036	P54824324
  -OEChem-05182014473D

 30 31  0     1  0  0  0  0  0999 V2000
  118.9490  104.7134  102.4675 C   0  0  0  0  0  0  0  0  0  0  0  0
  119.4303  104.9260  103.7814 C   0  0  0  0  0  0  0  0  0  0  0  0
  121.5820  105.2373  105.9926 C   0  0  0  0  0  0  0  0  0  0  0  0
  119.9500  105.1313  101.6217 C   0  0  0  0  0  0  0  0  0  0  0  0
  121.5733  105.8387  104.7562 C   0  0  0  0  0  0  0  0  0  0  0  0
  120.6912  105.4586  103.6448 C   0  0  0  0  0  0  0  0  0  0  0  0
  123.0650  106.8633  105.8767 C   0  0  0  0  0  0  0  0  0  0  0  0
  126.6818  108.0092  106.7325 C   0  0  0  0  0  0  0  0  0  0  0  0
  125.3551  106.4309  108.1374 C   0  0  0  0  0  0  0  0  0  0  0  0
  124.1654  107.7963  106.3497 C   0  0  1  0  0  0  0  0  0  0  0  0
  125.4734  107.0641  106.7438 C   0  0  0  0  0  0  0  0  0  0  0  0
  122.4989  106.8499  104.6904 N   0  0  0  0  0  0  0  0  0  0  0  0
  122.5429  105.9040  106.6992 N   0  0  0  0  0  0  0  0  0  0  0  0
  124.3906  108.7734  105.3061 N   0  0  0  0  0  0  0  0  0  0  0  0
  121.0155  105.5869  102.3315 O   0  0  0  0  0  0  0  0  0  0  0  0
  117.9924  104.3061  102.1737 H   0  0  0  0  0  0  0  0  0  0  0  0
  118.9142  104.7133  104.7074 H   0  0  0  0  0  0  0  0  0  0  0  0
  121.0149  104.4253  106.4258 H   0  0  0  0  0  0  0  0  0  0  0  0
  120.0542  105.1679  100.5473 H   0  0  0  0  0  0  0  0  0  0  0  0
  126.5383  108.8436  107.4276 H   0  0  0  0  0  0  0  0  0  0  0  0
  127.5929  107.4774  107.0278 H   0  0  0  0  0  0  0  0  0  0  0  0
  126.8594  108.4225  105.7349 H   0  0  0  0  0  0  0  0  0  0  0  0
  125.1555  107.1895  108.9019 H   0  0  0  0  0  0  0  0  0  0  0  0
  126.2819  105.9138  108.4088 H   0  0  0  0  0  0  0  0  0  0  0  0
  124.5490  105.6913  108.1723 H   0  0  0  0  0  0  0  0  0  0  0  0
  123.8142  108.3738  107.2149 H   0  0  0  0  0  0  0  0  0  0  0  0
  125.6721  106.2516  106.0327 H   0  0  0  0  0  0  0  0  0  0  0  0
  122.8151  105.7206  107.6560 H   0  0  0  0  0  0  0  0  0  0  0  0
  125.2612  109.2717  105.2918 H   0  0  0  0  0  0  0  0  0  0  0  0
  123.6106  109.0759  104.7525 H   0  0  0  0  0  0  0  0  0  0  0  0
  1  2  1  0  0  0  0
  1  4  2  0  0  0  0
  2  6  2  0  0  0  0
  3  5  2  0  0  0  0
  3 13  1  0  0  0  0
  4 15  1  0  0  0  0
  5  6  1  0  0  0  0
  5 12  1  0  0  0  0
  6 15  1  0  0  0  0
  7 10  1  0  0  0  0
  7 12  2  0  0  0  0
  7 13  1  0  0  0  0
  8 11  1  0  0  0  0
  9 11  1  0  0  0  0
 10 11  1  0  0  0  0
 10 14  1  0  0  0  0
  1 16  1  0  0  0  0
  2 17  1  0  0  0  0
  3 18  1  0  0  0  0
  4 19  1  0  0  0  0
  8 20  1  0  0  0  0
  8 21  1  0  0  0  0
  8 22  1  0  0  0  0
  9 23  1  0  0  0  0
  9 24  1  0  0  0  0
  9 25  1  0  0  0  0
 10 26  1  0  0  0  0
 11 27  1  0  0  0  0
 13 28  1  0  0  0  0
 14 29  1  0  0  0  0
 14 30  1  0  0  0  0
M  END
> <FRED Chemgauss4 score>
-7.394492

$$$$
C16137473	P24436333
  -OEChem-05182014473D

 27 27  0     1  0  0  0  0  0999 V2000
  119.7752  104.3280  106.0401 C   0  0  0  0  0  0  0  0  0  0  0  0
  124.8441  105.7761  107.9546 C   0  0  0  0  0  0  0  0  0  0  0  0
  125.5216  106.7165  106.9681 C   0  0  1  0  0  0  0  0  0  0  0  0
  124.4881  107.3773  106.0595 C   0  0  2  0  0  0  0  0  0  0  0  0
  123.5467  106.3368  105.4466 C   0  0  1  0  0  0  0  0  0  0  0  0
  122.9929  105.3933  106.5232 C   0  0  1  0  0  0  0  0  0  0  0  0
  119.8903  103.2774  106.9099 N   0  0  0  0  0  0  0  0  0  0  0  0
  120.9379  104.8704  105.5493 N   0  0  0  0  0  0  0  0  0  0  0  0
  122.1761  104.3535  105.8959 N   0  0  0  0  0  0  0  0  0  0  0  0
  124.0618  104.8051  107.2676 O   0  0  0  0  0  0  0  0  0  0  0  0
  126.2279  107.7271  107.6789 O   0  0  0  0  0  0  0  0  0  0  0  0
  125.1599  108.0564  104.9975 O   0  0  0  0  0  0  0  0  0  0  0  0
  122.4626  107.0151  104.8132 O   0  0  0  0  0  0  0  0  0  0  0  0
  118.2790  104.9278  105.5939 S   0  0  0  0  0  0  0  0  0  0  0  0
  125.6003  105.2496  108.5473 H   0  0  0  0  0  0  0  0  0  0  0  0
  124.2189  106.3237  108.6711 H   0  0  0  0  0  0  0  0  0  0  0  0
  126.2479  106.1658  106.3584 H   0  0  0  0  0  0  0  0  0  0  0  0
  123.9206  108.1407  106.6062 H   0  0  0  0  0  0  0  0  0  0  0  0
  124.0863  105.7716  104.6749 H   0  0  0  0  0  0  0  0  0  0  0  0
  122.3412  105.9472  107.2128 H   0  0  0  0  0  0  0  0  0  0  0  0
  120.7968  102.9126  107.1825 H   0  0  0  0  0  0  0  0  0  0  0  0
  119.0723  102.8301  107.3099 H   0  0  0  0  0  0  0  0  0  0  0  0
  120.9124  105.6512  104.9008 H   0  0  0  0  0  0  0  0  0  0  0  0
  122.6271  104.0536  105.0350 H   0  0  0  0  0  0  0  0  0  0  0  0
  126.8859  107.2727  108.2287 H   0  0  0  0  0  0  0  0  0  0  0  0
  125.6649  107.3823  104.5188 H   0  0  0  0  0  0  0  0  0  0  0  0
  122.0174  107.5280  105.5049 H   0  0  0  0  0  0  0  0  0  0  0  0
  1  7  1  0  0  0  0
  1  8  1  0  0  0  0
  1 14  2  0  0  0  0
  2  3  1  0  0  0  0
  2 10  1  0  0  0  0
  3  4  1  0  0  0  0
  3 11  1  0  0  0  0
  4  5  1  0  0  0  0
  4 12  1  0  0  0  0
  5  6  1  0  0  0  0
  5 13  1  0  0  0  0
  6  9  1  0  0  0  0
  6 10  1  0  0  0  0
  8  9  1  0  0  0  0
  2 15  1  0  0  0  0
  2 16  1  0  0  0  0
  3 17  1  0  0  0  0
  4 18  1  0  0  0  0
  5 19  1  0  0  0  0
  6 20  1  0  0  0  0
  7 21  1  0  0  0  0
  7 22  1  0  0  0  0
  8 23  1  0  0  0  0
  9 24  1  0  0  0  0
 11 25  1  0  0  0  0
 12 26  1  0  0  0  0
 13 27  1  0  0  0  0
M  END
> <FRED Chemgauss4 score>
-7.388822

$$$$
C88853175	P138986328
  -OEChem-05182014473D

 35 36  0     1  0  0  0  0  0999 V2000
  119.9871  106.4977  106.2870 C   0  0  0  0  0  0  0  0  0  0  0  0
  118.6836  106.5781  105.7969 C   0  0  0  0  0  0  0  0  0  0  0  0
  118.3552  104.2350  106.2860 C   0  0  0  0  0  0  0  0  0  0  0  0
  120.4747  105.2860  106.7765 C   0  0  0  0  0  0  0  0  0  0  0  0
  119.6588  104.1546  106.7760 C   0  0  0  0  0  0  0  0  0  0  0  0
  117.8677  105.4468  105.7965 C   0  0  0  0  0  0  0  0  0  0  0  0
  124.1553  104.9790  107.2817 C   0  0  0  0  0  0  0  0  0  0  0  0
  124.9523  106.0405  107.1180 C   0  0  0  0  0  0  0  0  0  0  0  0
  123.0810  105.9456  105.3250 C   0  0  0  0  0  0  0  0  0  0  0  0
  122.9165  104.9095  106.4361 C   0  0  2  0  0  0  0  0  0  0  0  0
  117.0038  103.8754  103.1354 C   0  0  0  0  0  0  0  0  0  0  0  0
  120.1326  102.9175  107.2671 N   0  0  0  0  0  0  0  0  0  0  0  0
  121.7713  105.2280  107.2578 N   0  0  0  0  0  0  0  0  0  0  0  0
  116.4397  105.1745  103.5288 N   0  0  0  0  0  0  0  0  0  0  0  0
  125.2774  107.3486  104.8836 O   0  0  0  0  0  0  0  0  0  0  0  0
  123.6095  108.2057  106.5851 O   0  0  0  0  0  0  0  0  0  0  0  0
  115.4366  104.4983  105.8033 O   0  0  0  0  0  0  0  0  0  0  0  0
  115.8033  106.9344  105.2981 O   0  0  0  0  0  0  0  0  0  0  0  0
  124.3023  107.1149  105.9292 S   0  0  0  0  0  0  0  0  0  0  0  0
  116.2358  105.5479  105.1841 S   0  0  0  0  0  0  0  0  0  0  0  0
  120.6138  107.3859  106.2820 H   0  0  0  0  0  0  0  0  0  0  0  0
  118.3142  107.5269  105.4173 H   0  0  0  0  0  0  0  0  0  0  0  0
  117.7183  103.3533  106.2853 H   0  0  0  0  0  0  0  0  0  0  0  0
  124.3868  104.1987  107.9970 H   0  0  0  0  0  0  0  0  0  0  0  0
  125.8715  106.2277  107.6536 H   0  0  0  0  0  0  0  0  0  0  0  0
  123.5079  105.4801  104.4298 H   0  0  0  0  0  0  0  0  0  0  0  0
  122.1663  106.4809  105.0586 H   0  0  0  0  0  0  0  0  0  0  0  0
  122.7849  103.9127  106.0069 H   0  0  0  0  0  0  0  0  0  0  0  0
  116.8088  103.1306  103.9114 H   0  0  0  0  0  0  0  0  0  0  0  0
  118.0845  103.9602  102.9927 H   0  0  0  0  0  0  0  0  0  0  0  0
  116.5524  103.5350  102.1996 H   0  0  0  0  0  0  0  0  0  0  0  0
  119.5103  102.1369  107.2976 H   0  0  0  0  0  0  0  0  0  0  0  0
  121.0492  102.8709  107.6612 H   0  0  0  0  0  0  0  0  0  0  0  0
  121.9296  105.4175  108.2400 H   0  0  0  0  0  0  0  0  0  0  0  0
  116.5718  105.9439  102.8610 H   0  0  0  0  0  0  0  0  0  0  0  0
  1  2  2  0  0  0  0
  1  4  1  0  0  0  0
  2  6  1  0  0  0  0
  3  5  1  0  0  0  0
  3  6  2  0  0  0  0
  4  5  2  0  0  0  0
  4 13  1  0  0  0  0
  5 12  1  0  0  0  0
  6 20  1  0  0  0  0
  7  8  2  0  0  0  0
  7 10  1  0  0  0  0
  8 19  1  0  0  0  0
  9 10  1  0  0  0  0
  9 19  1  0  0  0  0
 10 13  1  0  0  0  0
 11 14  1  0  0  0  0
 14 20  1  0  0  0  0
 15 19  2  0  0  0  0
 16 19  2  0  0  0  0
 17 20  2  0  0  0  0
 18 20  2  0  0  0  0
  1 21  1  0  0  0  0
  2 22  1  0  0  0  0
  3 23  1  0  0  0  0
  7 24  1  0  0  0  0
  8 25  1  0  0  0  0
  9 26  1  0  0  0  0
  9 27  1  0  0  0  0
 10 28  1  0  0  0  0
 11 29  1  0  0  0  0
 11 30  1  0  0  0  0
 11 31  1  0  0  0  0
 12 32  1  0  0  0  0
 12 33  1  0  0  0  0
 13 34  1  0  0  0  0
 14 35  1  0  0  0  0
M  END
> <FRED Chemgauss4 score>
-7.385785

$$$$
C92996988	P145595040
  -OEChem-05182014473D

 39 41  0     1  0  0  0  0  0999 V2000
  126.9490  106.0898  108.1697 C   0  0  0  0  0  0  0  0  0  0  0  0
  125.1922  106.2845  106.9967 C   0  0  0  0  0  0  0  0  0  0  0  0
  124.7665  106.2123  108.3013 C   0  0  0  0  0  0  0  0  0  0  0  0
  121.0787  106.6258  107.7788 C   0  0  0  0  0  0  0  0  0  0  0  0
  118.5543  106.9625  104.7447 C   0  0  0  0  0  0  0  0  0  0  0  0
  124.2639  106.4021  105.8485 C   0  0  0  0  0  0  0  0  0  0  0  0
  123.3583  106.2846  108.7445 C   0  0  0  0  0  0  0  0  0  0  0  0
  116.4170  104.7641  102.4613 C   0  0  0  0  0  0  0  0  0  0  0  0
  117.8877  104.4749  102.5146 C   0  0  0  0  0  0  0  0  0  0  0  0
  122.4574  106.1206  107.4942 C   0  0  2  0  0  0  0  0  0  0  0  0
  117.3812  105.8503  102.8528 C   0  0  0  0  0  0  0  0  0  0  0  0
  118.3194  107.3989  106.1797 C   0  0  0  0  0  0  0  0  0  0  0  0
  118.6841  106.3156  107.1855 C   0  0  0  0  0  0  0  0  0  0  0  0
  126.5546  106.2026  106.9162 N   0  0  0  0  0  0  0  0  0  0  0  0
  125.8956  106.0919  109.0506 N   0  0  0  0  0  0  0  0  0  0  0  0
  122.9451  106.8837  106.3226 N   0  0  0  0  0  0  0  0  0  0  0  0
  120.0858  105.9855  107.0621 N   0  0  0  0  0  0  0  0  0  0  0  0
  117.4290  106.3570  104.2050 N   0  0  0  0  0  0  0  0  0  0  0  0
  120.9223  107.5303  108.5907 O   0  0  0  0  0  0  0  0  0  0  0  0
  119.6171  107.1364  104.1547 O   0  0  0  0  0  0  0  0  0  0  0  0
  127.9721  106.0033  108.5072 H   0  0  0  0  0  0  0  0  0  0  0  0
  124.6560  107.1039  105.1056 H   0  0  0  0  0  0  0  0  0  0  0  0
  124.1451  105.4295  105.3588 H   0  0  0  0  0  0  0  0  0  0  0  0
  123.1344  105.4965  109.4722 H   0  0  0  0  0  0  0  0  0  0  0  0
  123.1793  107.2490  109.2354 H   0  0  0  0  0  0  0  0  0  0  0  0
  115.9492  104.8160  101.4858 H   0  0  0  0  0  0  0  0  0  0  0  0
  115.7912  104.3417  103.2378 H   0  0  0  0  0  0  0  0  0  0  0  0
  118.2517  103.8580  103.3269 H   0  0  0  0  0  0  0  0  0  0  0  0
  118.4070  104.3325  101.5749 H   0  0  0  0  0  0  0  0  0  0  0  0
  122.3683  105.0611  107.2225 H   0  0  0  0  0  0  0  0  0  0  0  0
  117.5606  106.6286  102.1189 H   0  0  0  0  0  0  0  0  0  0  0  0
  118.9136  108.3018  106.3678 H   0  0  0  0  0  0  0  0  0  0  0  0
  117.2626  107.6729  106.2890 H   0  0  0  0  0  0  0  0  0  0  0  0
  118.0839  105.4152  107.0158 H   0  0  0  0  0  0  0  0  0  0  0  0
  118.4807  106.6546  108.2070 H   0  0  0  0  0  0  0  0  0  0  0  0
  125.9542  106.0200  110.0579 H   0  0  0  0  0  0  0  0  0  0  0  0
  123.0330  107.8673  106.5827 H   0  0  0  0  0  0  0  0  0  0  0  0
  120.3538  105.2476  106.4179 H   0  0  0  0  0  0  0  0  0  0  0  0
  116.6012  106.2658  104.7867 H   0  0  0  0  0  0  0  0  0  0  0  0
  1 14  2  0  0  0  0
  1 15  1  0  0  0  0
  2  3  2  0  0  0  0
  2  6  1  0  0  0  0
  2 14  1  0  0  0  0
  3  7  1  0  0  0  0
  3 15  1  0  0  0  0
  4 10  1  0  0  0  0
  4 17  1  0  0  0  0
  4 19  2  0  0  0  0
  5 12  1  0  0  0  0
  5 18  1  0  0  0  0
  5 20  2  0  0  0  0
  6 16  1  0  0  0  0
  7 10  1  0  0  0  0
  8  9  1  0  0  0  0
  8 11  1  0  0  0  0
  9 11  1  0  0  0  0
 10 16  1  0  0  0  0
 11 18  1  0  0  0  0
 12 13  1  0  0  0  0
 13 17  1  0  0  0  0
  1 21  1  0  0  0  0
  6 22  1  0  0  0  0
  6 23  1  0  0  0  0
  7 24  1  0  0  0  0
  7 25  1  0  0  0  0
  8 26  1  0  0  0  0
  8 27  1  0  0  0  0
  9 28  1  0  0  0  0
  9 29  1  0  0  0  0
 10 30  1  0  0  0  0
 11 31  1  0  0  0  0
 12 32  1  0  0  0  0
 12 33  1  0  0  0  0
 13 34  1  0  0  0  0
 13 35  1  0  0  0  0
 15 36  1  0  0  0  0
 16 37  1  0  0  0  0
 17 38  1  0  0  0  0
 18 39  1  0  0  0  0
M  END
> <FRED Chemgauss4 score>
-7.384780

$$$$
C87601468	P137040424
  -OEChem-05182014473D

 22 23  0     1  0  0  0  0  0999 V2000
  125.2681  106.2469  108.8665 C   0  0  0  0  0  0  0  0  0  0  0  0
  125.5233  106.3820  107.5250 C   0  0  0  0  0  0  0  0  0  0  0  0
  124.5237  106.7162  106.4877 C   0  0  0  0  0  0  0  0  0  0  0  0
  122.8206  106.6325  105.2267 C   0  0  0  0  0  0  0  0  0  0  0  0
  120.6509  105.3670  105.5233 C   0  0  0  0  0  0  0  0  0  0  0  0
  121.5339  106.1774  104.5777 C   0  0  2  0  0  0  0  0  0  0  0  0
  124.5906  107.8044  105.6959 N   0  5  0  0  0  0  0  0  0  0  0  0
  126.8515  106.1622  107.2856 N   0  0  0  0  0  0  0  0  0  0  0  0
  123.4399  105.9765  106.2172 N   0  0  0  0  0  0  0  0  0  0  0  0
  123.4880  107.7507  104.8803 N   0  0  0  0  0  0  0  0  0  0  0  0
  127.4362  105.8910  108.4473 N   0  0  0  0  0  0  0  0  0  0  0  0
  126.4851  105.9421  109.3939 N   0  0  0  0  0  0  0  0  0  0  0  0
  121.7584  105.3478  103.3539 N   0  3  0  0  0  0  0  0  0  0  0  0
  124.3766  106.3342  109.4709 H   0  0  0  0  0  0  0  0  0  0  0  0
  121.1658  104.4797  105.9082 H   0  0  0  0  0  0  0  0  0  0  0  0
  120.3434  105.9718  106.3837 H   0  0  0  0  0  0  0  0  0  0  0  0
  119.7426  105.0282  105.0125 H   0  0  0  0  0  0  0  0  0  0  0  0
  120.9663  107.0476  104.2276 H   0  0  0  0  0  0  0  0  0  0  0  0
  126.7379  105.7617  110.3580 H   0  0  0  0  0  0  0  0  0  0  0  0
  120.8673  105.0141  102.9828 H   0  0  0  0  0  0  0  0  0  0  0  0
  122.3420  104.5393  103.5760 H   0  0  0  0  0  0  0  0  0  0  0  0
  122.2261  105.8990  102.6323 H   0  0  0  0  0  0  0  0  0  0  0  0
  1  2  2  0  0  0  0
  1 12  1  0  0  0  0
  2  3  1  0  0  0  0
  2  8  1  0  0  0  0
  3  7  1  0  0  0  0
  3  9  2  0  0  0  0
  4  6  1  0  0  0  0
  4  9  1  0  0  0  0
  4 10  2  0  0  0  0
  5  6  1  0  0  0  0
  6 13  1  0  0  0  0
  7 10  1  0  0  0  0
  8 11  2  0  0  0  0
 11 12  1  0  0  0  0
  1 14  1  0  0  0  0
  5 15  1  0  0  0  0
  5 16  1  0  0  0  0
  5 17  1  0  0  0  0
  6 18  1  0  0  0  0
 12 19  1  0  0  0  0
 13 20  1  0  0  0  0
 13 21  1  0  0  0  0
 13 22  1  0  0  0  0
M  CHG  2   7  -1  13   1
M  END
> <FRED Chemgauss4 score>
-7.384638

$$$$
C03830678	P56795441
  -OEChem-05182014473D

 24 24  0     1  0  0  0  0  0999 V2000
  125.2422  106.0846  108.1663 C   0  0  1  0  0  0  0  0  0  0  0  0
  123.7912  105.5976  108.2534 C   0  0  2  0  0  0  0  0  0  0  0  0
  125.4179  107.1487  107.0811 C   0  0  1  0  0  0  0  0  0  0  0  0
  123.2975  105.1833  106.8588 C   0  0  1  0  0  0  0  0  0  0  0  0
  124.8470  106.6295  105.7595 C   0  0  1  0  0  0  0  0  0  0  0  0
  121.8220  104.8027  106.8369 C   0  0  0  0  0  0  0  0  0  0  0  0
  123.4760  106.2560  105.9218 O   0  0  0  0  0  0  0  0  0  0  0  0
  125.6695  106.5725  109.4319 O   0  0  0  0  0  0  0  0  0  0  0  0
  122.9736  106.6426  108.7803 O   0  0  0  0  0  0  0  0  0  0  0  0
  124.7281  108.3408  107.4612 O   0  0  0  0  0  0  0  0  0  0  0  0
  124.9768  107.6508  104.7751 O   0  0  0  0  0  0  0  0  0  0  0  0
  121.5309  104.0529  108.0028 O   0  0  0  0  0  0  0  0  0  0  0  0
  125.8783  105.2247  107.9202 H   0  0  0  0  0  0  0  0  0  0  0  0
  123.7276  104.7597  108.9575 H   0  0  0  0  0  0  0  0  0  0  0  0
  126.4732  107.4238  106.9753 H   0  0  0  0  0  0  0  0  0  0  0  0
  123.8779  104.3203  106.5072 H   0  0  0  0  0  0  0  0  0  0  0  0
  125.4201  105.7595  105.4153 H   0  0  0  0  0  0  0  0  0  0  0  0
  121.6055  104.1966  105.9565 H   0  0  0  0  0  0  0  0  0  0  0  0
  121.2043  105.7014  106.8242 H   0  0  0  0  0  0  0  0  0  0  0  0
  125.5950  105.8329  110.0560 H   0  0  0  0  0  0  0  0  0  0  0  0
  122.0709  106.2918  108.8172 H   0  0  0  0  0  0  0  0  0  0  0  0
  125.1237  108.6300  108.2969 H   0  0  0  0  0  0  0  0  0  0  0  0
  124.6075  107.2918  103.9532 H   0  0  0  0  0  0  0  0  0  0  0  0
  120.5870  103.8229  107.9654 H   0  0  0  0  0  0  0  0  0  0  0  0
  1  2  1  0  0  0  0
  1  3  1  0  0  0  0
  1  8  1  0  0  0  0
  2  4  1  0  0  0  0
  2  9  1  0  0  0  0
  3  5  1  0  0  0  0
  3 10  1  0  0  0  0
  4  6  1  0  0  0  0
  4  7  1  0  0  0  0
  5  7  1  0  0  0  0
  5 11  1  0  0  0  0
  6 12  1  0  0  0  0
  1 13  1  0  0  0  0
  2 14  1  0  0  0  0
  3 15  1  0  0  0  0
  4 16  1  0  0  0  0
  5 17  1  0  0  0  0
  6 18  1  0  0  0  0
  6 19  1  0  0  0  0
  8 20  1  0  0  0  0
  9 21  1  0  0  0  0
 10 22  1  0  0  0  0
 11 23  1  0  0  0  0
 12 24  1  0  0  0  0
M  END
> <FRED Chemgauss4 score>
-7.382108

$$$$
C88999711	P139200393
  -OEChem-05182014473D

 31 32  0     0  0  0  0  0  0999 V2000
  125.6983  105.7139  106.6773 C   0  0  0  0  0  0  0  0  0  0  0  0
  120.6756  104.4385  101.5619 C   0  0  0  0  0  0  0  0  0  0  0  0
  119.7374  103.7822  102.3308 C   0  0  0  0  0  0  0  0  0  0  0  0
  125.7360  104.9744  107.8946 C   0  0  0  0  0  0  0  0  0  0  0  0
  124.5751  105.1163  108.6225 C   0  0  0  0  0  0  0  0  0  0  0  0
  124.5097  106.3929  106.5211 C   0  0  0  0  0  0  0  0  0  0  0  0
  121.0885  105.4084  103.4851 C   0  0  0  0  0  0  0  0  0  0  0  0
  126.8949  104.1521  108.3173 C   0  0  0  0  0  0  0  0  0  0  0  0
  124.2186  104.5187  109.9289 C   0  0  0  0  0  0  0  0  0  0  0  0
  121.7084  106.3078  104.5249 C   0  0  0  0  0  0  0  0  0  0  0  0
  121.4510  105.3717  102.2220 N   0  0  0  0  0  0  0  0  0  0  0  0
  123.1179  106.4993  104.2130 N   0  5  0  0  0  0  0  0  0  0  0  0
  123.5392  103.1931  109.8194 N   0  3  0  0  0  0  0  0  0  0  0  0
  125.0785  108.1034  104.7097 O   0  0  0  0  0  0  0  0  0  0  0  0
  122.9970  108.3792  105.9779 O   0  0  0  0  0  0  0  0  0  0  0  0
  119.8219  104.3470  103.9479 S   0  0  0  0  0  0  0  0  0  0  0  0
  123.4461  106.1377  107.8387 S   0  0  0  0  0  0  0  0  0  0  0  0
  123.8830  107.4474  105.2624 S   0  0  0  0  0  0  0  0  0  0  0  0
  126.5004  105.7483  105.9508 H   0  0  0  0  0  0  0  0  0  0  0  0
  120.8369  104.2720  100.5053 H   0  0  0  0  0  0  0  0  0  0  0  0
  119.0314  103.0213  102.0298 H   0  0  0  0  0  0  0  0  0  0  0  0
  127.6023  104.7496  108.9110 H   0  0  0  0  0  0  0  0  0  0  0  0
  126.5821  103.2900  108.9266 H   0  0  0  0  0  0  0  0  0  0  0  0
  127.4387  103.7399  107.4530 H   0  0  0  0  0  0  0  0  0  0  0  0
  125.1036  104.3498  110.5647 H   0  0  0  0  0  0  0  0  0  0  0  0
  123.5320  105.1603  110.5060 H   0  0  0  0  0  0  0  0  0  0  0  0
  121.1662  107.2608  104.5589 H   0  0  0  0  0  0  0  0  0  0  0  0
  121.5757  105.8587  105.5167 H   0  0  0  0  0  0  0  0  0  0  0  0
  123.4435  102.9210  108.8389 H   0  0  0  0  0  0  0  0  0  0  0  0
  122.6070  103.2349  110.2367 H   0  0  0  0  0  0  0  0  0  0  0  0
  124.0798  102.4739  110.3044 H   0  0  0  0  0  0  0  0  0  0  0  0
  1  4  1  0  0  0  0
  1  6  2  0  0  0  0
  2  3  2  0  0  0  0
  2 11  1  0  0  0  0
  3 16  1  0  0  0  0
  4  5  2  0  0  0  0
  4  8  1  0  0  0  0
  5  9  1  0  0  0  0
  5 17  1  0  0  0  0
  6 17  1  0  0  0  0
  6 18  1  0  0  0  0
  7 10  1  0  0  0  0
  7 11  2  0  0  0  0
  7 16  1  0  0  0  0
  9 13  1  0  0  0  0
 10 12  1  0  0  0  0
 12 18  1  0  0  0  0
 14 18  2  0  0  0  0
 15 18  2  0  0  0  0
  1 19  1  0  0  0  0
  2 20  1  0  0  0  0
  3 21  1  0  0  0  0
  8 22  1  0  0  0  0
  8 23  1  0  0  0  0
  8 24  1  0  0  0  0
  9 25  1  0  0  0  0
  9 26  1  0  0  0  0
 10 27  1  0  0  0  0
 10 28  1  0  0  0  0
 13 29  1  0  0  0  0
 13 30  1  0  0  0  0
 13 31  1  0  0  0  0
M  CHG  2  12  -1  13   1
M  END
> <FRED Chemgauss4 score>
-7.381705

$$$$
C88984598	P139179454
  -OEChem-05182014473D

 33 34  0     1  0  0  0  0  0999 V2000
  124.3730  105.0857  108.9277 C   0  0  0  0  0  0  0  0  0  0  0  0
  125.7425  105.0486  108.7831 C   0  0  0  0  0  0  0  0  0  0  0  0
  123.7257  105.5949  107.7650 C   0  0  0  0  0  0  0  0  0  0  0  0
  124.6252  105.9277  106.7760 C   0  0  0  0  0  0  0  0  0  0  0  0
  118.4698  103.8625  103.4116 C   0  0  0  0  0  0  0  0  0  0  0  0
  119.9488  104.1272  103.5409 C   0  0  0  0  0  0  0  0  0  0  0  0
  118.1903  103.0367  104.6494 C   0  0  0  0  0  0  0  0  0  0  0  0
  120.0902  104.3290  105.0397 C   0  0  2  0  0  0  0  0  0  0  0  0
  124.3650  106.4845  105.4292 C   0  0  0  0  0  0  0  0  0  0  0  0
  121.4770  104.0121  105.5647 C   0  0  0  0  0  0  0  0  0  0  0  0
  124.6791  107.8920  105.3362 N   0  0  0  0  0  0  0  0  0  0  0  0
  121.5331  104.2339  106.9741 N   0  0  0  0  0  0  0  0  0  0  0  0
  121.4258  105.8741  108.9661 O   0  0  0  0  0  0  0  0  0  0  0  0
  121.7277  106.8198  106.6555 O   0  0  0  0  0  0  0  0  0  0  0  0
  119.1251  103.4583  105.6538 O   0  0  0  0  0  0  0  0  0  0  0  0
  126.2426  105.6260  107.2505 S   0  0  0  0  0  0  0  0  0  0  0  0
  121.9722  105.7705  107.6265 S   0  0  0  0  0  0  0  0  0  0  0  0
  123.8654  104.7610  109.8272 H   0  0  0  0  0  0  0  0  0  0  0  0
  126.4730  104.7098  109.5039 H   0  0  0  0  0  0  0  0  0  0  0  0
  117.9170  104.8082  103.4599 H   0  0  0  0  0  0  0  0  0  0  0  0
  118.1927  103.3517  102.4859 H   0  0  0  0  0  0  0  0  0  0  0  0
  120.5104  103.2462  103.2070 H   0  0  0  0  0  0  0  0  0  0  0  0
  120.2881  104.9903  102.9616 H   0  0  0  0  0  0  0  0  0  0  0  0
  117.1690  103.1659  105.0185 H   0  0  0  0  0  0  0  0  0  0  0  0
  118.3620  101.9715  104.4616 H   0  0  0  0  0  0  0  0  0  0  0  0
  119.8181  105.3560  105.3113 H   0  0  0  0  0  0  0  0  0  0  0  0
  124.9587  105.9705  104.6545 H   0  0  0  0  0  0  0  0  0  0  0  0
  123.3089  106.3729  105.1321 H   0  0  0  0  0  0  0  0  0  0  0  0
  122.2004  104.6587  105.0780 H   0  0  0  0  0  0  0  0  0  0  0  0
  121.7120  102.9720  105.3633 H   0  0  0  0  0  0  0  0  0  0  0  0
  124.1968  108.4519  104.6562 H   0  0  0  0  0  0  0  0  0  0  0  0
  125.5012  108.2362  105.7990 H   0  0  0  0  0  0  0  0  0  0  0  0
  120.9434  103.6292  107.5918 H   0  0  0  0  0  0  0  0  0  0  0  0
  1  2  2  0  0  0  0
  1  3  1  0  0  0  0
  2 16  1  0  0  0  0
  3  4  2  0  0  0  0
  3 17  1  0  0  0  0
  4  9  1  0  0  0  0
  4 16  1  0  0  0  0
  5  6  1  0  0  0  0
  5  7  1  0  0  0  0
  6  8  1  0  0  0  0
  7 15  1  0  0  0  0
  8 10  1  0  0  0  0
  8 15  1  0  0  0  0
  9 11  1  0  0  0  0
 10 12  1  0  0  0  0
 12 17  1  0  0  0  0
 13 17  2  0  0  0  0
 14 17  2  0  0  0  0
  1 18  1  0  0  0  0
  2 19  1  0  0  0  0
  5 20  1  0  0  0  0
  5 21  1  0  0  0  0
  6 22  1  0  0  0  0
  6 23  1  0  0  0  0
  7 24  1  0  0  0  0
  7 25  1  0  0  0  0
  8 26  1  0  0  0  0
  9 27  1  0  0  0  0
  9 28  1  0  0  0  0
 10 29  1  0  0  0  0
 10 30  1  0  0  0  0
 11 31  1  0  0  0  0
 11 32  1  0  0  0  0
 12 33  1  0  0  0  0
M  END
> <FRED Chemgauss4 score>
-7.379663

$$$$
C42029852	P63624183
  -OEChem-05182014473D

 29 29  0     1  0  0  0  0  0999 V2000
  121.8405  105.0863  106.0186 C   0  0  0  0  0  0  0  0  0  0  0  0
  123.4355  106.5361  105.7675 C   0  0  0  0  0  0  0  0  0  0  0  0
  121.1293  103.8609  106.4242 C   0  0  0  0  0  0  0  0  0  0  0  0
  123.8314  104.4847  108.5132 C   0  0  0  0  0  0  0  0  0  0  0  0
  125.2744  107.4345  107.2943 C   0  0  0  0  0  0  0  0  0  0  0  0
  124.0570  104.4433  107.0115 C   0  0  0  0  0  0  0  0  0  0  0  0
  124.1682  107.9502  108.2089 C   0  0  0  0  0  0  0  0  0  0  0  0
  124.8022  107.1824  105.8534 C   0  0  2  0  0  0  0  0  0  0  0  0
  121.3457  106.1063  105.3545 N   0  0  0  0  0  0  0  0  0  0  0  0
  122.3605  107.0287  105.1947 N   0  0  0  0  0  0  0  0  0  0  0  0
  123.1535  105.3144  106.2993 N   0  0  0  0  0  0  0  0  0  0  0  0
  124.8230  108.4152  105.0956 N   0  0  0  0  0  0  0  0  0  0  0  0
  123.6657  109.1686  107.6752 O   0  0  0  0  0  0  0  0  0  0  0  0
  121.2027  103.0807  105.6478 H   0  0  0  0  0  0  0  0  0  0  0  0
  121.5313  103.4372  107.3614 H   0  0  0  0  0  0  0  0  0  0  0  0
  120.0565  104.0450  106.6111 H   0  0  0  0  0  0  0  0  0  0  0  0
  123.9683  105.4977  108.9061 H   0  0  0  0  0  0  0  0  0  0  0  0
  124.5394  103.8228  109.0215 H   0  0  0  0  0  0  0  0  0  0  0  0
  122.8171  104.1615  108.7697 H   0  0  0  0  0  0  0  0  0  0  0  0
  125.6686  106.5002  107.7176 H   0  0  0  0  0  0  0  0  0  0  0  0
  126.1228  108.1311  107.3198 H   0  0  0  0  0  0  0  0  0  0  0  0
  123.9179  103.4262  106.6278 H   0  0  0  0  0  0  0  0  0  0  0  0
  125.0812  104.7461  106.7663 H   0  0  0  0  0  0  0  0  0  0  0  0
  123.3393  107.2392  108.2744 H   0  0  0  0  0  0  0  0  0  0  0  0
  124.5532  108.1449  109.2149 H   0  0  0  0  0  0  0  0  0  0  0  0
  125.5417  106.5376  105.3620 H   0  0  0  0  0  0  0  0  0  0  0  0
  124.2789  108.4735  104.2548 H   0  0  0  0  0  0  0  0  0  0  0  0
  125.5250  109.0998  105.3078 H   0  0  0  0  0  0  0  0  0  0  0  0
  122.9664  109.4701  108.2771 H   0  0  0  0  0  0  0  0  0  0  0  0
  1  3  1  0  0  0  0
  1  9  2  0  0  0  0
  1 11  1  0  0  0  0
  2  8  1  0  0  0  0
  2 10  2  0  0  0  0
  2 11  1  0  0  0  0
  4  6  1  0  0  0  0
  5  7  1  0  0  0  0
  5  8  1  0  0  0  0
  6 11  1  0  0  0  0
  7 13  1  0  0  0  0
  8 12  1  0  0  0  0
  9 10  1  0  0  0  0
  3 14  1  0  0  0  0
  3 15  1  0  0  0  0
  3 16  1  0  0  0  0
  4 17  1  0  0  0  0
  4 18  1  0  0  0  0
  4 19  1  0  0  0  0
  5 20  1  0  0  0  0
  5 21  1  0  0  0  0
  6 22  1  0  0  0  0
  6 23  1  0  0  0  0
  7 24  1  0  0  0  0
  7 25  1  0  0  0  0
  8 26  1  0  0  0  0
 12 27  1  0  0  0  0
 12 28  1  0  0  0  0
 13 29  1  0  0  0  0
M  END
> <FRED Chemgauss4 score>
-7.370432

$$$$
C39343967	P155915743
  -OEChem-05182014473D

 31 32  0     1  0  0  0  0  0999 V2000
  120.5660  104.1629  104.5488 C   0  0  0  0  0  0  0  0  0  0  0  0
  121.4570  104.2339  105.5358 C   0  0  0  0  0  0  0  0  0  0  0  0
  120.4249  105.3739  103.6990 C   0  0  0  0  0  0  0  0  0  0  0  0
  122.0597  106.5015  104.9441 C   0  0  0  0  0  0  0  0  0  0  0  0
  124.4263  106.1597  106.6377 C   0  0  2  0  0  0  0  0  0  0  0  0
  125.3550  105.4902  107.6414 C   0  0  1  0  0  0  0  0  0  0  0  0
  124.9186  104.0248  107.6418 C   0  0  2  0  0  0  0  0  0  0  0  0
  123.1540  105.3462  106.8617 C   0  0  1  0  0  0  0  0  0  0  0  0
  125.7848  103.0607  106.8455 C   0  0  0  0  0  0  0  0  0  0  0  0
  121.1384  106.4484  103.9120 N   0  0  0  0  0  0  0  0  0  0  0  0
  122.2200  105.3649  105.7737 N   0  0  0  0  0  0  0  0  0  0  0  0
  119.5150  105.3419  102.6679 N   0  0  0  0  0  0  0  0  0  0  0  0
  124.9074  106.0742  105.2584 N   0  0  0  0  0  0  0  0  0  0  0  0
  122.7233  107.5230  105.1306 O   0  0  0  0  0  0  0  0  0  0  0  0
  123.5766  103.9969  107.1142 O   0  0  0  0  0  0  0  0  0  0  0  0
  126.7232  105.6998  107.3617 O   0  0  0  0  0  0  0  0  0  0  0  0
  125.2450  101.7543  106.9636 O   0  0  0  0  0  0  0  0  0  0  0  0
  119.9661  103.2837  104.3559 H   0  0  0  0  0  0  0  0  0  0  0  0
  121.6232  103.3957  106.2034 H   0  0  0  0  0  0  0  0  0  0  0  0
  124.2607  107.1665  106.9141 H   0  0  0  0  0  0  0  0  0  0  0  0
  125.1880  105.9477  108.6904 H   0  0  0  0  0  0  0  0  0  0  0  0
  124.8472  103.6667  108.6813 H   0  0  0  0  0  0  0  0  0  0  0  0
  122.6038  105.7141  107.7562 H   0  0  0  0  0  0  0  0  0  0  0  0
  126.8066  103.0590  107.2331 H   0  0  0  0  0  0  0  0  0  0  0  0
  125.7990  103.3449  105.7904 H   0  0  0  0  0  0  0  0  0  0  0  0
  118.9908  104.5110  102.5348 H   0  0  0  0  0  0  0  0  0  0  0  0
  119.4226  106.1509  102.1024 H   0  0  0  0  0  0  0  0  0  0  0  0
  125.8842  106.2062  105.0846 H   0  0  0  0  0  0  0  0  0  0  0  0
  124.2355  106.0910  104.5168 H   0  0  0  0  0  0  0  0  0  0  0  0
  126.8681  106.6588  107.3862 H   0  0  0  0  0  0  0  0  0  0  0  0
  125.8176  101.1637  106.4465 H   0  0  0  0  0  0  0  0  0  0  0  0
  1  2  2  0  0  0  0
  1  3  1  0  0  0  0
  2 11  1  0  0  0  0
  3 10  2  0  0  0  0
  3 12  1  0  0  0  0
  4 10  1  0  0  0  0
  4 11  1  0  0  0  0
  4 14  2  0  0  0  0
  5  6  1  0  0  0  0
  5  8  1  0  0  0  0
  5 13  1  0  0  0  0
  6  7  1  0  0  0  0
  6 16  1  0  0  0  0
  7  9  1  0  0  0  0
  7 15  1  0  0  0  0
  8 11  1  0  0  0  0
  8 15  1  0  0  0  0
  9 17  1  0  0  0  0
  1 18  1  0  0  0  0
  2 19  1  0  0  0  0
  5 20  1  0  0  0  0
  6 21  1  0  0  0  0
  7 22  1  0  0  0  0
  8 23  1  0  0  0  0
  9 24  1  0  0  0  0
  9 25  1  0  0  0  0
 12 26  1  0  0  0  0
 12 27  1  0  0  0  0
 13 28  1  0  0  0  0
 13 29  1  0  0  0  0
 16 30  1  0  0  0  0
 17 31  1  0  0  0  0
M  END
> <FRED Chemgauss4 score>
-7.368022

$$$$
C41066225	P62330552
  -OEChem-05182014473D

 29 29  0     0  0  0  0  0  0999 V2000
  123.1163  104.7996  106.6653 C   0  0  0  0  0  0  0  0  0  0  0  0
  121.6883  105.9618  105.1597 C   0  0  0  0  0  0  0  0  0  0  0  0
  124.0270  105.8451  106.5607 C   0  0  0  0  0  0  0  0  0  0  0  0
  121.9223  104.8514  105.9547 C   0  0  0  0  0  0  0  0  0  0  0  0
  123.6989  106.9110  105.7385 C   0  0  0  0  0  0  0  0  0  0  0  0
  122.1527  109.7793  108.2083 C   0  0  0  0  0  0  0  0  0  0  0  0
  122.5868  111.1860  107.9615 C   0  0  0  0  0  0  0  0  0  0  0  0
  122.9399  107.5696  109.0331 C   0  0  0  0  0  0  0  0  0  0  0  0
  124.1967  106.9137  109.5799 C   0  0  0  0  0  0  0  0  0  0  0  0
  122.5489  106.9967  105.0328 N   0  0  0  0  0  0  0  0  0  0  0  0
  123.1446  108.9587  108.7211 N   0  0  0  0  0  0  0  0  0  0  0  0
  125.2916  106.9895  108.6510 N   0  0  0  0  0  0  0  0  0  0  0  0
  120.9995  109.4498  107.9563 O   0  0  0  0  0  0  0  0  0  0  0  0
  125.5947  104.4784  108.1369 O   0  0  0  0  0  0  0  0  0  0  0  0
  126.6009  106.1586  106.5593 O   0  0  0  0  0  0  0  0  0  0  0  0
  125.5417  105.7645  107.4684 S   0  0  0  0  0  0  0  0  0  0  0  0
  124.7337  108.2684  105.5202 Cl  0  0  0  0  0  0  0  0  0  0  0  0
  120.6615  103.4572  106.0704 Br  0  0  0  0  0  0  0  0  0  0  0  0
  123.3401  103.9462  107.3012 H   0  0  0  0  0  0  0  0  0  0  0  0
  120.7757  106.0639  104.5806 H   0  0  0  0  0  0  0  0  0  0  0  0
  122.9893  111.3298  106.9459 H   0  0  0  0  0  0  0  0  0  0  0  0
  121.7558  111.9041  108.0497 H   0  0  0  0  0  0  0  0  0  0  0  0
  123.3690  111.5636  108.6394 H   0  0  0  0  0  0  0  0  0  0  0  0
  122.1155  107.5137  109.7510 H   0  0  0  0  0  0  0  0  0  0  0  0
  122.6300  107.0749  108.1073 H   0  0  0  0  0  0  0  0  0  0  0  0
  124.5181  107.4166  110.4971 H   0  0  0  0  0  0  0  0  0  0  0  0
  124.0286  105.8555  109.8048 H   0  0  0  0  0  0  0  0  0  0  0  0
  124.0664  109.3601  108.8856 H   0  0  0  0  0  0  0  0  0  0  0  0
  125.6718  107.9336  108.4290 H   0  0  0  0  0  0  0  0  0  0  0  0
  1  3  1  0  0  0  0
  1  4  2  0  0  0  0
  2  4  1  0  0  0  0
  2 10  2  0  0  0  0
  3  5  2  0  0  0  0
  3 16  1  0  0  0  0
  4 18  1  0  0  0  0
  5 10  1  0  0  0  0
  5 17  1  0  0  0  0
  6  7  1  0  0  0  0
  6 11  1  0  0  0  0
  6 13  2  0  0  0  0
  8  9  1  0  0  0  0
  8 11  1  0  0  0  0
  9 12  1  0  0  0  0
 12 16  1  0  0  0  0
 14 16  2  0  0  0  0
 15 16  2  0  0  0  0
  1 19  1  0  0  0  0
  2 20  1  0  0  0  0
  7 21  1  0  0  0  0
  7 22  1  0  0  0  0
  7 23  1  0  0  0  0
  8 24  1  0  0  0  0
  8 25  1  0  0  0  0
  9 26  1  0  0  0  0
  9 27  1  0  0  0  0
 11 28  1  0  0  0  0
 12 29  1  0  0  0  0
M  END
> <FRED Chemgauss4 score>
-7.363946

$$$$
C41050702	P62310475
  -OEChem-05182014473D

 19 19  0     1  0  0  0  0  0999 V2000
  123.6615  106.4816  105.9769 C   0  0  0  0  0  0  0  0  0  0  0  0
  122.3036  104.9530  106.3971 C   0  0  0  0  0  0  0  0  0  0  0  0
  126.0032  106.6939  106.9132 C   0  0  0  0  0  0  0  0  0  0  0  0
  124.9323  107.3032  106.0044 C   0  0  1  0  0  0  0  0  0  0  0  0
  123.5211  105.3351  106.7053 N   0  0  0  0  0  0  0  0  0  0  0  0
  122.6073  106.8330  105.2375 N   0  0  0  0  0  0  0  0  0  0  0  0
  121.7530  105.8389  105.5243 N   0  0  0  0  0  0  0  0  0  0  0  0
  121.5846  103.8840  106.7978 N   0  0  0  0  0  0  0  0  0  0  0  0
  125.4477  107.4962  104.6657 N   0  0  0  0  0  0  0  0  0  0  0  0
  125.6949  106.9972  108.2699 O   0  0  0  0  0  0  0  0  0  0  0  0
  126.0258  105.6031  106.8145 H   0  0  0  0  0  0  0  0  0  0  0  0
  127.0012  107.0872  106.6913 H   0  0  0  0  0  0  0  0  0  0  0  0
  124.7057  108.3140  106.3664 H   0  0  0  0  0  0  0  0  0  0  0  0
  120.8347  105.8339  105.0966 H   0  0  0  0  0  0  0  0  0  0  0  0
  121.9764  103.1606  107.4195 H   0  0  0  0  0  0  0  0  0  0  0  0
  120.6420  103.6870  106.4289 H   0  0  0  0  0  0  0  0  0  0  0  0
  126.4168  107.7285  104.5511 H   0  0  0  0  0  0  0  0  0  0  0  0
  124.7971  107.5955  103.9085 H   0  0  0  0  0  0  0  0  0  0  0  0
  126.3937  106.5954  108.8097 H   0  0  0  0  0  0  0  0  0  0  0  0
  1  4  1  0  0  0  0
  1  5  1  0  0  0  0
  1  6  2  0  0  0  0
  2  5  2  0  0  0  0
  2  7  1  0  0  0  0
  2  8  1  0  0  0  0
  3  4  1  0  0  0  0
  3 10  1  0  0  0  0
  4  9  1  0  0  0  0
  6  7  1  0  0  0  0
  3 11  1  0  0  0  0
  3 12  1  0  0  0  0
  4 13  1  0  0  0  0
  7 14  1  0  0  0  0
  8 15  1  0  0  0  0
  8 16  1  0  0  0  0
  9 17  1  0  0  0  0
  9 18  1  0  0  0  0
 10 19  1  0  0  0  0
M  END
> <FRED Chemgauss4 score>
-7.363517

$$$$
C85275770	P133442969
  -OEChem-05182014473D

 29 30  0     1  0  0  0  0  0999 V2000
  121.0804  104.4168  106.7166 C   0  0  0  0  0  0  0  0  0  0  0  0
  119.4337  103.9543  105.4497 C   0  0  0  0  0  0  0  0  0  0  0  0
  121.2426  105.2039  105.6009 C   0  0  0  0  0  0  0  0  0  0  0  0
  119.6782  104.5702  102.2482 C   0  0  0  0  0  0  0  0  0  0  0  0
  120.9037  105.4246  102.3366 C   0  0  0  0  0  0  0  0  0  0  0  0
  119.8725  105.4791  103.4393 C   0  0  0  0  0  0  0  0  0  0  0  0
  124.1618  107.7476  106.1664 C   0  0  0  0  0  0  0  0  0  0  0  0
  122.3057  106.2130  105.2301 C   0  0  2  0  0  0  0  0  0  0  0  0
  123.3503  106.4583  106.3401 C   0  0  1  0  0  0  0  0  0  0  0  0
  119.9527  103.6410  106.6161 N   0  0  0  0  0  0  0  0  0  0  0  0
  120.1804  104.8963  104.7982 N   0  0  0  0  0  0  0  0  0  0  0  0
  124.2521  105.3240  106.4074 N   0  0  0  0  0  0  0  0  0  0  0  0
  124.5147  107.9651  104.8063 O   0  0  0  0  0  0  0  0  0  0  0  0
  121.6325  107.4405  104.9312 O   0  0  0  0  0  0  0  0  0  0  0  0
  121.7172  104.3674  107.5881 H   0  0  0  0  0  0  0  0  0  0  0  0
  118.5305  103.5347  105.0278 H   0  0  0  0  0  0  0  0  0  0  0  0
  118.9221  104.8447  101.5229 H   0  0  0  0  0  0  0  0  0  0  0  0
  119.7981  103.5027  102.3888 H   0  0  0  0  0  0  0  0  0  0  0  0
  121.8477  104.9321  102.5358 H   0  0  0  0  0  0  0  0  0  0  0  0
  120.9742  106.2770  101.6719 H   0  0  0  0  0  0  0  0  0  0  0  0
  119.2591  106.3500  103.5205 H   0  0  0  0  0  0  0  0  0  0  0  0
  125.0904  107.7012  106.7438 H   0  0  0  0  0  0  0  0  0  0  0  0
  123.6006  108.6204  106.5183 H   0  0  0  0  0  0  0  0  0  0  0  0
  122.8068  105.9041  104.3042 H   0  0  0  0  0  0  0  0  0  0  0  0
  122.8602  106.4842  107.3209 H   0  0  0  0  0  0  0  0  0  0  0  0
  123.8863  104.4100  106.2235 H   0  0  0  0  0  0  0  0  0  0  0  0
  125.1518  105.4522  106.8284 H   0  0  0  0  0  0  0  0  0  0  0  0
  125.0219  108.7922  104.7779 H   0  0  0  0  0  0  0  0  0  0  0  0
  122.3231  108.0766  104.6958 H   0  0  0  0  0  0  0  0  0  0  0  0
  1  3  2  0  0  0  0
  1 10  1  0  0  0  0
  2 10  2  0  0  0  0
  2 11  1  0  0  0  0
  3  8  1  0  0  0  0
  3 11  1  0  0  0  0
  4  5  1  0  0  0  0
  4  6  1  0  0  0  0
  5  6  1  0  0  0  0
  6 11  1  0  0  0  0
  7  9  1  0  0  0  0
  7 13  1  0  0  0  0
  8  9  1  0  0  0  0
  8 14  1  0  0  0  0
  9 12  1  0  0  0  0
  1 15  1  0  0  0  0
  2 16  1  0  0  0  0
  4 17  1  0  0  0  0
  4 18  1  0  0  0  0
  5 19  1  0  0  0  0
  5 20  1  0  0  0  0
  6 21  1  0  0  0  0
  7 22  1  0  0  0  0
  7 23  1  0  0  0  0
  8 24  1  0  0  0  0
  9 25  1  0  0  0  0
 12 26  1  0  0  0  0
 12 27  1  0  0  0  0
 13 28  1  0  0  0  0
 14 29  1  0  0  0  0
M  END
> <FRED Chemgauss4 score>
-7.355651

$$$$
C96551227	P152575900
  -OEChem-05182014473D

 25 25  0     1  0  0  0  0  0999 V2000
  121.4566  105.9769  105.0723 C   0  0  0  0  0  0  0  0  0  0  0  0
  121.6680  105.1779  106.1711 C   0  0  0  0  0  0  0  0  0  0  0  0
  123.3273  106.5978  105.8757 C   0  0  0  0  0  0  0  0  0  0  0  0
  124.6118  107.2818  106.1288 C   0  0  0  0  0  0  0  0  0  0  0  0
  123.5321  105.0332  107.8563 C   0  0  0  0  0  0  0  0  0  0  0  0
  123.0138  107.0528  109.2677 C   0  0  0  0  0  0  0  0  0  0  0  0
  122.9100  105.5345  109.1611 C   0  0  1  0  0  0  0  0  0  0  0  0
  122.4932  106.8584  104.8937 N   0  0  0  0  0  0  0  0  0  0  0  0
  122.8704  105.5870  106.6750 N   0  0  0  0  0  0  0  0  0  0  0  0
  125.2427  107.7588  104.9178 N   0  0  0  0  0  0  0  0  0  0  0  0
  124.3887  107.4213  109.2660 O   0  0  0  0  0  0  0  0  0  0  0  0
  121.5273  105.1741  109.1715 O   0  0  0  0  0  0  0  0  0  0  0  0
  120.6106  105.9622  104.4006 H   0  0  0  0  0  0  0  0  0  0  0  0
  121.0881  104.3836  106.6201 H   0  0  0  0  0  0  0  0  0  0  0  0
  124.4871  108.1573  106.7900 H   0  0  0  0  0  0  0  0  0  0  0  0
  125.3435  106.6236  106.6289 H   0  0  0  0  0  0  0  0  0  0  0  0
  123.4597  103.9419  107.7753 H   0  0  0  0  0  0  0  0  0  0  0  0
  124.5934  105.3026  107.7928 H   0  0  0  0  0  0  0  0  0  0  0  0
  122.5695  107.4153  110.2005 H   0  0  0  0  0  0  0  0  0  0  0  0
  122.5303  107.5424  108.4167 H   0  0  0  0  0  0  0  0  0  0  0  0
  123.3761  105.0599  110.0325 H   0  0  0  0  0  0  0  0  0  0  0  0
  126.2409  107.8614  104.9013 H   0  0  0  0  0  0  0  0  0  0  0  0
  124.6685  108.1655  104.2021 H   0  0  0  0  0  0  0  0  0  0  0  0
  124.4173  108.3887  109.3347 H   0  0  0  0  0  0  0  0  0  0  0  0
  121.1279  105.6036  108.4006 H   0  0  0  0  0  0  0  0  0  0  0  0
  1  2  2  0  0  0  0
  1  8  1  0  0  0  0
  2  9  1  0  0  0  0
  3  4  1  0  0  0  0
  3  8  2  0  0  0  0
  3  9  1  0  0  0  0
  4 10  1  0  0  0  0
  5  7  1  0  0  0  0
  5  9  1  0  0  0  0
  6  7  1  0  0  0  0
  6 11  1  0  0  0  0
  7 12  1  0  0  0  0
  1 13  1  0  0  0  0
  2 14  1  0  0  0  0
  4 15  1  0  0  0  0
  4 16  1  0  0  0  0
  5 17  1  0  0  0  0
  5 18  1  0  0  0  0
  6 19  1  0  0  0  0
  6 20  1  0  0  0  0
  7 21  1  0  0  0  0
 10 22  1  0  0  0  0
 10 23  1  0  0  0  0
 11 24  1  0  0  0  0
 12 25  1  0  0  0  0
M  END
> <FRED Chemgauss4 score>
-7.343488

$$$$
C87588443	P137003148
  -OEChem-05182014473D

 24 24  0     0  0  0  0  0  0999 V2000
  123.4752  105.8400  106.5813 C   0  0  0  0  0  0  0  0  0  0  0  0
  124.7958  107.3309  105.7196 C   0  0  0  0  0  0  0  0  0  0  0  0
  122.9683  104.7436  107.4714 C   0  0  0  0  0  0  0  0  0  0  0  0
  119.4318  104.0537  106.8674 C   0  0  0  0  0  0  0  0  0  0  0  0
  120.8724  104.3428  106.4870 C   0  0  0  0  0  0  0  0  0  0  0  0
  122.8241  106.4249  105.6013 N   0  0  0  0  0  0  0  0  0  0  0  0
  123.6643  107.3735  105.0531 N   0  0  0  0  0  0  0  0  0  0  0  0
  124.7209  106.3794  106.6911 N   0  0  0  0  0  0  0  0  0  0  0  0
  125.9200  108.0647  105.5555 N   0  0  0  0  0  0  0  0  0  0  0  0
  118.7013  103.5348  105.6885 N   0  0  0  0  0  0  0  0  0  0  0  0
  125.7208  106.0180  107.6235 N   0  0  0  0  0  0  0  0  0  0  0  0
  121.5604  104.8741  107.6123 O   0  0  0  0  0  0  0  0  0  0  0  0
  123.1952  103.7590  107.0484 H   0  0  0  0  0  0  0  0  0  0  0  0
  123.4351  104.8004  108.4607 H   0  0  0  0  0  0  0  0  0  0  0  0
  119.3742  103.3047  107.6636 H   0  0  0  0  0  0  0  0  0  0  0  0
  118.9347  104.9697  107.2008 H   0  0  0  0  0  0  0  0  0  0  0  0
  120.9062  105.0890  105.6871 H   0  0  0  0  0  0  0  0  0  0  0  0
  121.3899  103.4376  106.1529 H   0  0  0  0  0  0  0  0  0  0  0  0
  126.0152  108.7553  104.7980 H   0  0  0  0  0  0  0  0  0  0  0  0
  126.7655  107.9010  106.1195 H   0  0  0  0  0  0  0  0  0  0  0  0
  117.7219  103.6603  105.6767 H   0  0  0  0  0  0  0  0  0  0  0  0
  119.1934  102.9231  105.0895 H   0  0  0  0  0  0  0  0  0  0  0  0
  125.3404  105.6915  108.5177 H   0  0  0  0  0  0  0  0  0  0  0  0
  126.3345  106.8009  107.8724 H   0  0  0  0  0  0  0  0  0  0  0  0
  1  3  1  0  0  0  0
  1  6  2  0  0  0  0
  1  8  1  0  0  0  0
  2  7  2  0  0  0  0
  2  8  1  0  0  0  0
  2  9  1  0  0  0  0
  3 12  1  0  0  0  0
  4  5  1  0  0  0  0
  4 10  1  0  0  0  0
  5 12  1  0  0  0  0
  6  7  1  0  0  0  0
  8 11  1  0  0  0  0
  3 13  1  0  0  0  0
  3 14  1  0  0  0  0
  4 15  1  0  0  0  0
  4 16  1  0  0  0  0
  5 17  1  0  0  0  0
  5 18  1  0  0  0  0
  9 19  1  0  0  0  0
  9 20  1  0  0  0  0
 10 21  1  0  0  0  0
 10 22  1  0  0  0  0
 11 23  1  0  0  0  0
 11 24  1  0  0  0  0
M  END
> <FRED Chemgauss4 score>
-7.331459

$$$$
C94230257	P147684548
  -OEChem-05182014473D

 39 38  0     1  0  0  0  0  0999 V2000
  123.1219  107.1497  105.7401 C   0  0  0  0  0  0  0  0  0  0  0  0
  126.6512  105.4748  107.6883 C   0  0  0  0  0  0  0  0  0  0  0  0
  120.8835  106.6607  104.7758 C   0  0  0  0  0  0  0  0  0  0  0  0
  119.9825  104.3564  100.8333 C   0  0  0  0  0  0  0  0  0  0  0  0
  125.7447  103.2550  107.0976 C   0  0  0  0  0  0  0  0  0  0  0  0
  124.0264  106.6264  106.8282 C   0  0  0  0  0  0  0  0  0  0  0  0
  119.8668  105.2944  102.0248 C   0  0  0  0  0  0  0  0  0  0  0  0
  118.7277  104.8756  102.9570 C   0  0  0  0  0  0  0  0  0  0  0  0
  118.6255  105.7633  104.1929 C   0  0  0  0  0  0  0  0  0  0  0  0
  125.3450  104.6476  107.5926 C   0  0  1  0  0  0  0  0  0  0  0  0
  124.5740  104.5511  108.9034 C   0  0  0  0  0  0  0  0  0  0  0  0
  121.9313  106.4233  105.6780 N   0  0  0  0  0  0  0  0  0  0  0  0
  119.8397  105.7595  104.9762 N   0  0  0  0  0  0  0  0  0  0  0  0
  124.4054  105.2137  106.5860 N   0  3  0  0  0  0  0  0  0  0  0  0
  127.2435  105.4121  108.8052 O   0  5  0  0  0  0  0  0  0  0  0  0
  123.4182  108.0957  105.0157 O   0  0  0  0  0  0  0  0  0  0  0  0
  126.9846  106.1143  106.6516 O   0  0  0  0  0  0  0  0  0  0  0  0
  120.8865  107.5459  103.9220 O   0  0  0  0  0  0  0  0  0  0  0  0
  124.2099  105.7726  109.3541 F   0  0  0  0  0  0  0  0  0  0  0  0
  123.4439  103.8208  108.7588 F   0  0  0  0  0  0  0  0  0  0  0  0
  125.3085  103.9589  109.8717 F   0  0  0  0  0  0  0  0  0  0  0  0
  119.0492  104.3318  100.2616 H   0  0  0  0  0  0  0  0  0  0  0  0
  120.7820  104.6903  100.1645 H   0  0  0  0  0  0  0  0  0  0  0  0
  120.2144  103.3369  101.1573 H   0  0  0  0  0  0  0  0  0  0  0  0
  124.8722  102.5984  107.0006 H   0  0  0  0  0  0  0  0  0  0  0  0
  126.2359  103.2933  106.1183 H   0  0  0  0  0  0  0  0  0  0  0  0
  126.4436  102.7763  107.7934 H   0  0  0  0  0  0  0  0  0  0  0  0
  124.9536  107.2050  106.8641 H   0  0  0  0  0  0  0  0  0  0  0  0
  123.5185  106.6598  107.7960 H   0  0  0  0  0  0  0  0  0  0  0  0
  120.8155  105.2956  102.5740 H   0  0  0  0  0  0  0  0  0  0  0  0
  119.7019  106.3140  101.6587 H   0  0  0  0  0  0  0  0  0  0  0  0
  117.7781  104.8934  102.4079 H   0  0  0  0  0  0  0  0  0  0  0  0
  118.8927  103.8416  103.2832 H   0  0  0  0  0  0  0  0  0  0  0  0
  117.8051  105.4453  104.8439 H   0  0  0  0  0  0  0  0  0  0  0  0
  118.4412  106.8002  103.8944 H   0  0  0  0  0  0  0  0  0  0  0  0
  121.8061  105.6583  106.3357 H   0  0  0  0  0  0  0  0  0  0  0  0
  119.9373  105.0648  105.7099 H   0  0  0  0  0  0  0  0  0  0  0  0
  123.5552  104.6318  106.5589 H   0  0  0  0  0  0  0  0  0  0  0  0
  124.8284  105.1293  105.6499 H   0  0  0  0  0  0  0  0  0  0  0  0
  1  6  1  0  0  0  0
  1 12  1  0  0  0  0
  1 16  2  0  0  0  0
  2 10  1  0  0  0  0
  2 15  1  0  0  0  0
  2 17  2  0  0  0  0
  3 12  1  0  0  0  0
  3 13  1  0  0  0  0
  3 18  2  0  0  0  0
  4  7  1  0  0  0  0
  5 10  1  0  0  0  0
  6 14  1  0  0  0  0
  7  8  1  0  0  0  0
  8  9  1  0  0  0  0
  9 13  1  0  0  0  0
 10 11  1  0  0  0  0
 10 14  1  0  0  0  0
 11 19  1  0  0  0  0
 11 20  1  0  0  0  0
 11 21  1  0  0  0  0
  4 22  1  0  0  0  0
  4 23  1  0  0  0  0
  4 24  1  0  0  0  0
  5 25  1  0  0  0  0
  5 26  1  0  0  0  0
  5 27  1  0  0  0  0
  6 28  1  0  0  0  0
  6 29  1  0  0  0  0
  7 30  1  0  0  0  0
  7 31  1  0  0  0  0
  8 32  1  0  0  0  0
  8 33  1  0  0  0  0
  9 34  1  0  0  0  0
  9 35  1  0  0  0  0
 12 36  1  0  0  0  0
 13 37  1  0  0  0  0
 14 38  1  0  0  0  0
 14 39  1  0  0  0  0
M  CHG  2  14   1  15  -1
M  END
> <FRED Chemgauss4 score>
-7.330244

$$$$
C05749668	P112644024
  -OEChem-05182014473D

 36 37  0     1  0  0  0  0  0999 V2000
  122.1013  106.0570  104.2412 C   0  0  0  0  0  0  0  0  0  0  0  0
  119.6095  106.3031  105.4712 C   0  0  0  0  0  0  0  0  0  0  0  0
  120.9572  105.5825  103.6000 C   0  0  0  0  0  0  0  0  0  0  0  0
  121.9996  106.6546  105.4976 C   0  0  0  0  0  0  0  0  0  0  0  0
  119.7112  105.7055  104.2149 C   0  0  0  0  0  0  0  0  0  0  0  0
  120.7537  106.7777  106.1125 C   0  0  0  0  0  0  0  0  0  0  0  0
  125.4082  103.8552  107.3186 C   0  0  0  0  0  0  0  0  0  0  0  0
  125.1964  103.8400  108.8303 C   0  0  0  0  0  0  0  0  0  0  0  0
  125.2760  105.2650  106.7545 C   0  0  0  0  0  0  0  0  0  0  0  0
  123.7507  105.8940  108.6018 C   0  0  0  0  0  0  0  0  0  0  0  0
  123.8541  104.4857  109.1991 C   0  0  2  0  0  0  0  0  0  0  0  0
  121.1084  104.9501  102.2544 C   0  0  0  0  0  0  0  0  0  0  0  0
  123.6738  104.5278  110.7147 C   0  0  0  0  0  0  0  0  0  0  0  0
  123.9439  105.8272  107.1221 N   0  0  1  0  0  0  0  0  0  0  0  0
  124.4496  107.4857  105.2146 O   0  0  0  0  0  0  0  0  0  0  0  0
  123.1216  108.2670  107.2080 O   0  0  0  0  0  0  0  0  0  0  0  0
  123.4818  107.2351  106.2602 S   0  0  0  0  0  0  0  0  0  0  0  0
  118.2739  105.1297  103.4519 Cl  0  0  0  0  0  0  0  0  0  0  0  0
  120.5736  107.5107  107.6659 Cl  0  0  0  0  0  0  0  0  0  0  0  0
  123.0713  105.9607  103.7589 H   0  0  0  0  0  0  0  0  0  0  0  0
  118.6371  106.3988  105.9503 H   0  0  0  0  0  0  0  0  0  0  0  0
  126.3983  103.4515  107.0796 H   0  0  0  0  0  0  0  0  0  0  0  0
  124.6681  103.1988  106.8438 H   0  0  0  0  0  0  0  0  0  0  0  0
  125.2298  102.8060  109.1932 H   0  0  0  0  0  0  0  0  0  0  0  0
  126.0195  104.3775  109.3182 H   0  0  0  0  0  0  0  0  0  0  0  0
  126.0702  105.9138  107.1415 H   0  0  0  0  0  0  0  0  0  0  0  0
  125.3653  105.2218  105.6636 H   0  0  0  0  0  0  0  0  0  0  0  0
  122.7570  106.3050  108.8148 H   0  0  0  0  0  0  0  0  0  0  0  0
  124.5004  106.5648  109.0387 H   0  0  0  0  0  0  0  0  0  0  0  0
  123.0496  103.8683  108.7767 H   0  0  0  0  0  0  0  0  0  0  0  0
  121.2774  103.8725  102.3590 H   0  0  0  0  0  0  0  0  0  0  0  0
  120.2128  105.1065  101.6411 H   0  0  0  0  0  0  0  0  0  0  0  0
  121.9522  105.3856  101.7055 H   0  0  0  0  0  0  0  0  0  0  0  0
  124.4589  105.1343  111.1635 H   0  0  0  0  0  0  0  0  0  0  0  0
  123.7266  103.5190  111.1212 H   0  0  0  0  0  0  0  0  0  0  0  0
  122.7050  104.9606  110.9597 H   0  0  0  0  0  0  0  0  0  0  0  0
  1  3  1  0  0  0  0
  1  4  2  0  0  0  0
  2  5  1  0  0  0  0
  2  6  2  0  0  0  0
  3  5  2  0  0  0  0
  3 12  1  0  0  0  0
  4  6  1  0  0  0  0
  4 17  1  0  0  0  0
  5 18  1  0  0  0  0
  6 19  1  0  0  0  0
  7  8  1  0  0  0  0
  7  9  1  0  0  0  0
  8 11  1  0  0  0  0
  9 14  1  0  0  0  0
 10 11  1  0  0  0  0
 10 14  1  0  0  0  0
 11 13  1  0  0  0  0
 14 17  1  0  0  0  0
 15 17  2  0  0  0  0
 16 17  2  0  0  0  0
  1 20  1  0  0  0  0
  2 21  1  0  0  0  0
  7 22  1  0  0  0  0
  7 23  1  0  0  0  0
  8 24  1  0  0  0  0
  8 25  1  0  0  0  0
  9 26  1  0  0  0  0
  9 27  1  0  0  0  0
 10 28  1  0  0  0  0
 10 29  1  0  0  0  0
 11 30  1  0  0  0  0
 12 31  1  0  0  0  0
 12 32  1  0  0  0  0
 12 33  1  0  0  0  0
 13 34  1  0  0  0  0
 13 35  1  0  0  0  0
 13 36  1  0  0  0  0
M  END
> <FRED Chemgauss4 score>
-7.328105

$$$$
C16889838	P25447432
  -OEChem-05182014473D

 32 32  0     1  0  0  0  0  0999 V2000
  123.9661  106.9471  108.2720 C   0  0  1  0  0  0  0  0  0  0  0  0
  122.5071  106.5739  108.0094 C   0  0  1  0  0  0  0  0  0  0  0  0
  124.5838  107.6499  107.0629 C   0  0  2  0  0  0  0  0  0  0  0  0
  122.3648  105.8481  106.6694 C   0  0  1  0  0  0  0  0  0  0  0  0
  124.3033  106.8829  105.7707 C   0  0  1  0  0  0  0  0  0  0  0  0
  120.9738  105.6362  103.7470 C   0  0  0  0  0  0  0  0  0  0  0  0
  120.9074  105.5669  106.3170 C   0  0  1  0  0  0  0  0  0  0  0  0
  120.7505  104.7940  105.0010 C   0  0  2  0  0  0  0  0  0  0  0  0
  122.9044  106.6529  105.6196 O   0  0  0  0  0  0  0  0  0  0  0  0
  124.0140  107.8237  109.3990 O   0  0  0  0  0  0  0  0  0  0  0  0
  122.0660  105.7383  109.0765 O   0  0  0  0  0  0  0  0  0  0  0  0
  125.9930  107.7397  107.2676 O   0  0  0  0  0  0  0  0  0  0  0  0
  124.7850  107.6699  104.6821 O   0  0  0  0  0  0  0  0  0  0  0  0
  120.3540  106.9062  103.9317 O   0  0  0  0  0  0  0  0  0  0  0  0
  120.3302  104.8358  107.3960 O   0  0  0  0  0  0  0  0  0  0  0  0
  121.7244  103.7440  104.9837 O   0  0  0  0  0  0  0  0  0  0  0  0
  124.5470  106.0577  108.5465 H   0  0  0  0  0  0  0  0  0  0  0  0
  121.8978  107.4868  108.0252 H   0  0  0  0  0  0  0  0  0  0  0  0
  124.2042  108.6773  106.9940 H   0  0  0  0  0  0  0  0  0  0  0  0
  122.8921  104.8854  106.6956 H   0  0  0  0  0  0  0  0  0  0  0  0
  124.8484  105.9306  105.7541 H   0  0  0  0  0  0  0  0  0  0  0  0
  120.5248  105.1736  102.8643 H   0  0  0  0  0  0  0  0  0  0  0  0
  122.0394  105.8112  103.5671 H   0  0  0  0  0  0  0  0  0  0  0  0
  120.3720  106.5203  106.2547 H   0  0  0  0  0  0  0  0  0  0  0  0
  119.7682  104.3094  104.9554 H   0  0  0  0  0  0  0  0  0  0  0  0
  123.4866  108.6011  109.1626 H   0  0  0  0  0  0  0  0  0  0  0  0
  122.6402  104.9569  109.0708 H   0  0  0  0  0  0  0  0  0  0  0  0
  126.3166  106.8300  107.3528 H   0  0  0  0  0  0  0  0  0  0  0  0
  124.5975  107.1663  103.8755 H   0  0  0  0  0  0  0  0  0  0  0  0
  120.5147  107.4125  103.1204 H   0  0  0  0  0  0  0  0  0  0  0  0
  120.4062  105.3981  108.1823 H   0  0  0  0  0  0  0  0  0  0  0  0
  121.5632  103.2407  104.1729 H   0  0  0  0  0  0  0  0  0  0  0  0
  1  2  1  0  0  0  0
  1  3  1  0  0  0  0
  1 10  1  0  0  0  0
  2  4  1  0  0  0  0
  2 11  1  0  0  0  0
  3  5  1  0  0  0  0
  3 12  1  0  0  0  0
  4  7  1  0  0  0  0
  4  9  1  0  0  0  0
  5  9  1  0  0  0  0
  5 13  1  0  0  0  0
  6  8  1  0  0  0  0
  6 14  1  0  0  0  0
  7  8  1  0  0  0  0
  7 15  1  0  0  0  0
  8 16  1  0  0  0  0
  1 17  1  0  0  0  0
  2 18  1  0  0  0  0
  3 19  1  0  0  0  0
  4 20  1  0  0  0  0
  5 21  1  0  0  0  0
  6 22  1  0  0  0  0
  6 23  1  0  0  0  0
  7 24  1  0  0  0  0
  8 25  1  0  0  0  0
 10 26  1  0  0  0  0
 11 27  1  0  0  0  0
 12 28  1  0  0  0  0
 13 29  1  0  0  0  0
 14 30  1  0  0  0  0
 15 31  1  0  0  0  0
 16 32  1  0  0  0  0
M  END
> <FRED Chemgauss4 score>
-7.325948

$$$$
C89832756	P140428014
  -OEChem-05182014473D

 46 48  0     1  0  0  0  0  0999 V2000
  125.4357  104.3588  106.3968 C   0  0  0  0  0  0  0  0  0  0  0  0
  120.3370  104.7165  106.9987 C   0  0  0  0  0  0  0  0  0  0  0  0
  125.4276  105.6402  106.9977 C   0  0  0  0  0  0  0  0  0  0  0  0
  120.6114  105.6557  106.0267 C   0  0  0  0  0  0  0  0  0  0  0  0
  125.8590  103.4834  107.3697 C   0  0  0  0  0  0  0  0  0  0  0  0
  125.8462  105.4565  108.2950 C   0  0  0  0  0  0  0  0  0  0  0  0
  118.6405  104.3182  105.6671 C   0  0  0  0  0  0  0  0  0  0  0  0
  121.7255  106.6334  105.9274 C   0  0  0  0  0  0  0  0  0  0  0  0
  115.2273  104.1809  104.2936 C   0  0  0  0  0  0  0  0  0  0  0  0
  116.1134  104.4594  105.4824 C   0  0  0  0  0  0  0  0  0  0  0  0
  116.2172  104.2166  103.1498 C   0  0  0  0  0  0  0  0  0  0  0  0
  117.3829  103.7096  105.1061 C   0  0  1  0  0  0  0  0  0  0  0  0
  126.0800  102.0307  107.3884 C   0  0  0  0  0  0  0  0  0  0  0  0
  126.0533  106.3702  109.4282 C   0  0  0  0  0  0  0  0  0  0  0  0
  126.2021  107.9622  106.3505 C   0  0  0  0  0  0  0  0  0  0  0  0
  123.7666  107.5185  107.0258 C   0  0  0  0  0  0  0  0  0  0  0  0
  125.0325  106.9626  106.3320 C   0  0  2  0  0  0  0  0  0  0  0  0
  119.2070  103.9489  106.7944 N   0  0  0  0  0  0  0  0  0  0  0  0
  122.6292  106.6020  106.9657 N   0  0  0  0  0  0  0  0  0  0  0  0
  121.7658  107.4019  104.9701 O   0  0  0  0  0  0  0  0  0  0  0  0
  126.1112  104.1445  108.5298 O   0  0  0  0  0  0  0  0  0  0  0  0
  117.4610  103.7209  103.6666 O   0  0  0  0  0  0  0  0  0  0  0  0
  124.7182  106.7227  104.9532 O   0  0  0  0  0  0  0  0  0  0  0  0
  119.4136  105.5824  104.8015 S   0  0  0  0  0  0  0  0  0  0  0  0
  125.1685  104.1038  105.3808 H   0  0  0  0  0  0  0  0  0  0  0  0
  120.9312  104.5463  107.8869 H   0  0  0  0  0  0  0  0  0  0  0  0
  114.7946  103.1777  104.3825 H   0  0  0  0  0  0  0  0  0  0  0  0
  114.4116  104.8987  104.1755 H   0  0  0  0  0  0  0  0  0  0  0  0
  116.2906  105.5398  105.5650 H   0  0  0  0  0  0  0  0  0  0  0  0
  115.6873  104.1183  106.4312 H   0  0  0  0  0  0  0  0  0  0  0  0
  115.9012  103.6039  102.3009 H   0  0  0  0  0  0  0  0  0  0  0  0
  116.3842  105.2411  102.8001 H   0  0  0  0  0  0  0  0  0  0  0  0
  117.3214  102.6516  105.4223 H   0  0  0  0  0  0  0  0  0  0  0  0
  127.1153  101.7759  107.0995 H   0  0  0  0  0  0  0  0  0  0  0  0
  125.8986  101.5907  108.3866 H   0  0  0  0  0  0  0  0  0  0  0  0
  125.4034  101.4937  106.6976 H   0  0  0  0  0  0  0  0  0  0  0  0
  125.1353  106.4767  110.0329 H   0  0  0  0  0  0  0  0  0  0  0  0
  126.8562  106.0242  110.1048 H   0  0  0  0  0  0  0  0  0  0  0  0
  126.3527  107.3830  109.1010 H   0  0  0  0  0  0  0  0  0  0  0  0
  125.9255  108.9105  105.8755 H   0  0  0  0  0  0  0  0  0  0  0  0
  127.0523  107.5735  105.7768 H   0  0  0  0  0  0  0  0  0  0  0  0
  126.5482  108.1833  107.3651 H   0  0  0  0  0  0  0  0  0  0  0  0
  123.4610  108.4665  106.5683 H   0  0  0  0  0  0  0  0  0  0  0  0
  123.9801  107.7208  108.0829 H   0  0  0  0  0  0  0  0  0  0  0  0
  122.5085  105.9903  107.7569 H   0  0  0  0  0  0  0  0  0  0  0  0
  125.5204  106.3561  104.5563 H   0  0  0  0  0  0  0  0  0  0  0  0
  1  3  1  0  0  0  0
  1  5  2  0  0  0  0
  2  4  2  0  0  0  0
  2 18  1  0  0  0  0
  3  6  2  0  0  0  0
  3 17  1  0  0  0  0
  4  8  1  0  0  0  0
  4 24  1  0  0  0  0
  5 13  1  0  0  0  0
  5 21  1  0  0  0  0
  6 14  1  0  0  0  0
  6 21  1  0  0  0  0
  7 12  1  0  0  0  0
  7 18  2  0  0  0  0
  7 24  1  0  0  0  0
  8 19  1  0  0  0  0
  8 20  2  0  0  0  0
  9 10  1  0  0  0  0
  9 11  1  0  0  0  0
 10 12  1  0  0  0  0
 11 22  1  0  0  0  0
 12 22  1  0  0  0  0
 15 17  1  0  0  0  0
 16 17  1  0  0  0  0
 16 19  1  0  0  0  0
 17 23  1  0  0  0  0
  1 25  1  0  0  0  0
  2 26  1  0  0  0  0
  9 27  1  0  0  0  0
  9 28  1  0  0  0  0
 10 29  1  0  0  0  0
 10 30  1  0  0  0  0
 11 31  1  0  0  0  0
 11 32  1  0  0  0  0
 12 33  1  0  0  0  0
 13 34  1  0  0  0  0
 13 35  1  0  0  0  0
 13 36  1  0  0  0  0
 14 37  1  0  0  0  0
 14 38  1  0  0  0  0
 14 39  1  0  0  0  0
 15 40  1  0  0  0  0
 15 41  1  0  0  0  0
 15 42  1  0  0  0  0
 16 43  1  0  0  0  0
 16 44  1  0  0  0  0
 19 45  1  0  0  0  0
 23 46  1  0  0  0  0
M  END
> <FRED Chemgauss4 score>
-7.319738

$$$$
C92782003	P145256586
  -OEChem-05182014473D

 35 36  0     1  0  0  0  0  0999 V2000
  117.3816  103.5702  104.1961 C   0  0  0  0  0  0  0  0  0  0  0  0
  118.8118  104.1150  105.6651 C   0  0  0  0  0  0  0  0  0  0  0  0
  119.2203  104.7198  104.5007 C   0  0  0  0  0  0  0  0  0  0  0  0
  122.2240  106.5631  105.7751 C   0  0  0  0  0  0  0  0  0  0  0  0
  125.8715  105.7756  107.1740 C   0  0  0  0  0  0  0  0  0  0  0  0
  119.5592  104.2253  106.9391 C   0  0  0  0  0  0  0  0  0  0  0  0
  120.4108  105.5847  104.3608 C   0  0  0  0  0  0  0  0  0  0  0  0
  121.2730  105.4170  105.6377 C   0  0  2  0  0  0  0  0  0  0  0  0
  125.7706  103.3282  106.7352 C   0  0  0  0  0  0  0  0  0  0  0  0
  125.1719  106.8549  107.9806 C   0  0  0  0  0  0  0  0  0  0  0  0
  124.0195  107.4964  107.2200 C   0  0  0  0  0  0  0  0  0  0  0  0
  117.6667  103.3934  105.4717 N   0  0  0  0  0  0  0  0  0  0  0  0
  118.2988  104.3718  103.5624 N   0  0  0  0  0  0  0  0  0  0  0  0
  120.4701  105.3927  106.8817 N   0  0  0  0  0  0  0  0  0  0  0  0
  123.0296  106.4944  106.8957 N   0  0  0  0  0  0  0  0  0  0  0  0
  125.2980  104.5300  107.3832 N   0  0  0  0  0  0  0  0  0  0  0  0
  122.2309  107.4476  104.9270 O   0  0  0  0  0  0  0  0  0  0  0  0
  126.8243  106.0015  106.4330 O   0  0  0  0  0  0  0  0  0  0  0  0
  116.5348  103.1508  103.6716 H   0  0  0  0  0  0  0  0  0  0  0  0
  118.8706  104.3489  107.7810 H   0  0  0  0  0  0  0  0  0  0  0  0
  120.1411  103.3140  107.1148 H   0  0  0  0  0  0  0  0  0  0  0  0
  120.9955  105.3083  103.4762 H   0  0  0  0  0  0  0  0  0  0  0  0
  120.0920  106.6266  104.2346 H   0  0  0  0  0  0  0  0  0  0  0  0
  121.8723  104.4997  105.5775 H   0  0  0  0  0  0  0  0  0  0  0  0
  125.2473  103.1822  105.7867 H   0  0  0  0  0  0  0  0  0  0  0  0
  125.5910  102.4590  107.3737 H   0  0  0  0  0  0  0  0  0  0  0  0
  126.8433  103.4022  106.5376 H   0  0  0  0  0  0  0  0  0  0  0  0
  124.8041  106.4062  108.9118 H   0  0  0  0  0  0  0  0  0  0  0  0
  125.9125  107.6170  108.2537 H   0  0  0  0  0  0  0  0  0  0  0  0
  124.3799  107.9614  106.2960 H   0  0  0  0  0  0  0  0  0  0  0  0
  123.5533  108.2847  107.8208 H   0  0  0  0  0  0  0  0  0  0  0  0
  118.2853  104.6478  102.5893 H   0  0  0  0  0  0  0  0  0  0  0  0
  119.9093  106.2448  106.9293 H   0  0  0  0  0  0  0  0  0  0  0  0
  122.9209  105.7020  107.5215 H   0  0  0  0  0  0  0  0  0  0  0  0
  124.5102  104.4596  108.0207 H   0  0  0  0  0  0  0  0  0  0  0  0
  1 12  2  0  0  0  0
  1 13  1  0  0  0  0
  2  3  2  0  0  0  0
  2  6  1  0  0  0  0
  2 12  1  0  0  0  0
  3  7  1  0  0  0  0
  3 13  1  0  0  0  0
  4  8  1  0  0  0  0
  4 15  1  0  0  0  0
  4 17  2  0  0  0  0
  5 10  1  0  0  0  0
  5 16  1  0  0  0  0
  5 18  2  0  0  0  0
  6 14  1  0  0  0  0
  7  8  1  0  0  0  0
  8 14  1  0  0  0  0
  9 16  1  0  0  0  0
 10 11  1  0  0  0  0
 11 15  1  0  0  0  0
  1 19  1  0  0  0  0
  6 20  1  0  0  0  0
  6 21  1  0  0  0  0
  7 22  1  0  0  0  0
  7 23  1  0  0  0  0
  8 24  1  0  0  0  0
  9 25  1  0  0  0  0
  9 26  1  0  0  0  0
  9 27  1  0  0  0  0
 10 28  1  0  0  0  0
 10 29  1  0  0  0  0
 11 30  1  0  0  0  0
 11 31  1  0  0  0  0
 13 32  1  0  0  0  0
 14 33  1  0  0  0  0
 15 34  1  0  0  0  0
 16 35  1  0  0  0  0
M  END
> <FRED Chemgauss4 score>
-7.318600

$$$$
C94871779	P148706776
  -OEChem-05182014473D

 31 33  0     0  0  0  0  0  0999 V2000
  121.1295  105.2260  105.2846 C   0  0  0  0  0  0  0  0  0  0  0  0
  120.1729  105.7464  107.4413 C   0  0  0  0  0  0  0  0  0  0  0  0
  120.2973  104.1110  105.1846 C   0  0  0  0  0  0  0  0  0  0  0  0
  119.3408  104.6314  107.3413 C   0  0  0  0  0  0  0  0  0  0  0  0
  124.9534  107.5685  104.8477 C   0  0  0  0  0  0  0  0  0  0  0  0
  123.9883  106.0587  106.8551 C   0  0  0  0  0  0  0  0  0  0  0  0
  121.0673  106.0437  106.4130 C   0  0  0  0  0  0  0  0  0  0  0  0
  119.4030  103.8137  106.2129 C   0  0  0  0  0  0  0  0  0  0  0  0
  125.3164  105.9745  106.4471 C   0  0  0  0  0  0  0  0  0  0  0  0
  123.2090  106.9808  106.1739 C   0  0  0  0  0  0  0  0  0  0  0  0
  123.4360  105.2649  108.0007 C   0  0  0  0  0  0  0  0  0  0  0  0
  126.2620  104.9912  107.0842 C   0  0  0  0  0  0  0  0  0  0  0  0
  124.3215  104.0788  108.3836 C   0  0  0  0  0  0  0  0  0  0  0  0
  125.7857  104.5004  108.4507 C   0  0  0  0  0  0  0  0  0  0  0  0
  125.8176  106.7182  105.4332 N   0  0  0  0  0  0  0  0  0  0  0  0
  123.6592  107.7494  105.1619 N   0  0  0  0  0  0  0  0  0  0  0  0
  121.8914  107.1465  106.5132 O   0  0  0  0  0  0  0  0  0  0  0  0
  118.1638  102.1530  106.0639 I   0  0  0  0  0  0  0  0  0  0  0  0
  121.8239  105.4526  104.4801 H   0  0  0  0  0  0  0  0  0  0  0  0
  120.1213  106.3794  108.3231 H   0  0  0  0  0  0  0  0  0  0  0  0
  120.3626  103.4865  104.2973 H   0  0  0  0  0  0  0  0  0  0  0  0
  118.6516  104.4171  108.1541 H   0  0  0  0  0  0  0  0  0  0  0  0
  125.3436  108.1712  104.0368 H   0  0  0  0  0  0  0  0  0  0  0  0
  123.3119  105.9031  108.8835 H   0  0  0  0  0  0  0  0  0  0  0  0
  122.4433  104.8949  107.7151 H   0  0  0  0  0  0  0  0  0  0  0  0
  126.4028  104.1311  106.4194 H   0  0  0  0  0  0  0  0  0  0  0  0
  127.2360  105.4838  107.1937 H   0  0  0  0  0  0  0  0  0  0  0  0
  124.0111  103.6827  109.3590 H   0  0  0  0  0  0  0  0  0  0  0  0
  124.1922  103.2716  107.6540 H   0  0  0  0  0  0  0  0  0  0  0  0
  126.3978  103.6501  108.7772 H   0  0  0  0  0  0  0  0  0  0  0  0
  125.9163  105.2954  109.1934 H   0  0  0  0  0  0  0  0  0  0  0  0
  1  3  1  0  0  0  0
  1  7  2  0  0  0  0
  2  4  2  0  0  0  0
  2  7  1  0  0  0  0
  3  8  2  0  0  0  0
  4  8  1  0  0  0  0
  5 15  2  0  0  0  0
  5 16  1  0  0  0  0
  6  9  2  0  0  0  0
  6 10  1  0  0  0  0
  6 11  1  0  0  0  0
  7 17  1  0  0  0  0
  8 18  1  0  0  0  0
  9 12  1  0  0  0  0
  9 15  1  0  0  0  0
 10 16  2  0  0  0  0
 10 17  1  0  0  0  0
 11 13  1  0  0  0  0
 12 14  1  0  0  0  0
 13 14  1  0  0  0  0
  1 19  1  0  0  0  0
  2 20  1  0  0  0  0
  3 21  1  0  0  0  0
  4 22  1  0  0  0  0
  5 23  1  0  0  0  0
 11 24  1  0  0  0  0
 11 25  1  0  0  0  0
 12 26  1  0  0  0  0
 12 27  1  0  0  0  0
 13 28  1  0  0  0  0
 13 29  1  0  0  0  0
 14 30  1  0  0  0  0
 14 31  1  0  0  0  0
M  END
> <FRED Chemgauss4 score>
-7.318113

$$$$
C87344568	P136645691
  -OEChem-05182014473D

 25 25  0     1  0  0  0  0  0999 V2000
  124.1877  107.9191  106.6398 C   0  0  0  0  0  0  0  0  0  0  0  0
  121.9743  105.5800  105.2522 C   0  0  0  0  0  0  0  0  0  0  0  0
  122.2039  104.9451  106.4500 C   0  0  0  0  0  0  0  0  0  0  0  0
  123.3282  106.8354  106.3112 C   0  0  0  0  0  0  0  0  0  0  0  0
  126.1799  105.5777  108.1496 C   0  0  0  0  0  0  0  0  0  0  0  0
  122.6102  104.7687  109.3723 C   0  0  0  0  0  0  0  0  0  0  0  0
  124.9660  104.7171  108.4722 C   0  0  0  0  0  0  0  0  0  0  0  0
  123.6402  105.5007  108.5042 C   0  0  1  0  0  0  0  0  0  0  0  0
  124.8894  108.8037  106.9081 N   0  0  0  0  0  0  0  0  0  0  0  0
  122.6773  106.7560  105.1718 N   0  0  0  0  0  0  0  0  0  0  0  0
  123.0734  105.7610  107.1174 N   0  0  0  0  0  0  0  0  0  0  0  0
  127.7774  107.0208  109.1710 N   0  0  0  0  0  0  0  0  0  0  0  0
  126.6904  106.1791  109.2879 N   0  0  0  0  0  0  0  0  0  0  0  0
  126.6159  105.7265  107.0109 O   0  0  0  0  0  0  0  0  0  0  0  0
  121.3386  105.2501  104.4435 H   0  0  0  0  0  0  0  0  0  0  0  0
  121.8371  104.0182  106.8683 H   0  0  0  0  0  0  0  0  0  0  0  0
  122.3657  103.7880  108.9490 H   0  0  0  0  0  0  0  0  0  0  0  0
  121.6810  105.3452  109.4372 H   0  0  0  0  0  0  0  0  0  0  0  0
  122.9758  104.6101  110.3928 H   0  0  0  0  0  0  0  0  0  0  0  0
  124.9175  103.8874  107.7567 H   0  0  0  0  0  0  0  0  0  0  0  0
  125.1519  104.2768  109.4607 H   0  0  0  0  0  0  0  0  0  0  0  0
  123.8335  106.4677  108.9884 H   0  0  0  0  0  0  0  0  0  0  0  0
  127.6663  107.7470  109.8773 H   0  0  0  0  0  0  0  0  0  0  0  0
  127.6925  107.4897  108.2701 H   0  0  0  0  0  0  0  0  0  0  0  0
  126.2707  106.0032  110.1954 H   0  0  0  0  0  0  0  0  0  0  0  0
  1  4  1  0  0  0  0
  1  9  3  0  0  0  0
  2  3  2  0  0  0  0
  2 10  1  0  0  0  0
  3 11  1  0  0  0  0
  4 10  2  0  0  0  0
  4 11  1  0  0  0  0
  5  7  1  0  0  0  0
  5 13  1  0  0  0  0
  5 14  2  0  0  0  0
  6  8  1  0  0  0  0
  7  8  1  0  0  0  0
  8 11  1  0  0  0  0
 12 13  1  0  0  0  0
  2 15  1  0  0  0  0
  3 16  1  0  0  0  0
  6 17  1  0  0  0  0
  6 18  1  0  0  0  0
  6 19  1  0  0  0  0
  7 20  1  0  0  0  0
  7 21  1  0  0  0  0
  8 22  1  0  0  0  0
 12 23  1  0  0  0  0
 12 24  1  0  0  0  0
 13 25  1  0  0  0  0
M  END
> <FRED Chemgauss4 score>
-7.316430

$$$$
C87666352	P137137147
  -OEChem-05182014473D

 31 31  0     1  0  0  0  0  0999 V2000
  119.5364  104.4149  106.2181 C   0  0  0  0  0  0  0  0  0  0  0  0
  120.8505  104.4090  106.4727 C   0  0  0  0  0  0  0  0  0  0  0  0
  120.4495  106.1597  105.0659 C   0  0  0  0  0  0  0  0  0  0  0  0
  118.1414  104.2070  102.8968 C   0  0  0  0  0  0  0  0  0  0  0  0
  117.3082  104.6190  104.1021 C   0  0  0  0  0  0  0  0  0  0  0  0
  117.9285  105.7733  104.8801 C   0  0  0  0  0  0  0  0  0  0  0  0
  122.8535  105.7515  105.8353 C   0  0  0  0  0  0  0  0  0  0  0  0
  124.5466  107.5561  106.4435 C   0  0  0  0  0  0  0  0  0  0  0  0
  123.1825  106.9353  106.7459 C   0  0  1  0  0  0  0  0  0  0  0  0
  119.2467  105.4595  105.3696 N   0  0  0  0  0  0  0  0  0  0  0  0
  121.4456  105.4491  105.7952 N   0  0  0  0  0  0  0  0  0  0  0  0
  124.5820  108.0304  105.0775 N   0  0  0  0  0  0  0  0  0  0  0  0
  120.5928  107.1388  104.3494 O   0  0  0  0  0  0  0  0  0  0  0  0
  122.1775  107.9385  106.5991 O   0  0  0  0  0  0  0  0  0  0  0  0
  118.7715  103.7474  106.5803 H   0  0  0  0  0  0  0  0  0  0  0  0
  121.4187  103.7355  107.0932 H   0  0  0  0  0  0  0  0  0  0  0  0
  118.2664  105.0437  102.2020 H   0  0  0  0  0  0  0  0  0  0  0  0
  119.1363  103.8837  103.2194 H   0  0  0  0  0  0  0  0  0  0  0  0
  117.6776  103.3761  102.3562 H   0  0  0  0  0  0  0  0  0  0  0  0
  117.2076  103.7556  104.7700 H   0  0  0  0  0  0  0  0  0  0  0  0
  116.2998  104.8895  103.7674 H   0  0  0  0  0  0  0  0  0  0  0  0
  118.0280  106.6504  104.2330 H   0  0  0  0  0  0  0  0  0  0  0  0
  117.3096  106.0518  105.7388 H   0  0  0  0  0  0  0  0  0  0  0  0
  123.1756  105.9489  104.8080 H   0  0  0  0  0  0  0  0  0  0  0  0
  123.3555  104.8450  106.1886 H   0  0  0  0  0  0  0  0  0  0  0  0
  125.3505  106.8239  106.5719 H   0  0  0  0  0  0  0  0  0  0  0  0
  124.7383  108.4030  107.1104 H   0  0  0  0  0  0  0  0  0  0  0  0
  123.1519  106.5961  107.7887 H   0  0  0  0  0  0  0  0  0  0  0  0
  124.1287  107.4873  104.3657 H   0  0  0  0  0  0  0  0  0  0  0  0
  125.2195  108.7680  104.8388 H   0  0  0  0  0  0  0  0  0  0  0  0
  121.3389  107.5254  106.8547 H   0  0  0  0  0  0  0  0  0  0  0  0
  1  2  2  0  0  0  0
  1 10  1  0  0  0  0
  2 11  1  0  0  0  0
  3 10  1  0  0  0  0
  3 11  1  0  0  0  0
  3 13  2  0  0  0  0
  4  5  1  0  0  0  0
  5  6  1  0  0  0  0
  6 10  1  0  0  0  0
  7  9  1  0  0  0  0
  7 11  1  0  0  0  0
  8  9  1  0  0  0  0
  8 12  1  0  0  0  0
  9 14  1  0  0  0  0
  1 15  1  0  0  0  0
  2 16  1  0  0  0  0
  4 17  1  0  0  0  0
  4 18  1  0  0  0  0
  4 19  1  0  0  0  0
  5 20  1  0  0  0  0
  5 21  1  0  0  0  0
  6 22  1  0  0  0  0
  6 23  1  0  0  0  0
  7 24  1  0  0  0  0
  7 25  1  0  0  0  0
  8 26  1  0  0  0  0
  8 27  1  0  0  0  0
  9 28  1  0  0  0  0
 12 29  1  0  0  0  0
 12 30  1  0  0  0  0
 14 31  1  0  0  0  0
M  END
> <FRED Chemgauss4 score>
-7.314520

$$$$
C97177845	P153861867
  -OEChem-05182014473D

 44 44  0     1  0  0  0  0  0999 V2000
  114.9709  106.7472  104.9860 C   0  0  0  0  0  0  0  0  0  0  0  0
  114.4126  105.7628  104.2051 C   0  0  0  0  0  0  0  0  0  0  0  0
  116.5796  105.4556  104.4622 C   0  0  0  0  0  0  0  0  0  0  0  0
  121.9421  105.1141  106.7986 C   0  0  0  0  0  0  0  0  0  0  0  0
  125.1476  104.0047  109.0103 C   0  0  0  0  0  0  0  0  0  0  0  0
  115.3670  103.7556  103.0600 C   0  0  0  0  0  0  0  0  0  0  0  0
  118.8715  105.0251  105.5362 C   0  0  0  0  0  0  0  0  0  0  0  0
  120.0202  104.0189  105.6438 C   0  0  0  0  0  0  0  0  0  0  0  0
  123.7118  105.9795  108.3229 C   0  0  0  0  0  0  0  0  0  0  0  0
  126.2434  106.1586  108.2587 C   0  0  0  0  0  0  0  0  0  0  0  0
  125.0326  105.2315  108.0991 C   0  0  1  0  0  0  0  0  0  0  0  0
  117.9501  104.7946  104.3114 C   0  0  2  0  0  0  0  0  0  0  0  0
  118.6327  105.2952  103.0334 C   0  0  0  0  0  0  0  0  0  0  0  0
  116.3202  106.5504  105.1420 N   0  0  0  0  0  0  0  0  0  0  0  0
  115.4554  104.9431  103.8767 N   0  0  0  0  0  0  0  0  0  0  0  0
  120.8301  104.2709  106.8058 N   0  0  0  0  0  0  0  0  0  0  0  0
  122.5414  105.1777  108.0541 N   0  0  0  0  0  0  0  0  0  0  0  0
  122.3418  105.7247  105.8081 O   0  0  0  0  0  0  0  0  0  0  0  0
  127.4343  105.4584  107.9207 O   0  0  0  0  0  0  0  0  0  0  0  0
  117.7988  103.3757  104.1585 O   0  0  0  0  0  0  0  0  0  0  0  0
  118.8045  106.6374  103.0707 F   0  0  0  0  0  0  0  0  0  0  0  0
  119.8554  104.7399  102.8746 F   0  0  0  0  0  0  0  0  0  0  0  0
  117.9090  105.0170  101.9272 F   0  0  0  0  0  0  0  0  0  0  0  0
  114.4699  107.5876  105.4437 H   0  0  0  0  0  0  0  0  0  0  0  0
  113.4014  105.5826  103.8677 H   0  0  0  0  0  0  0  0  0  0  0  0
  125.1561  104.2992  110.0649 H   0  0  0  0  0  0  0  0  0  0  0  0
  126.0775  103.4610  108.8127 H   0  0  0  0  0  0  0  0  0  0  0  0
  124.3112  103.3134  108.8629 H   0  0  0  0  0  0  0  0  0  0  0  0
  115.5276  104.0492  102.0193 H   0  0  0  0  0  0  0  0  0  0  0  0
  116.1291  103.0382  103.3768 H   0  0  0  0  0  0  0  0  0  0  0  0
  114.3781  103.3052  103.1830 H   0  0  0  0  0  0  0  0  0  0  0  0
  119.3165  106.0274  105.4632 H   0  0  0  0  0  0  0  0  0  0  0  0
  118.2951  105.0213  106.4696 H   0  0  0  0  0  0  0  0  0  0  0  0
  119.6473  102.9945  105.7322 H   0  0  0  0  0  0  0  0  0  0  0  0
  120.6817  104.0744  104.7741 H   0  0  0  0  0  0  0  0  0  0  0  0
  123.6371  106.3233  109.3601 H   0  0  0  0  0  0  0  0  0  0  0  0
  123.6555  106.8614  107.6760 H   0  0  0  0  0  0  0  0  0  0  0  0
  126.3379  106.5202  109.2880 H   0  0  0  0  0  0  0  0  0  0  0  0
  126.1573  107.0217  107.5903 H   0  0  0  0  0  0  0  0  0  0  0  0
  125.0305  104.8561  107.0668 H   0  0  0  0  0  0  0  0  0  0  0  0
  120.5792  103.8102  107.6784 H   0  0  0  0  0  0  0  0  0  0  0  0
  122.1141  104.6751  108.8258 H   0  0  0  0  0  0  0  0  0  0  0  0
  128.1680  106.0831  108.0367 H   0  0  0  0  0  0  0  0  0  0  0  0
  117.3532  103.0675  104.9595 H   0  0  0  0  0  0  0  0  0  0  0  0
  1  2  2  0  0  0  0
  1 14  1  0  0  0  0
  2 15  1  0  0  0  0
  3 12  1  0  0  0  0
  3 14  2  0  0  0  0
  3 15  1  0  0  0  0
  4 16  1  0  0  0  0
  4 17  1  0  0  0  0
  4 18  2  0  0  0  0
  5 11  1  0  0  0  0
  6 15  1  0  0  0  0
  7  8  1  0  0  0  0
  7 12  1  0  0  0  0
  8 16  1  0  0  0  0
  9 11  1  0  0  0  0
  9 17  1  0  0  0  0
 10 11  1  0  0  0  0
 10 19  1  0  0  0  0
 12 13  1  0  0  0  0
 12 20  1  0  0  0  0
 13 21  1  0  0  0  0
 13 22  1  0  0  0  0
 13 23  1  0  0  0  0
  1 24  1  0  0  0  0
  2 25  1  0  0  0  0
  5 26  1  0  0  0  0
  5 27  1  0  0  0  0
  5 28  1  0  0  0  0
  6 29  1  0  0  0  0
  6 30  1  0  0  0  0
  6 31  1  0  0  0  0
  7 32  1  0  0  0  0
  7 33  1  0  0  0  0
  8 34  1  0  0  0  0
  8 35  1  0  0  0  0
  9 36  1  0  0  0  0
  9 37  1  0  0  0  0
 10 38  1  0  0  0  0
 10 39  1  0  0  0  0
 11 40  1  0  0  0  0
 16 41  1  0  0  0  0
 17 42  1  0  0  0  0
 19 43  1  0  0  0  0
 20 44  1  0  0  0  0
M  END
> <FRED Chemgauss4 score>
-7.313920

$$$$
C85249013	P133397388
  -OEChem-05182014473D

 29 29  0     1  0  0  0  0  0999 V2000
  123.4205  106.2854  105.5499 C   0  0  0  0  0  0  0  0  0  0  0  0
  125.2734  105.1514  107.5280 C   0  0  0  0  0  0  0  0  0  0  0  0
  125.6351  106.3976  106.7167 C   0  0  0  0  0  0  0  0  0  0  0  0
  124.1476  104.3412  106.8978 C   0  0  0  0  0  0  0  0  0  0  0  0
  124.9196  106.4563  105.3699 C   0  0  2  0  0  0  0  0  0  0  0  0
  121.7153  104.8378  106.6395 C   0  0  0  0  0  0  0  0  0  0  0  0
  121.1639  107.1062  107.6677 C   0  0  0  0  0  0  0  0  0  0  0  0
  121.1512  105.5908  107.8443 C   0  0  2  0  0  0  0  0  0  0  0  0
  123.0963  105.2105  106.3837 N   0  0  0  0  0  0  0  0  0  0  0  0
  125.1687  107.7724  104.7449 N   0  0  0  0  0  0  0  0  0  0  0  0
  122.5991  107.0067  104.9863 O   0  0  0  0  0  0  0  0  0  0  0  0
  120.5964  107.7092  108.8266 O   0  0  0  0  0  0  0  0  0  0  0  0
  121.9058  105.2634  109.0116 O   0  0  0  0  0  0  0  0  0  0  0  0
  126.1714  104.5096  107.6454 H   0  0  0  0  0  0  0  0  0  0  0  0
  124.9901  105.4476  108.5610 H   0  0  0  0  0  0  0  0  0  0  0  0
  125.4364  107.3033  107.3127 H   0  0  0  0  0  0  0  0  0  0  0  0
  126.7242  106.3957  106.5402 H   0  0  0  0  0  0  0  0  0  0  0  0
  124.5227  103.7527  106.0647 H   0  0  0  0  0  0  0  0  0  0  0  0
  123.7252  103.6765  107.6460 H   0  0  0  0  0  0  0  0  0  0  0  0
  125.2907  105.6647  104.7525 H   0  0  0  0  0  0  0  0  0  0  0  0
  121.6807  103.7587  106.8232 H   0  0  0  0  0  0  0  0  0  0  0  0
  121.1156  105.0458  105.7473 H   0  0  0  0  0  0  0  0  0  0  0  0
  120.5656  107.4063  106.8019 H   0  0  0  0  0  0  0  0  0  0  0  0
  122.1836  107.4897  107.5616 H   0  0  0  0  0  0  0  0  0  0  0  0
  120.1239  105.2564  108.0318 H   0  0  0  0  0  0  0  0  0  0  0  0
  124.5187  108.0916  104.0642 H   0  0  0  0  0  0  0  0  0  0  0  0
  126.0641  108.1839  104.8746 H   0  0  0  0  0  0  0  0  0  0  0  0
  120.6206  108.6678  108.6802 H   0  0  0  0  0  0  0  0  0  0  0  0
  121.8213  104.3056  109.1319 H   0  0  0  0  0  0  0  0  0  0  0  0
  1  5  1  0  0  0  0
  1  9  1  0  0  0  0
  1 11  2  0  0  0  0
  2  3  1  0  0  0  0
  2  4  1  0  0  0  0
  3  5  1  0  0  0  0
  4  9  1  0  0  0  0
  5 10  1  0  0  0  0
  6  8  1  0  0  0  0
  6  9  1  0  0  0  0
  7  8  1  0  0  0  0
  7 12  1  0  0  0  0
  8 13  1  0  0  0  0
  2 14  1  0  0  0  0
  2 15  1  0  0  0  0
  3 16  1  0  0  0  0
  3 17  1  0  0  0  0
  4 18  1  0  0  0  0
  4 19  1  0  0  0  0
  5 20  1  0  0  0  0
  6 21  1  0  0  0  0
  6 22  1  0  0  0  0
  7 23  1  0  0  0  0
  7 24  1  0  0  0  0
  8 25  1  0  0  0  0
 10 26  1  0  0  0  0
 10 27  1  0  0  0  0
 12 28  1  0  0  0  0
 13 29  1  0  0  0  0
M  END
> <FRED Chemgauss4 score>
-7.311651

$$$$
C42528606	P64324269
  -OEChem-05182014473D

 32 31  0     1  0  0  0  0  0999 V2000
  120.3934  104.2729  106.3056 C   0  0  0  0  0  0  0  0  0  0  0  0
  125.1892  103.1188  106.8111 C   0  0  0  0  0  0  0  0  0  0  0  0
  124.8029  104.2211  109.0431 C   0  0  0  0  0  0  0  0  0  0  0  0
  121.5437  105.1338  106.6187 C   0  0  0  0  0  0  0  0  0  0  0  0
  122.8489  104.3464  106.6660 C   0  0  0  0  0  0  0  0  0  0  0  0
  124.3473  108.1654  107.0769 C   0  0  0  0  0  0  0  0  0  0  0  0
  124.4206  105.9524  105.8158 C   0  0  0  0  0  0  0  0  0  0  0  0
  125.0763  104.4377  107.5619 C   0  0  0  0  0  0  0  0  0  0  0  0
  125.1901  107.2047  106.2368 C   0  0  1  0  0  0  0  0  0  0  0  0
  119.4844  103.5954  106.0588 N   0  0  0  0  0  0  0  0  0  0  0  0
  123.1850  108.6471  106.3794 N   0  0  0  0  0  0  0  0  0  0  0  0
  123.9796  105.2262  106.9864 N   0  0  2  0  0  0  0  0  0  0  0  0
  125.6486  107.8789  105.0649 O   0  0  0  0  0  0  0  0  0  0  0  0
  124.2724  102.5299  106.9174 H   0  0  0  0  0  0  0  0  0  0  0  0
  125.3686  103.2811  105.7423 H   0  0  0  0  0  0  0  0  0  0  0  0
  126.0225  102.5218  107.1976 H   0  0  0  0  0  0  0  0  0  0  0  0
  123.8790  103.6506  109.1880 H   0  0  0  0  0  0  0  0  0  0  0  0
  124.6955  105.1783  109.5638 H   0  0  0  0  0  0  0  0  0  0  0  0
  125.6139  103.6612  109.5222 H   0  0  0  0  0  0  0  0  0  0  0  0
  121.3782  105.6057  107.5942 H   0  0  0  0  0  0  0  0  0  0  0  0
  121.6125  105.9404  105.8793 H   0  0  0  0  0  0  0  0  0  0  0  0
  122.7819  103.5721  107.4372 H   0  0  0  0  0  0  0  0  0  0  0  0
  123.0381  103.8463  105.7096 H   0  0  0  0  0  0  0  0  0  0  0  0
  124.0007  107.6793  107.9943 H   0  0  0  0  0  0  0  0  0  0  0  0
  124.9325  109.0489  107.3516 H   0  0  0  0  0  0  0  0  0  0  0  0
  125.0496  105.2856  105.2169 H   0  0  0  0  0  0  0  0  0  0  0  0
  123.5407  106.2244  105.2238 H   0  0  0  0  0  0  0  0  0  0  0  0
  126.0031  105.0092  107.4417 H   0  0  0  0  0  0  0  0  0  0  0  0
  126.0777  106.9185  106.8143 H   0  0  0  0  0  0  0  0  0  0  0  0
  122.7881  109.5350  106.6416 H   0  0  0  0  0  0  0  0  0  0  0  0
  122.6686  108.0136  105.7903 H   0  0  0  0  0  0  0  0  0  0  0  0
  126.1787  108.6301  105.3710 H   0  0  0  0  0  0  0  0  0  0  0  0
  1  4  1  0  0  0  0
  1 10  3  0  0  0  0
  2  8  1  0  0  0  0
  3  8  1  0  0  0  0
  4  5  1  0  0  0  0
  5 12  1  0  0  0  0
  6  9  1  0  0  0  0
  6 11  1  0  0  0  0
  7  9  1  0  0  0  0
  7 12  1  0  0  0  0
  8 12  1  0  0  0  0
  9 13  1  0  0  0  0
  2 14  1  0  0  0  0
  2 15  1  0  0  0  0
  2 16  1  0  0  0  0
  3 17  1  0  0  0  0
  3 18  1  0  0  0  0
  3 19  1  0  0  0  0
  4 20  1  0  0  0  0
  4 21  1  0  0  0  0
  5 22  1  0  0  0  0
  5 23  1  0  0  0  0
  6 24  1  0  0  0  0
  6 25  1  0  0  0  0
  7 26  1  0  0  0  0
  7 27  1  0  0  0  0
  8 28  1  0  0  0  0
  9 29  1  0  0  0  0
 11 30  1  0  0  0  0
 11 31  1  0  0  0  0
 13 32  1  0  0  0  0
M  END
> <FRED Chemgauss4 score>
-7.310259

$$$$
C37036752	P55054206
  -OEChem-05182014473D

 40 41  0     1  0  0  0  0  0999 V2000
  120.3750  105.0229  101.1542 C   0  0  0  0  0  0  0  0  0  0  0  0
  120.1338  104.7791  102.4900 C   0  0  0  0  0  0  0  0  0  0  0  0
  118.1903  104.8503  101.0687 C   0  0  0  0  0  0  0  0  0  0  0  0
  122.3318  106.6047  105.4853 C   0  0  0  0  0  0  0  0  0  0  0  0
  123.8554  106.6156  108.1022 C   0  0  0  0  0  0  0  0  0  0  0  0
  125.0537  106.0208  108.8330 C   0  0  0  0  0  0  0  0  0  0  0  0
  124.0671  104.5252  106.8567 C   0  0  0  0  0  0  0  0  0  0  0  0
  123.0571  105.4261  107.5644 C   0  0  2  0  0  0  0  0  0  0  0  0
  121.6932  105.2414  100.5201 C   0  0  0  0  0  0  0  0  0  0  0  0
  120.0303  106.5593  107.8630 C   0  0  0  0  0  0  0  0  0  0  0  0
  121.3693  106.3926  104.3294 C   0  0  0  0  0  0  0  0  0  0  0  0
  120.6585  105.5065  107.0148 C   0  0  0  0  0  0  0  0  0  0  0  0
  119.2618  105.0637  100.3376 N   0  0  0  0  0  0  0  0  0  0  0  0
  116.9221  104.8237  100.5792 N   0  0  0  0  0  0  0  0  0  0  0  0
  122.0319  105.8687  106.6529 N   0  0  0  0  0  0  0  0  0  0  0  0
  123.2977  107.3662  105.3914 O   0  0  0  0  0  0  0  0  0  0  0  0
  125.6035  103.4468  108.7119 O   0  0  0  0  0  0  0  0  0  0  0  0
  126.6557  104.9995  107.0034 O   0  0  0  0  0  0  0  0  0  0  0  0
  118.4481  104.5936  102.7458 S   0  0  0  0  0  0  0  0  0  0  0  0
  121.3105  104.6607  103.8031 S   0  0  0  0  0  0  0  0  0  0  0  0
  125.5491  104.6114  107.8530 S   0  0  0  0  0  0  0  0  0  0  0  0
  123.2384  107.1713  108.8129 H   0  0  0  0  0  0  0  0  0  0  0  0
  124.1739  107.2996  107.3154 H   0  0  0  0  0  0  0  0  0  0  0  0
  125.8916  106.7229  108.8594 H   0  0  0  0  0  0  0  0  0  0  0  0
  124.8070  105.6971  109.8460 H   0  0  0  0  0  0  0  0  0  0  0  0
  123.7325  103.4859  106.8721 H   0  0  0  0  0  0  0  0  0  0  0  0
  124.2953  104.8352  105.8372 H   0  0  0  0  0  0  0  0  0  0  0  0
  122.5502  104.8903  108.3644 H   0  0  0  0  0  0  0  0  0  0  0  0
  122.1309  104.2890  100.1821 H   0  0  0  0  0  0  0  0  0  0  0  0
  121.6231  105.9097   99.6463 H   0  0  0  0  0  0  0  0  0  0  0  0
  122.4086  105.7150  101.2123 H   0  0  0  0  0  0  0  0  0  0  0  0
  120.5916  106.6980  108.7934 H   0  0  0  0  0  0  0  0  0  0  0  0
  119.9788  107.5132  107.3269 H   0  0  0  0  0  0  0  0  0  0  0  0
  119.0079  106.2630  108.1262 H   0  0  0  0  0  0  0  0  0  0  0  0
  120.3614  106.6870  104.6354 H   0  0  0  0  0  0  0  0  0  0  0  0
  121.6890  106.9929  103.4729 H   0  0  0  0  0  0  0  0  0  0  0  0
  120.0931  105.3732  106.0875 H   0  0  0  0  0  0  0  0  0  0  0  0
  120.6948  104.5508  107.5459 H   0  0  0  0  0  0  0  0  0  0  0  0
  116.7213  105.0196   99.5927 H   0  0  0  0  0  0  0  0  0  0  0  0
  116.1103  104.7003  101.1938 H   0  0  0  0  0  0  0  0  0  0  0  0
  1  2  2  0  0  0  0
  1  9  1  0  0  0  0
  1 13  1  0  0  0  0
  2 19  1  0  0  0  0
  2 20  1  0  0  0  0
  3 13  2  0  0  0  0
  3 14  1  0  0  0  0
  3 19  1  0  0  0  0
  4 11  1  0  0  0  0
  4 15  1  0  0  0  0
  4 16  2  0  0  0  0
  5  6  1  0  0  0  0
  5  8  1  0  0  0  0
  6 21  1  0  0  0  0
  7  8  1  0  0  0  0
  7 21  1  0  0  0  0
  8 15  1  0  0  0  0
 10 12  1  0  0  0  0
 11 20  1  0  0  0  0
 12 15  1  0  0  0  0
 17 21  2  0  0  0  0
 18 21  2  0  0  0  0
  5 22  1  0  0  0  0
  5 23  1  0  0  0  0
  6 24  1  0  0  0  0
  6 25  1  0  0  0  0
  7 26  1  0  0  0  0
  7 27  1  0  0  0  0
  8 28  1  0  0  0  0
  9 29  1  0  0  0  0
  9 30  1  0  0  0  0
  9 31  1  0  0  0  0
 10 32  1  0  0  0  0
 10 33  1  0  0  0  0
 10 34  1  0  0  0  0
 11 35  1  0  0  0  0
 11 36  1  0  0  0  0
 12 37  1  0  0  0  0
 12 38  1  0  0  0  0
 14 39  1  0  0  0  0
 14 40  1  0  0  0  0
M  END
> <FRED Chemgauss4 score>
-7.303375

$$$$
C79783087	P124652744
  -OEChem-05182014473D

 37 37  0     0  0  0  0  0  0999 V2000
  118.8943  104.8838  104.2400 C   0  0  0  0  0  0  0  0  0  0  0  0
  118.8983  103.7579  106.3775 C   0  0  0  0  0  0  0  0  0  0  0  0
  119.7145  105.8827  104.7645 C   0  0  0  0  0  0  0  0  0  0  0  0
  119.7185  104.7567  106.9022 C   0  0  0  0  0  0  0  0  0  0  0  0
  118.4862  103.8214  105.0465 C   0  0  0  0  0  0  0  0  0  0  0  0
  120.1266  105.8191  106.0956 C   0  0  0  0  0  0  0  0  0  0  0  0
  116.1569  103.0400  104.6391 C   0  0  0  0  0  0  0  0  0  0  0  0
  125.2535  103.4464  107.2797 C   0  0  0  0  0  0  0  0  0  0  0  0
  117.6092  102.7536  104.4855 C   0  0  0  0  0  0  0  0  0  0  0  0
  124.8240  106.1280  106.6857 C   0  0  0  0  0  0  0  0  0  0  0  0
  123.3481  106.0374  107.0110 C   0  0  0  0  0  0  0  0  0  0  0  0
  120.9234  106.7897  106.6052 N   0  5  0  0  0  0  0  0  0  0  0  0
  115.5413  102.5536  105.7072 N   0  0  0  0  0  0  0  0  0  0  0  0
  115.5658  103.7551  103.6927 N   0  3  0  0  0  0  0  0  0  0  0  0
  127.1943  105.1974  107.2758 O   0  0  0  0  0  0  0  0  0  0  0  0
  125.4460  105.3197  109.0924 O   0  0  0  0  0  0  0  0  0  0  0  0
  122.8808  108.4576  106.3556 O   0  0  0  0  0  0  0  0  0  0  0  0
  122.6149  106.6833  104.6551 O   0  0  0  0  0  0  0  0  0  0  0  0
  125.8112  105.0804  107.7063 S   0  0  0  0  0  0  0  0  0  0  0  0
  122.3671  107.1263  106.0283 S   0  0  0  0  0  0  0  0  0  0  0  0
  118.5778  104.9411  103.2018 H   0  0  0  0  0  0  0  0  0  0  0  0
  118.5852  102.9338  107.0132 H   0  0  0  0  0  0  0  0  0  0  0  0
  120.0222  106.7032  104.1199 H   0  0  0  0  0  0  0  0  0  0  0  0
  120.0297  104.6902  107.9425 H   0  0  0  0  0  0  0  0  0  0  0  0
  125.8181  102.7244  107.8717 H   0  0  0  0  0  0  0  0  0  0  0  0
  124.1884  103.3763  107.5052 H   0  0  0  0  0  0  0  0  0  0  0  0
  125.4303  103.2895  106.2146 H   0  0  0  0  0  0  0  0  0  0  0  0
  117.8411  101.7829  104.9573 H   0  0  0  0  0  0  0  0  0  0  0  0
  117.8393  102.5938  103.4179 H   0  0  0  0  0  0  0  0  0  0  0  0
  125.0330  105.8553  105.6472 H   0  0  0  0  0  0  0  0  0  0  0  0
  125.1865  107.1458  106.8605 H   0  0  0  0  0  0  0  0  0  0  0  0
  123.1733  106.3312  108.0505 H   0  0  0  0  0  0  0  0  0  0  0  0
  122.9557  105.0274  106.8620 H   0  0  0  0  0  0  0  0  0  0  0  0
  116.0538  102.0069  106.3901 H   0  0  0  0  0  0  0  0  0  0  0  0
  114.5531  102.7186  105.8628 H   0  0  0  0  0  0  0  0  0  0  0  0
  116.0858  104.0947  102.8912 H   0  0  0  0  0  0  0  0  0  0  0  0
  114.5778  103.9738  103.7559 H   0  0  0  0  0  0  0  0  0  0  0  0
  1  3  2  0  0  0  0
  1  5  1  0  0  0  0
  2  4  1  0  0  0  0
  2  5  2  0  0  0  0
  3  6  1  0  0  0  0
  4  6  2  0  0  0  0
  5  9  1  0  0  0  0
  6 12  1  0  0  0  0
  7  9  1  0  0  0  0
  7 13  1  0  0  0  0
  7 14  2  0  0  0  0
  8 19  1  0  0  0  0
 10 11  1  0  0  0  0
 10 19  1  0  0  0  0
 11 20  1  0  0  0  0
 12 20  1  0  0  0  0
 15 19  2  0  0  0  0
 16 19  2  0  0  0  0
 17 20  2  0  0  0  0
 18 20  2  0  0  0  0
  1 21  1  0  0  0  0
  2 22  1  0  0  0  0
  3 23  1  0  0  0  0
  4 24  1  0  0  0  0
  8 25  1  0  0  0  0
  8 26  1  0  0  0  0
  8 27  1  0  0  0  0
  9 28  1  0  0  0  0
  9 29  1  0  0  0  0
 10 30  1  0  0  0  0
 10 31  1  0  0  0  0
 11 32  1  0  0  0  0
 11 33  1  0  0  0  0
 13 34  1  0  0  0  0
 13 35  1  0  0  0  0
 14 36  1  0  0  0  0
 14 37  1  0  0  0  0
M  CHG  2  12  -1  14   1
M  END
> <FRED Chemgauss4 score>
-7.298332

$$$$
Penicillamine	P10000034
  -OEChem-05182014473D

 20 19  0     1  0  0  0  0  0999 V2000
  123.8613  107.2662  106.0512 C   0  0  0  0  0  0  0  0  0  0  0  0
  125.3760  104.8347  107.3054 C   0  0  0  0  0  0  0  0  0  0  0  0
  125.5560  106.1519  109.4285 C   0  0  0  0  0  0  0  0  0  0  0  0
  124.7135  107.3365  107.3328 C   0  0  1  0  0  0  0  0  0  0  0  0
  124.7723  105.9939  108.1138 C   0  0  0  0  0  0  0  0  0  0  0  0
  126.1068  107.8211  107.0587 N   0  3  0  0  0  0  0  0  0  0  0  0
  122.9014  106.4444  106.0974 O   0  5  0  0  0  0  0  0  0  0  0  0
  124.2268  108.0206  105.1066 O   0  0  0  0  0  0  0  0  0  0  0  0
  123.0573  105.4847  108.5910 S   0  0  0  0  0  0  0  0  0  0  0  0
  124.8419  104.6921  106.3600 H   0  0  0  0  0  0  0  0  0  0  0  0
  125.3447  103.8839  107.8483 H   0  0  0  0  0  0  0  0  0  0  0  0
  126.4238  105.0290  107.0446 H   0  0  0  0  0  0  0  0  0  0  0  0
  125.1619  106.9702  110.0435 H   0  0  0  0  0  0  0  0  0  0  0  0
  125.4908  105.2447  110.0396 H   0  0  0  0  0  0  0  0  0  0  0  0
  126.6189  106.3489  109.2453 H   0  0  0  0  0  0  0  0  0  0  0  0
  124.2727  108.1144  107.9712 H   0  0  0  0  0  0  0  0  0  0  0  0
  126.7617  107.3909  107.7112 H   0  0  0  0  0  0  0  0  0  0  0  0
  126.1519  108.8343  107.1662 H   0  0  0  0  0  0  0  0  0  0  0  0
  126.3812  107.5777  106.1072 H   0  0  0  0  0  0  0  0  0  0  0  0
  123.4537  104.4086  109.2775 H   0  0  0  0  0  0  0  0  0  0  0  0
  1  4  1  0  0  0  0
  1  7  1  0  0  0  0
  1  8  2  0  0  0  0
  2  5  1  0  0  0  0
  3  5  1  0  0  0  0
  4  5  1  0  0  0  0
  4  6  1  0  0  0  0
  5  9  1  0  0  0  0
  2 10  1  0  0  0  0
  2 11  1  0  0  0  0
  2 12  1  0  0  0  0
  3 13  1  0  0  0  0
  3 14  1  0  0  0  0
  3 15  1  0  0  0  0
  4 16  1  0  0  0  0
  6 17  1  0  0  0  0
  6 18  1  0  0  0  0
  6 19  1  0  0  0  0
  9 20  1  0  0  0  0
M  CHG  2   6   1   7  -1
M  END
> <FRED Chemgauss4 score>
-7.297384

$$$$
C87697014	P137174208
  -OEChem-05182014473D

 29 29  0     0  0  0  0  0  0999 V2000
  122.3865  106.5372  105.8758 C   0  0  0  0  0  0  0  0  0  0  0  0
  120.4479  105.4264  105.1174 C   0  0  0  0  0  0  0  0  0  0  0  0
  123.5292  107.0235  106.5680 C   0  0  0  0  0  0  0  0  0  0  0  0
  126.1801  106.0320  108.2972 C   0  0  0  0  0  0  0  0  0  0  0  0
  116.4532  105.3397  105.1778 C   0  0  0  0  0  0  0  0  0  0  0  0
  124.9584  106.8475  108.6530 C   0  0  0  0  0  0  0  0  0  0  0  0
  117.3314  105.6561  103.9756 C   0  0  0  0  0  0  0  0  0  0  0  0
  118.4717  104.6603  103.8008 C   0  0  0  0  0  0  0  0  0  0  0  0
  121.9903  106.9914  104.7059 N   0  0  0  0  0  0  0  0  0  0  0  0
  120.8526  106.3406  104.2615 N   0  0  0  0  0  0  0  0  0  0  0  0
  126.6611  105.3136  109.3707 N   0  0  0  0  0  0  0  0  0  0  0  0
  119.3356  104.6108  104.9477 N   0  0  0  0  0  0  0  0  0  0  0  0
  123.8463  106.4479  107.8210 N   0  0  0  0  0  0  0  0  0  0  0  0
  124.2401  107.9552  106.1035 O   0  0  0  0  0  0  0  0  0  0  0  0
  126.6635  105.9778  107.1696 O   0  0  0  0  0  0  0  0  0  0  0  0
  121.4133  105.2844  106.5278 S   0  0  0  0  0  0  0  0  0  0  0  0
  116.0099  104.3428  105.0881 H   0  0  0  0  0  0  0  0  0  0  0  0
  117.0489  105.3637  106.0960 H   0  0  0  0  0  0  0  0  0  0  0  0
  115.6440  106.0688  105.2838 H   0  0  0  0  0  0  0  0  0  0  0  0
  125.1388  107.9132  108.4883 H   0  0  0  0  0  0  0  0  0  0  0  0
  124.6928  106.6710  109.6988 H   0  0  0  0  0  0  0  0  0  0  0  0
  117.7541  106.6592  104.1049 H   0  0  0  0  0  0  0  0  0  0  0  0
  116.7105  105.6797  103.0722 H   0  0  0  0  0  0  0  0  0  0  0  0
  118.0700  103.6521  103.6592 H   0  0  0  0  0  0  0  0  0  0  0  0
  119.0856  104.9080  102.9291 H   0  0  0  0  0  0  0  0  0  0  0  0
  126.2068  105.3627  110.2766 H   0  0  0  0  0  0  0  0  0  0  0  0
  127.4766  104.7132  109.3017 H   0  0  0  0  0  0  0  0  0  0  0  0
  119.1253  103.9414  105.6841 H   0  0  0  0  0  0  0  0  0  0  0  0
  123.2185  105.7444  108.1962 H   0  0  0  0  0  0  0  0  0  0  0  0
  1  3  1  0  0  0  0
  1  9  2  0  0  0  0
  1 16  1  0  0  0  0
  2 10  2  0  0  0  0
  2 12  1  0  0  0  0
  2 16  1  0  0  0  0
  3 13  1  0  0  0  0
  3 14  2  0  0  0  0
  4  6  1  0  0  0  0
  4 11  1  0  0  0  0
  4 15  2  0  0  0  0
  5  7  1  0  0  0  0
  6 13  1  0  0  0  0
  7  8  1  0  0  0  0
  8 12  1  0  0  0  0
  9 10  1  0  0  0  0
  5 17  1  0  0  0  0
  5 18  1  0  0  0  0
  5 19  1  0  0  0  0
  6 20  1  0  0  0  0
  6 21  1  0  0  0  0
  7 22  1  0  0  0  0
  7 23  1  0  0  0  0
  8 24  1  0  0  0  0
  8 25  1  0  0  0  0
 11 26  1  0  0  0  0
 11 27  1  0  0  0  0
 12 28  1  0  0  0  0
 13 29  1  0  0  0  0
M  END
> <FRED Chemgauss4 score>
-7.296016

$$$$
C54526408	P82058826
  -OEChem-05182014473D

 33 34  0     1  0  0  0  0  0999 V2000
  120.3678  103.8075  105.2657 C   0  0  0  0  0  0  0  0  0  0  0  0
  121.9210  105.3135  105.4349 C   0  0  0  0  0  0  0  0  0  0  0  0
  118.8440  104.4935  101.8218 C   0  0  0  0  0  0  0  0  0  0  0  0
  120.1087  104.8511  101.0601 C   0  0  0  0  0  0  0  0  0  0  0  0
  118.9438  105.3185  103.1000 C   0  0  0  0  0  0  0  0  0  0  0  0
  121.1726  104.8866  102.1474 C   0  0  0  0  0  0  0  0  0  0  0  0
  120.4530  105.4725  103.3741 C   0  0  0  0  0  0  0  0  0  0  0  0
  124.4542  106.7133  107.1003 C   0  0  0  0  0  0  0  0  0  0  0  0
  122.7667  106.4774  105.1149 C   0  0  2  0  0  0  0  0  0  0  0  0
  124.2362  106.3302  105.6379 C   0  0  1  0  0  0  0  0  0  0  0  0
  121.0226  103.5756  106.3810 N   0  0  0  0  0  0  0  0  0  0  0  0
  122.0108  104.5338  106.4886 N   0  0  0  0  0  0  0  0  0  0  0  0
  120.8998  104.8927  104.6380 N   0  0  0  0  0  0  0  0  0  0  0  0
  122.1778  107.7466  105.6114 N   0  0  0  0  0  0  0  0  0  0  0  0
  125.0795  107.1763  104.8486 O   0  0  0  0  0  0  0  0  0  0  0  0
  119.5316  103.2421  104.8798 H   0  0  0  0  0  0  0  0  0  0  0  0
  117.9370  104.7173  101.2532 H   0  0  0  0  0  0  0  0  0  0  0  0
  118.8402  103.4243  102.0657 H   0  0  0  0  0  0  0  0  0  0  0  0
  120.3428  104.1266  100.2749 H   0  0  0  0  0  0  0  0  0  0  0  0
  120.0070  105.8391  100.5957 H   0  0  0  0  0  0  0  0  0  0  0  0
  118.5098  106.3102  102.9229 H   0  0  0  0  0  0  0  0  0  0  0  0
  118.3884  104.8568  103.9230 H   0  0  0  0  0  0  0  0  0  0  0  0
  121.5371  103.8706  102.3448 H   0  0  0  0  0  0  0  0  0  0  0  0
  122.0334  105.4950  101.8522 H   0  0  0  0  0  0  0  0  0  0  0  0
  120.6972  106.5634  103.4688 H   0  0  0  0  0  0  0  0  0  0  0  0
  124.1196  107.7331  107.3097 H   0  0  0  0  0  0  0  0  0  0  0  0
  125.5111  106.6255  107.3749 H   0  0  0  0  0  0  0  0  0  0  0  0
  123.9019  106.0326  107.7579 H   0  0  0  0  0  0  0  0  0  0  0  0
  122.8491  106.6049  104.0111 H   0  0  0  0  0  0  0  0  0  0  0  0
  124.5891  105.3030  105.4912 H   0  0  0  0  0  0  0  0  0  0  0  0
  121.1967  107.8295  105.5656 H   0  0  0  0  0  0  0  0  0  0  0  0
  122.8000  108.4963  105.7623 H   0  0  0  0  0  0  0  0  0  0  0  0
  125.9857  107.0010  105.1400 H   0  0  0  0  0  0  0  0  0  0  0  0
  1 11  2  0  0  0  0
  1 13  1  0  0  0  0
  2  9  1  0  0  0  0
  2 12  2  0  0  0  0
  2 13  1  0  0  0  0
  3  4  1  0  0  0  0
  3  5  1  0  0  0  0
  4  6  1  0  0  0  0
  5  7  1  0  0  0  0
  6  7  1  0  0  0  0
  7 13  1  0  0  0  0
  8 10  1  0  0  0  0
  9 10  1  0  0  0  0
  9 14  1  0  0  0  0
 10 15  1  0  0  0  0
 11 12  1  0  0  0  0
  1 16  1  0  0  0  0
  3 17  1  0  0  0  0
  3 18  1  0  0  0  0
  4 19  1  0  0  0  0
  4 20  1  0  0  0  0
  5 21  1  0  0  0  0
  5 22  1  0  0  0  0
  6 23  1  0  0  0  0
  6 24  1  0  0  0  0
  7 25  1  0  0  0  0
  8 26  1  0  0  0  0
  8 27  1  0  0  0  0
  8 28  1  0  0  0  0
  9 29  1  0  0  0  0
 10 30  1  0  0  0  0
 14 31  1  0  0  0  0
 14 32  1  0  0  0  0
 15 33  1  0  0  0  0
M  END
> <FRED Chemgauss4 score>
-7.292673

$$$$
C82583507	P129059864
  -OEChem-05182014473D

 29 30  0     1  0  0  0  0  0999 V2000
  119.6807  104.4713  104.2703 C   0  0  0  0  0  0  0  0  0  0  0  0
  120.5963  105.4981  104.0388 C   0  0  0  0  0  0  0  0  0  0  0  0
  119.6230  103.8915  105.5338 C   0  0  0  0  0  0  0  0  0  0  0  0
  121.4107  105.8844  105.1110 C   0  0  0  0  0  0  0  0  0  0  0  0
  121.2476  105.2205  106.3191 C   0  0  0  0  0  0  0  0  0  0  0  0
  122.8160  106.7594  106.4569 C   0  0  0  0  0  0  0  0  0  0  0  0
  123.6139  104.5942  108.7423 C   0  0  0  0  0  0  0  0  0  0  0  0
  122.3674  105.4409  108.5503 C   0  0  0  0  0  0  0  0  0  0  0  0
  125.2453  107.4622  106.3579 C   0  0  0  0  0  0  0  0  0  0  0  0
  123.8772  107.5891  107.0644 C   0  0  1  0  0  0  0  0  0  0  0  0
  120.3870  104.2286  106.6013 N   0  0  0  0  0  0  0  0  0  0  0  0
  122.3918  106.8404  105.2135 N   0  0  0  0  0  0  0  0  0  0  0  0
  122.1538  105.7933  107.1659 N   0  0  0  0  0  0  0  0  0  0  0  0
  123.5009  108.9985  107.1325 N   0  0  0  0  0  0  0  0  0  0  0  0
  125.1469  107.8914  105.0037 O   0  0  0  0  0  0  0  0  0  0  0  0
  119.0241  104.1308  103.4767 H   0  0  0  0  0  0  0  0  0  0  0  0
  120.6702  105.9735  103.0672 H   0  0  0  0  0  0  0  0  0  0  0  0
  118.9138  103.0912  105.7266 H   0  0  0  0  0  0  0  0  0  0  0  0
  123.5523  103.6634  108.1685 H   0  0  0  0  0  0  0  0  0  0  0  0
  123.7383  104.3363  109.7985 H   0  0  0  0  0  0  0  0  0  0  0  0
  124.5105  105.1301  108.4135 H   0  0  0  0  0  0  0  0  0  0  0  0
  122.4383  106.3694  109.1279 H   0  0  0  0  0  0  0  0  0  0  0  0
  121.4786  104.9055  108.9031 H   0  0  0  0  0  0  0  0  0  0  0  0
  125.9856  108.0993  106.8543 H   0  0  0  0  0  0  0  0  0  0  0  0
  125.6098  106.4292  106.3655 H   0  0  0  0  0  0  0  0  0  0  0  0
  124.0399  107.3161  108.1278 H   0  0  0  0  0  0  0  0  0  0  0  0
  124.2298  109.6764  107.1866 H   0  0  0  0  0  0  0  0  0  0  0  0
  122.5486  109.2207  107.3268 H   0  0  0  0  0  0  0  0  0  0  0  0
  126.0301  107.7893  104.6154 H   0  0  0  0  0  0  0  0  0  0  0  0
  1  2  1  0  0  0  0
  1  3  2  0  0  0  0
  2  4  2  0  0  0  0
  3 11  1  0  0  0  0
  4  5  1  0  0  0  0
  4 12  1  0  0  0  0
  5 11  2  0  0  0  0
  5 13  1  0  0  0  0
  6 10  1  0  0  0  0
  6 12  2  0  0  0  0
  6 13  1  0  0  0  0
  7  8  1  0  0  0  0
  8 13  1  0  0  0  0
  9 10  1  0  0  0  0
  9 15  1  0  0  0  0
 10 14  1  0  0  0  0
  1 16  1  0  0  0  0
  2 17  1  0  0  0  0
  3 18  1  0  0  0  0
  7 19  1  0  0  0  0
  7 20  1  0  0  0  0
  7 21  1  0  0  0  0
  8 22  1  0  0  0  0
  8 23  1  0  0  0  0
  9 24  1  0  0  0  0
  9 25  1  0  0  0  0
 10 26  1  0  0  0  0
 14 27  1  0  0  0  0
 14 28  1  0  0  0  0
 15 29  1  0  0  0  0
M  END
> <FRED Chemgauss4 score>
-7.286905

$$$$
C51818984	P77620782
  -OEChem-05182014473D

 32 32  0     1  0  0  0  0  0999 V2000
  125.0926  104.2341  108.5986 C   0  0  0  0  0  0  0  0  0  0  0  0
  123.9727  104.0241  107.7941 C   0  0  0  0  0  0  0  0  0  0  0  0
  125.2372  106.5108  107.8031 C   0  0  0  0  0  0  0  0  0  0  0  0
  125.7249  105.4775  108.6031 C   0  0  0  0  0  0  0  0  0  0  0  0
  124.1172  106.3008  106.9986 C   0  0  0  0  0  0  0  0  0  0  0  0
  123.4849  105.0575  106.9941 C   0  0  0  0  0  0  0  0  0  0  0  0
  119.5142  108.1571  108.7035 C   0  0  0  0  0  0  0  0  0  0  0  0
  123.8723  109.7462  107.7554 C   0  0  0  0  0  0  0  0  0  0  0  0
  121.9754  108.2376  108.1872 C   0  0  0  0  0  0  0  0  0  0  0  0
  120.6359  108.9584  108.0565 C   0  0  2  0  0  0  0  0  0  0  0  0
  126.8568  105.6897  109.4169 N   0  0  0  0  0  0  0  0  0  0  0  0
  122.9035  108.7436  107.2013 N   0  0  2  0  0  0  0  0  0  0  0  0
  124.7089  108.2610  105.3935 O   0  0  0  0  0  0  0  0  0  0  0  0
  122.4797  107.1386  105.1589 O   0  0  0  0  0  0  0  0  0  0  0  0
  120.7318  110.2210  108.7131 O   0  0  0  0  0  0  0  0  0  0  0  0
  123.5431  107.6493  106.0043 S   0  0  0  0  0  0  0  0  0  0  0  0
  122.0956  104.7458  106.0170 Cl  0  0  0  0  0  0  0  0  0  0  0  0
  125.4643  103.4223  109.2184 H   0  0  0  0  0  0  0  0  0  0  0  0
  123.4919  103.0490  107.8028 H   0  0  0  0  0  0  0  0  0  0  0  0
  125.7321  107.4795  107.8088 H   0  0  0  0  0  0  0  0  0  0  0  0
  119.7247  107.9584  109.7588 H   0  0  0  0  0  0  0  0  0  0  0  0
  118.5590  108.6886  108.6286 H   0  0  0  0  0  0  0  0  0  0  0  0
  119.3819  107.1988  108.1895 H   0  0  0  0  0  0  0  0  0  0  0  0
  124.5466  110.0922  106.9677 H   0  0  0  0  0  0  0  0  0  0  0  0
  124.4669  109.2955  108.5547 H   0  0  0  0  0  0  0  0  0  0  0  0
  123.3344  110.6070  108.1615 H   0  0  0  0  0  0  0  0  0  0  0  0
  122.4049  108.3924  109.1828 H   0  0  0  0  0  0  0  0  0  0  0  0
  121.8524  107.1611  108.0298 H   0  0  0  0  0  0  0  0  0  0  0  0
  120.3998  109.1429  107.0021 H   0  0  0  0  0  0  0  0  0  0  0  0
  127.1680  104.9561  110.0212 H   0  0  0  0  0  0  0  0  0  0  0  0
  127.2725  106.5988  109.4470 H   0  0  0  0  0  0  0  0  0  0  0  0
  119.8741  110.6575  108.5964 H   0  0  0  0  0  0  0  0  0  0  0  0
  1  2  2  0  0  0  0
  1  4  1  0  0  0  0
  2  6  1  0  0  0  0
  3  4  2  0  0  0  0
  3  5  1  0  0  0  0
  4 11  1  0  0  0  0
  5  6  2  0  0  0  0
  5 16  1  0  0  0  0
  6 17  1  0  0  0  0
  7 10  1  0  0  0  0
  8 12  1  0  0  0  0
  9 10  1  0  0  0  0
  9 12  1  0  0  0  0
 10 15  1  0  0  0  0
 12 16  1  0  0  0  0
 13 16  2  0  0  0  0
 14 16  2  0  0  0  0
  1 18  1  0  0  0  0
  2 19  1  0  0  0  0
  3 20  1  0  0  0  0
  7 21  1  0  0  0  0
  7 22  1  0  0  0  0
  7 23  1  0  0  0  0
  8 24  1  0  0  0  0
  8 25  1  0  0  0  0
  8 26  1  0  0  0  0
  9 27  1  0  0  0  0
  9 28  1  0  0  0  0
 10 29  1  0  0  0  0
 11 30  1  0  0  0  0
 11 31  1  0  0  0  0
 15 32  1  0  0  0  0
M  END
> <FRED Chemgauss4 score>
-7.280447

$$$$
C53129455	P79683186
  -OEChem-05182014473D

 27 28  0     1  0  0  0  0  0999 V2000
  119.1315  104.6829  103.8302 C   0  0  0  0  0  0  0  0  0  0  0  0
  119.3361  104.9467  106.2120 C   0  0  0  0  0  0  0  0  0  0  0  0
  118.2390  103.6519  104.0753 C   0  0  0  0  0  0  0  0  0  0  0  0
  118.4342  103.9039  106.3505 C   0  0  0  0  0  0  0  0  0  0  0  0
  119.6860  105.3375  104.9243 C   0  0  0  0  0  0  0  0  0  0  0  0
  121.9952  106.2368  105.3869 C   0  0  0  0  0  0  0  0  0  0  0  0
  123.9818  106.4938  105.9034 C   0  0  0  0  0  0  0  0  0  0  0  0
  125.7333  107.2508  107.5622 C   0  0  0  0  0  0  0  0  0  0  0  0
  120.6527  106.4538  104.7178 C   0  0  0  0  0  0  0  0  0  0  0  0
  125.3844  106.8827  106.1030 C   0  0  2  0  0  0  0  0  0  0  0  0
  117.8747  103.2440  105.3116 N   0  0  0  0  0  0  0  0  0  0  0  0
  123.0736  107.0322  105.1295 N   0  0  0  0  0  0  0  0  0  0  0  0
  122.1964  105.2526  106.2682 N   0  0  0  0  0  0  0  0  0  0  0  0
  125.8005  107.9787  105.2299 N   0  0  0  0  0  0  0  0  0  0  0  0
  123.5414  105.4256  106.6185 O   0  0  0  0  0  0  0  0  0  0  0  0
  119.3846  104.9632  102.8132 H   0  0  0  0  0  0  0  0  0  0  0  0
  119.7514  105.4379  107.0852 H   0  0  0  0  0  0  0  0  0  0  0  0
  117.7795  103.1086  103.2560 H   0  0  0  0  0  0  0  0  0  0  0  0
  118.1288  103.5613  107.3336 H   0  0  0  0  0  0  0  0  0  0  0  0
  125.0901  108.0657  107.9118 H   0  0  0  0  0  0  0  0  0  0  0  0
  125.6046  106.4012  108.2423 H   0  0  0  0  0  0  0  0  0  0  0  0
  126.7747  107.5799  107.6521 H   0  0  0  0  0  0  0  0  0  0  0  0
  120.8160  106.6300  103.6398 H   0  0  0  0  0  0  0  0  0  0  0  0
  120.2260  107.4073  105.0761 H   0  0  0  0  0  0  0  0  0  0  0  0
  126.0758  106.0561  105.8275 H   0  0  0  0  0  0  0  0  0  0  0  0
  125.4408  107.9991  104.3010 H   0  0  0  0  0  0  0  0  0  0  0  0
  126.5719  108.5394  105.5185 H   0  0  0  0  0  0  0  0  0  0  0  0
  1  3  2  0  0  0  0
  1  5  1  0  0  0  0
  2  4  1  0  0  0  0
  2  5  2  0  0  0  0
  3 11  1  0  0  0  0
  4 11  2  0  0  0  0
  5  9  1  0  0  0  0
  6  9  1  0  0  0  0
  6 12  1  0  0  0  0
  6 13  2  0  0  0  0
  7 10  1  0  0  0  0
  7 12  2  0  0  0  0
  7 15  1  0  0  0  0
  8 10  1  0  0  0  0
 10 14  1  0  0  0  0
 13 15  1  0  0  0  0
  1 16  1  0  0  0  0
  2 17  1  0  0  0  0
  3 18  1  0  0  0  0
  4 19  1  0  0  0  0
  8 20  1  0  0  0  0
  8 21  1  0  0  0  0
  8 22  1  0  0  0  0
  9 23  1  0  0  0  0
  9 24  1  0  0  0  0
 10 25  1  0  0  0  0
 14 26  1  0  0  0  0
 14 27  1  0  0  0  0
M  END
> <FRED Chemgauss4 score>
-7.271451

$$$$
C63130397	P96934657
  -OEChem-05182014473D

 33 34  0     0  0  0  0  0  0999 V2000
  124.6597  106.6926  108.4314 C   0  0  0  0  0  0  0  0  0  0  0  0
  124.5755  104.7288  107.0266 C   0  0  0  0  0  0  0  0  0  0  0  0
  123.2785  106.6221  108.6128 C   0  0  0  0  0  0  0  0  0  0  0  0
  123.1943  104.6582  107.2080 C   0  0  0  0  0  0  0  0  0  0  0  0
  120.9524  105.6997  102.5610 C   0  0  0  0  0  0  0  0  0  0  0  0
  125.3083  105.7459  107.6383 C   0  0  0  0  0  0  0  0  0  0  0  0
  122.5458  105.6049  108.0011 C   0  0  0  0  0  0  0  0  0  0  0  0
  119.9245  105.1200  101.7771 C   0  0  0  0  0  0  0  0  0  0  0  0
  120.3894  106.0849  103.7576 C   0  0  0  0  0  0  0  0  0  0  0  0
  118.7647  105.1687  102.5185 C   0  0  0  0  0  0  0  0  0  0  0  0
  121.0461  106.7404  104.9179 C   0  0  0  0  0  0  0  0  0  0  0  0
  120.7106  107.6735  107.1923 C   0  0  0  0  0  0  0  0  0  0  0  0
  120.5076  106.7663  108.3920 C   0  0  0  0  0  0  0  0  0  0  0  0
  119.0591  105.7574  103.7205 N   0  0  0  0  0  0  0  0  0  0  0  0
  126.7048  105.8172  107.4549 N   0  0  0  0  0  0  0  0  0  0  0  0
  120.2135  107.0001  105.9707 N   0  0  0  0  0  0  0  0  0  0  0  0
  122.2413  107.0158  104.8541 O   0  0  0  0  0  0  0  0  0  0  0  0
  121.1980  105.5361  108.1781 O   0  0  0  0  0  0  0  0  0  0  0  0
  120.1344  104.4927  100.2128 Cl  0  0  0  0  0  0  0  0  0  0  0  0
  117.1717  104.6695  102.2279 Cl  0  0  0  0  0  0  0  0  0  0  0  0
  125.2210  107.4893  108.9128 H   0  0  0  0  0  0  0  0  0  0  0  0
  125.0708  103.9859  106.4065 H   0  0  0  0  0  0  0  0  0  0  0  0
  122.7790  107.3624  109.2317 H   0  0  0  0  0  0  0  0  0  0  0  0
  122.6289  103.8636  106.7289 H   0  0  0  0  0  0  0  0  0  0  0  0
  121.9912  105.8238  102.2851 H   0  0  0  0  0  0  0  0  0  0  0  0
  120.1657  108.6155  107.3104 H   0  0  0  0  0  0  0  0  0  0  0  0
  121.7742  107.8897  107.0539 H   0  0  0  0  0  0  0  0  0  0  0  0
  119.4440  106.5398  108.5149 H   0  0  0  0  0  0  0  0  0  0  0  0
  120.8834  107.2256  109.3121 H   0  0  0  0  0  0  0  0  0  0  0  0
  118.3941  105.9231  104.4635 H   0  0  0  0  0  0  0  0  0  0  0  0
  127.2119  106.5780  107.8600 H   0  0  0  0  0  0  0  0  0  0  0  0
  127.1509  105.1610  106.8463 H   0  0  0  0  0  0  0  0  0  0  0  0
  119.2317  106.8157  105.9554 H   0  0  0  0  0  0  0  0  0  0  0  0
  1  3  1  0  0  0  0
  1  6  2  0  0  0  0
  2  4  2  0  0  0  0
  2  6  1  0  0  0  0
  3  7  2  0  0  0  0
  4  7  1  0  0  0  0
  5  8  1  0  0  0  0
  5  9  2  0  0  0  0
  6 15  1  0  0  0  0
  7 18  1  0  0  0  0
  8 10  2  0  0  0  0
  8 19  1  0  0  0  0
  9 11  1  0  0  0  0
  9 14  1  0  0  0  0
 10 14  1  0  0  0  0
 10 20  1  0  0  0  0
 11 16  1  0  0  0  0
 11 17  2  0  0  0  0
 12 13  1  0  0  0  0
 12 16  1  0  0  0  0
 13 18  1  0  0  0  0
  1 21  1  0  0  0  0
  2 22  1  0  0  0  0
  3 23  1  0  0  0  0
  4 24  1  0  0  0  0
  5 25  1  0  0  0  0
 12 26  1  0  0  0  0
 12 27  1  0  0  0  0
 13 28  1  0  0  0  0
 13 29  1  0  0  0  0
 14 30  1  0  0  0  0
 15 31  1  0  0  0  0
 15 32  1  0  0  0  0
 16 33  1  0  0  0  0
M  END
> <FRED Chemgauss4 score>
-7.263743

$$$$
C92988027	P145579086
  -OEChem-05182014473D

 38 39  0     1  0  0  0  0  0999 V2000
  124.6788  107.5049  106.4346 C   0  0  0  0  0  0  0  0  0  0  0  0
  118.7217  106.8673  105.0959 C   0  0  0  0  0  0  0  0  0  0  0  0
  124.2474  104.3960  107.4559 C   0  0  0  0  0  0  0  0  0  0  0  0
  125.5967  104.8716  107.9901 C   0  0  0  0  0  0  0  0  0  0  0  0
  123.7373  105.1640  106.2370 C   0  0  0  0  0  0  0  0  0  0  0  0
  116.8857  103.5867  104.4031 C   0  0  0  0  0  0  0  0  0  0  0  0
  116.7186  104.1987  105.7637 C   0  0  0  0  0  0  0  0  0  0  0  0
  125.5823  106.3155  108.4736 C   0  0  0  0  0  0  0  0  0  0  0  0
  123.4312  106.6335  106.5273 C   0  0  2  0  0  0  0  0  0  0  0  0
  117.0804  105.0667  104.5896 C   0  0  0  0  0  0  0  0  0  0  0  0
  120.1599  107.2609  104.8105 C   0  0  0  0  0  0  0  0  0  0  0  0
  121.1318  106.7067  105.8432 C   0  0  0  0  0  0  0  0  0  0  0  0
  125.6529  107.2674  107.3800 N   0  0  0  0  0  0  0  0  0  0  0  0
  118.3885  105.6703  104.4792 N   0  0  0  0  0  0  0  0  0  0  0  0
  122.4840  107.1305  105.5229 N   0  0  0  0  0  0  0  0  0  0  0  0
  124.8241  108.3762  105.5748 O   0  0  0  0  0  0  0  0  0  0  0  0
  117.9660  107.5405  105.7913 O   0  0  0  0  0  0  0  0  0  0  0  0
  124.3406  103.3374  107.1832 H   0  0  0  0  0  0  0  0  0  0  0  0
  123.4992  104.4425  108.2570 H   0  0  0  0  0  0  0  0  0  0  0  0
  125.8665  104.2260  108.8350 H   0  0  0  0  0  0  0  0  0  0  0  0
  126.3693  104.7332  107.2240 H   0  0  0  0  0  0  0  0  0  0  0  0
  124.4622  105.0744  105.4175 H   0  0  0  0  0  0  0  0  0  0  0  0
  122.8246  104.6523  105.9029 H   0  0  0  0  0  0  0  0  0  0  0  0
  117.7586  102.9683  104.2328 H   0  0  0  0  0  0  0  0  0  0  0  0
  115.9939  103.2567  103.8845 H   0  0  0  0  0  0  0  0  0  0  0  0
  115.7142  104.2808  106.1604 H   0  0  0  0  0  0  0  0  0  0  0  0
  117.4797  103.9899  106.5055 H   0  0  0  0  0  0  0  0  0  0  0  0
  124.6958  106.5308  109.0790 H   0  0  0  0  0  0  0  0  0  0  0  0
  126.4644  106.4998  109.0965 H   0  0  0  0  0  0  0  0  0  0  0  0
  122.9710  106.7582  107.5134 H   0  0  0  0  0  0  0  0  0  0  0  0
  116.2989  105.7133  104.2057 H   0  0  0  0  0  0  0  0  0  0  0  0
  120.4258  106.8962  103.8105 H   0  0  0  0  0  0  0  0  0  0  0  0
  120.2204  108.3562  104.7872 H   0  0  0  0  0  0  0  0  0  0  0  0
  121.0904  105.6122  105.8621 H   0  0  0  0  0  0  0  0  0  0  0  0
  120.8699  107.0597  106.8465 H   0  0  0  0  0  0  0  0  0  0  0  0
  126.5060  107.8132  107.3038 H   0  0  0  0  0  0  0  0  0  0  0  0
  119.0959  105.1968  103.9250 H   0  0  0  0  0  0  0  0  0  0  0  0
  122.7519  106.7634  104.6140 H   0  0  0  0  0  0  0  0  0  0  0  0
  1  9  1  0  0  0  0
  1 13  1  0  0  0  0
  1 16  2  0  0  0  0
  2 11  1  0  0  0  0
  2 14  1  0  0  0  0
  2 17  2  0  0  0  0
  3  4  1  0  0  0  0
  3  5  1  0  0  0  0
  4  8  1  0  0  0  0
  5  9  1  0  0  0  0
  6  7  1  0  0  0  0
  6 10  1  0  0  0  0
  7 10  1  0  0  0  0
  8 13  1  0  0  0  0
  9 15  1  0  0  0  0
 10 14  1  0  0  0  0
 11 12  1  0  0  0  0
 12 15  1  0  0  0  0
  3 18  1  0  0  0  0
  3 19  1  0  0  0  0
  4 20  1  0  0  0  0
  4 21  1  0  0  0  0
  5 22  1  0  0  0  0
  5 23  1  0  0  0  0
  6 24  1  0  0  0  0
  6 25  1  0  0  0  0
  7 26  1  0  0  0  0
  7 27  1  0  0  0  0
  8 28  1  0  0  0  0
  8 29  1  0  0  0  0
  9 30  1  0  0  0  0
 10 31  1  0  0  0  0
 11 32  1  0  0  0  0
 11 33  1  0  0  0  0
 12 34  1  0  0  0  0
 12 35  1  0  0  0  0
 13 36  1  0  0  0  0
 14 37  1  0  0  0  0
 15 38  1  0  0  0  0
M  END
> <FRED Chemgauss4 score>
-7.260426

$$$$
C54497698	P82017927
  -OEChem-05182014473D

 29 30  0     1  0  0  0  0  0999 V2000
  124.7968  105.0493  108.8510 C   0  0  0  0  0  0  0  0  0  0  0  0
  126.8207  105.8399  108.4831 C   0  0  0  0  0  0  0  0  0  0  0  0
  120.6001  106.7256  108.1626 C   0  0  0  0  0  0  0  0  0  0  0  0
  125.0681  105.1303  107.5055 C   0  0  0  0  0  0  0  0  0  0  0  0
  122.3647  106.4672  106.9263 C   0  0  0  0  0  0  0  0  0  0  0  0
  119.9225  105.4089  105.0547 C   0  0  0  0  0  0  0  0  0  0  0  0
  124.1735  104.7546  106.3463 C   0  0  0  0  0  0  0  0  0  0  0  0
  120.4266  104.9447  106.4104 C   0  0  0  0  0  0  0  0  0  0  0  0
  123.2929  105.9244  105.8531 C   0  0  2  0  0  0  0  0  0  0  0  0
  126.3296  105.6229  107.2831 N   0  0  0  0  0  0  0  0  0  0  0  0
  121.4978  107.5946  108.5694 N   0  0  0  0  0  0  0  0  0  0  0  0
  122.6205  107.4302  107.7829 N   0  0  0  0  0  0  0  0  0  0  0  0
  125.9289  105.5068  109.4644 N   0  0  0  0  0  0  0  0  0  0  0  0
  121.1036  105.9948  107.1296 N   0  0  0  0  0  0  0  0  0  0  0  0
  124.1410  106.9928  105.3075 N   0  0  0  0  0  0  0  0  0  0  0  0
  123.9338  104.7197  109.4115 H   0  0  0  0  0  0  0  0  0  0  0  0
  127.8025  106.2319  108.7081 H   0  0  0  0  0  0  0  0  0  0  0  0
  119.6068  106.5886  108.5656 H   0  0  0  0  0  0  0  0  0  0  0  0
  119.2228  106.2451  105.1578 H   0  0  0  0  0  0  0  0  0  0  0  0
  119.4050  104.5920  104.5424 H   0  0  0  0  0  0  0  0  0  0  0  0
  120.7491  105.7420  104.4183 H   0  0  0  0  0  0  0  0  0  0  0  0
  123.5363  103.9217  106.6753 H   0  0  0  0  0  0  0  0  0  0  0  0
  124.7821  104.3483  105.5276 H   0  0  0  0  0  0  0  0  0  0  0  0
  121.1256  104.1084  106.2970 H   0  0  0  0  0  0  0  0  0  0  0  0
  119.5955  104.5920  107.0315 H   0  0  0  0  0  0  0  0  0  0  0  0
  122.6799  105.5659  105.0162 H   0  0  0  0  0  0  0  0  0  0  0  0
  126.0793  105.5856  110.4613 H   0  0  0  0  0  0  0  0  0  0  0  0
  123.7497  107.9028  105.2419 H   0  0  0  0  0  0  0  0  0  0  0  0
  124.9785  106.7251  104.8462 H   0  0  0  0  0  0  0  0  0  0  0  0
  1  4  2  0  0  0  0
  1 13  1  0  0  0  0
  2 10  2  0  0  0  0
  2 13  1  0  0  0  0
  3 11  2  0  0  0  0
  3 14  1  0  0  0  0
  4  7  1  0  0  0  0
  4 10  1  0  0  0  0
  5  9  1  0  0  0  0
  5 12  2  0  0  0  0
  5 14  1  0  0  0  0
  6  8  1  0  0  0  0
  7  9  1  0  0  0  0
  8 14  1  0  0  0  0
  9 15  1  0  0  0  0
 11 12  1  0  0  0  0
  1 16  1  0  0  0  0
  2 17  1  0  0  0  0
  3 18  1  0  0  0  0
  6 19  1  0  0  0  0
  6 20  1  0  0  0  0
  6 21  1  0  0  0  0
  7 22  1  0  0  0  0
  7 23  1  0  0  0  0
  8 24  1  0  0  0  0
  8 25  1  0  0  0  0
  9 26  1  0  0  0  0
 13 27  1  0  0  0  0
 15 28  1  0  0  0  0
 15 29  1  0  0  0  0
M  END
> <FRED Chemgauss4 score>
-7.257881

$$$$
C54140268	P81447142
  -OEChem-05182014473D

 39 39  0     1  0  0  0  0  0999 V2000
  120.8873  104.0205  105.0086 C   0  0  0  0  0  0  0  0  0  0  0  0
  122.3614  103.7881  104.6971 C   0  0  0  0  0  0  0  0  0  0  0  0
  120.7329  104.8639  106.2715 C   0  0  0  0  0  0  0  0  0  0  0  0
  123.1277  105.1014  104.6017 C   0  0  0  0  0  0  0  0  0  0  0  0
  121.5183  106.1802  106.2082 C   0  0  2  0  0  0  0  0  0  0  0  0
  120.8866  107.1970  105.2595 C   0  0  0  0  0  0  0  0  0  0  0  0
  125.6202  103.4954  107.6525 C   0  0  0  0  0  0  0  0  0  0  0  0
  124.6754  105.7674  108.1797 C   0  0  0  0  0  0  0  0  0  0  0  0
  126.9793  105.0632  109.1153 C   0  0  0  0  0  0  0  0  0  0  0  0
  125.5680  104.6187  108.6953 C   0  0  2  0  0  0  0  0  0  0  0  0
  125.1958  106.3348  106.9435 N   0  5  0  0  0  0  0  0  0  0  0  0
  122.9463  105.8911  105.8523 N   0  0  2  0  0  0  0  0  0  0  0  0
  126.9473  106.1533  110.1188 N   0  3  0  0  0  0  0  0  0  0  0  0
  123.3560  108.1446  106.8978 O   0  0  0  0  0  0  0  0  0  0  0  0
  124.4946  107.5664  104.7878 O   0  0  0  0  0  0  0  0  0  0  0  0
  124.0856  107.1367  106.1263 S   0  0  0  0  0  0  0  0  0  0  0  0
  120.4033  104.5235  104.1641 H   0  0  0  0  0  0  0  0  0  0  0  0
  120.3809  103.0571  105.1441 H   0  0  0  0  0  0  0  0  0  0  0  0
  122.8082  103.1542  105.4743 H   0  0  0  0  0  0  0  0  0  0  0  0
  122.4505  103.2400  103.7483 H   0  0  0  0  0  0  0  0  0  0  0  0
  119.6618  105.0741  106.4274 H   0  0  0  0  0  0  0  0  0  0  0  0
  121.0613  104.2706  107.1390 H   0  0  0  0  0  0  0  0  0  0  0  0
  124.1952  104.9146  104.4324 H   0  0  0  0  0  0  0  0  0  0  0  0
  122.7397  105.6694  103.7479 H   0  0  0  0  0  0  0  0  0  0  0  0
  121.5287  106.6341  107.2408 H   0  0  0  0  0  0  0  0  0  0  0  0
  120.8597  106.7916  104.2496 H   0  0  0  0  0  0  0  0  0  0  0  0
  121.4719  108.1148  105.2604 H   0  0  0  0  0  0  0  0  0  0  0  0
  119.8711  107.4205  105.5819 H   0  0  0  0  0  0  0  0  0  0  0  0
  126.0821  103.8283  106.7175 H   0  0  0  0  0  0  0  0  0  0  0  0
  124.6145  103.1259  107.4260 H   0  0  0  0  0  0  0  0  0  0  0  0
  126.2062  102.6496  108.0285 H   0  0  0  0  0  0  0  0  0  0  0  0
  123.6648  105.3748  108.0058 H   0  0  0  0  0  0  0  0  0  0  0  0
  124.5645  106.5384  108.9512 H   0  0  0  0  0  0  0  0  0  0  0  0
  127.5591  105.4375  108.2661 H   0  0  0  0  0  0  0  0  0  0  0  0
  127.5327  104.2366  109.5728 H   0  0  0  0  0  0  0  0  0  0  0  0
  125.0929  104.1956  109.5919 H   0  0  0  0  0  0  0  0  0  0  0  0
  127.8716  106.2913  110.5425 H   0  0  0  0  0  0  0  0  0  0  0  0
  126.2842  105.9401  110.8725 H   0  0  0  0  0  0  0  0  0  0  0  0
  126.6618  107.0407  109.6897 H   0  0  0  0  0  0  0  0  0  0  0  0
  1  2  1  0  0  0  0
  1  3  1  0  0  0  0
  2  4  1  0  0  0  0
  3  5  1  0  0  0  0
  4 12  1  0  0  0  0
  5  6  1  0  0  0  0
  5 12  1  0  0  0  0
  7 10  1  0  0  0  0
  8 10  1  0  0  0  0
  8 11  1  0  0  0  0
  9 10  1  0  0  0  0
  9 13  1  0  0  0  0
 11 16  1  0  0  0  0
 12 16  1  0  0  0  0
 14 16  2  0  0  0  0
 15 16  2  0  0  0  0
  1 17  1  0  0  0  0
  1 18  1  0  0  0  0
  2 19  1  0  0  0  0
  2 20  1  0  0  0  0
  3 21  1  0  0  0  0
  3 22  1  0  0  0  0
  4 23  1  0  0  0  0
  4 24  1  0  0  0  0
  5 25  1  0  0  0  0
  6 26  1  0  0  0  0
  6 27  1  0  0  0  0
  6 28  1  0  0  0  0
  7 29  1  0  0  0  0
  7 30  1  0  0  0  0
  7 31  1  0  0  0  0
  8 32  1  0  0  0  0
  8 33  1  0  0  0  0
  9 34  1  0  0  0  0
  9 35  1  0  0  0  0
 10 36  1  0  0  0  0
 13 37  1  0  0  0  0
 13 38  1  0  0  0  0
 13 39  1  0  0  0  0
M  CHG  2  11  -1  13   1
M  END
> <FRED Chemgauss4 score>
-7.255666

$$$$
C37820463	P56254837
  -OEChem-05182014473D

 46 46  0     1  0  0  0  0  0999 V2000
  118.9201  107.6518  107.7409 C   0  0  0  0  0  0  0  0  0  0  0  0
  121.2912  109.7667  109.3711 C   0  0  0  0  0  0  0  0  0  0  0  0
  122.5882  108.9595  109.3174 C   0  0  0  0  0  0  0  0  0  0  0  0
  120.0823  108.8563  109.5624 C   0  0  0  0  0  0  0  0  0  0  0  0
  121.2640  106.9823  108.4719 C   0  0  0  0  0  0  0  0  0  0  0  0
  122.5074  107.8557  108.2513 C   0  0  2  0  0  0  0  0  0  0  0  0
  116.5206  104.8345  102.8112 C   0  0  0  0  0  0  0  0  0  0  0  0
  117.3585  104.1842  105.6357 C   0  0  0  0  0  0  0  0  0  0  0  0
  118.9694  106.5546  106.7076 C   0  0  0  0  0  0  0  0  0  0  0  0
  123.7750  107.0053  108.2555 C   0  0  0  0  0  0  0  0  0  0  0  0
  116.5825  105.8667  103.9298 C   0  0  0  0  0  0  0  0  0  0  0  0
  117.6452  105.5334  104.9848 C   0  0  1  0  0  0  0  0  0  0  0  0
  120.0526  107.8104  108.5389 N   0  0  0  0  0  0  0  0  0  0  0  0
  125.8598  105.9520  105.8291 N   0  0  0  0  0  0  0  0  0  0  0  0
  117.7174  106.5746  106.0140 N   0  0  0  0  0  0  0  0  0  0  0  0
  124.8079  107.6748  107.5388 N   0  0  0  0  0  0  0  0  0  0  0  0
  117.9056  108.3478  107.8325 O   0  0  0  0  0  0  0  0  0  0  0  0
  123.6701  107.1615  105.2444 O   0  0  0  0  0  0  0  0  0  0  0  0
  125.8215  108.4705  105.2897 O   0  0  0  0  0  0  0  0  0  0  0  0
  124.9740  107.4220  105.8246 S   0  0  0  0  0  0  0  0  0  0  0  0
  121.3412  110.4968  110.1864 H   0  0  0  0  0  0  0  0  0  0  0  0
  121.1796  110.3301  108.4364 H   0  0  0  0  0  0  0  0  0  0  0  0
  123.4274  109.6309  109.1015 H   0  0  0  0  0  0  0  0  0  0  0  0
  122.7787  108.5154  110.3026 H   0  0  0  0  0  0  0  0  0  0  0  0
  120.1265  108.3585  110.5384 H   0  0  0  0  0  0  0  0  0  0  0  0
  119.1644  109.4517  109.5400 H   0  0  0  0  0  0  0  0  0  0  0  0
  121.1971  106.2313  107.6822 H   0  0  0  0  0  0  0  0  0  0  0  0
  121.3340  106.4408  109.4236 H   0  0  0  0  0  0  0  0  0  0  0  0
  122.4210  108.3375  107.2678 H   0  0  0  0  0  0  0  0  0  0  0  0
  116.3020  103.8354  103.2003 H   0  0  0  0  0  0  0  0  0  0  0  0
  115.7305  105.0972  102.1005 H   0  0  0  0  0  0  0  0  0  0  0  0
  117.4677  104.7925  102.2640 H   0  0  0  0  0  0  0  0  0  0  0  0
  116.3776  104.1838  106.1219 H   0  0  0  0  0  0  0  0  0  0  0  0
  117.3754  103.3750  104.8970 H   0  0  0  0  0  0  0  0  0  0  0  0
  118.1125  103.9514  106.3957 H   0  0  0  0  0  0  0  0  0  0  0  0
  119.1193  105.6104  107.2227 H   0  0  0  0  0  0  0  0  0  0  0  0
  119.7962  106.7600  106.0341 H   0  0  0  0  0  0  0  0  0  0  0  0
  123.5608  106.0594  107.7755 H   0  0  0  0  0  0  0  0  0  0  0  0
  124.0917  106.8500  109.2782 H   0  0  0  0  0  0  0  0  0  0  0  0
  116.8033  106.8445  103.4847 H   0  0  0  0  0  0  0  0  0  0  0  0
  115.5934  105.9425  104.3983 H   0  0  0  0  0  0  0  0  0  0  0  0
  118.6327  105.4936  104.5105 H   0  0  0  0  0  0  0  0  0  0  0  0
  125.3622  105.1349  106.2082 H   0  0  0  0  0  0  0  0  0  0  0  0
  126.8102  106.0079  106.2196 H   0  0  0  0  0  0  0  0  0  0  0  0
  117.5720  107.4847  105.5581 H   0  0  0  0  0  0  0  0  0  0  0  0
  125.7314  107.7583  108.0314 H   0  0  0  0  0  0  0  0  0  0  0  0
  1  9  1  0  0  0  0
  1 13  1  0  0  0  0
  1 17  2  0  0  0  0
  2  3  1  0  0  0  0
  2  4  1  0  0  0  0
  3  6  1  0  0  0  0
  4 13  1  0  0  0  0
  5  6  1  0  0  0  0
  5 13  1  0  0  0  0
  6 10  1  0  0  0  0
  7 11  1  0  0  0  0
  8 12  1  0  0  0  0
  9 15  1  0  0  0  0
 10 16  1  0  0  0  0
 11 12  1  0  0  0  0
 12 15  1  0  0  0  0
 14 20  1  0  0  0  0
 16 20  1  0  0  0  0
 18 20  2  0  0  0  0
 19 20  2  0  0  0  0
  2 21  1  0  0  0  0
  2 22  1  0  0  0  0
  3 23  1  0  0  0  0
  3 24  1  0  0  0  0
  4 25  1  0  0  0  0
  4 26  1  0  0  0  0
  5 27  1  0  0  0  0
  5 28  1  0  0  0  0
  6 29  1  0  0  0  0
  7 30  1  0  0  0  0
  7 31  1  0  0  0  0
  7 32  1  0  0  0  0
  8 33  1  0  0  0  0
  8 34  1  0  0  0  0
  8 35  1  0  0  0  0
  9 36  1  0  0  0  0
  9 37  1  0  0  0  0
 10 38  1  0  0  0  0
 10 39  1  0  0  0  0
 11 40  1  0  0  0  0
 11 41  1  0  0  0  0
 12 42  1  0  0  0  0
 14 43  1  0  0  0  0
 14 44  1  0  0  0  0
 15 45  1  0  0  0  0
 16 46  1  0  0  0  0
M  END
> <FRED Chemgauss4 score>
-7.240985

$$$$
C35367280	P52475196
  -OEChem-05182014473D

 43 44  0     1  0  0  0  0  0999 V2000
  123.8581  106.8479  108.0012 C   0  0  0  0  0  0  0  0  0  0  0  0
  123.6994  104.7218  106.8647 C   0  0  0  0  0  0  0  0  0  0  0  0
  125.1549  107.0115  107.5141 C   0  0  0  0  0  0  0  0  0  0  0  0
  124.9961  104.8854  106.3775 C   0  0  0  0  0  0  0  0  0  0  0  0
  123.1304  105.7030  107.6765 C   0  0  0  0  0  0  0  0  0  0  0  0
  125.7239  106.0303  106.7022 C   0  0  0  0  0  0  0  0  0  0  0  0
  121.0369  106.7415  105.2246 C   0  0  0  0  0  0  0  0  0  0  0  0
  119.2377  105.5490  106.0405 C   0  0  0  0  0  0  0  0  0  0  0  0
  120.2524  106.3293  104.0105 C   0  0  0  0  0  0  0  0  0  0  0  0
  119.2150  105.3283  104.5381 C   0  0  1  0  0  0  0  0  0  0  0  0
  119.6437  103.8863  104.2478 C   0  0  0  0  0  0  0  0  0  0  0  0
  116.9976  104.3193  103.9483 C   0  0  0  0  0  0  0  0  0  0  0  0
  117.1209  106.6831  104.7855 C   0  0  0  0  0  0  0  0  0  0  0  0
  120.7818  106.6135  107.6872 C   0  0  0  0  0  0  0  0  0  0  0  0
  121.7253  105.5246  108.2042 C   0  0  1  0  0  0  0  0  0  0  0  0
  117.8236  105.6014  103.9715 C   0  0  0  0  0  0  0  0  0  0  0  0
  120.3586  106.2952  106.3372 N   0  0  0  0  0  0  0  0  0  0  0  0
  127.0343  106.1962  106.2080 N   0  0  0  0  0  0  0  0  0  0  0  0
  122.0689  107.3967  105.1855 O   0  0  0  0  0  0  0  0  0  0  0  0
  118.4128  105.0954  106.8224 O   0  0  0  0  0  0  0  0  0  0  0  0
  121.2501  104.2410  107.7975 O   0  0  0  0  0  0  0  0  0  0  0  0
  123.4230  107.6168  108.6338 H   0  0  0  0  0  0  0  0  0  0  0  0
  123.1407  103.8259  106.6079 H   0  0  0  0  0  0  0  0  0  0  0  0
  125.7137  107.9067  107.7743 H   0  0  0  0  0  0  0  0  0  0  0  0
  125.4299  104.1141  105.7463 H   0  0  0  0  0  0  0  0  0  0  0  0
  119.7956  107.2073  103.5444 H   0  0  0  0  0  0  0  0  0  0  0  0
  120.9482  105.8691  103.3005 H   0  0  0  0  0  0  0  0  0  0  0  0
  119.6340  103.7071  103.1738 H   0  0  0  0  0  0  0  0  0  0  0  0
  118.9575  103.1925  104.7309 H   0  0  0  0  0  0  0  0  0  0  0  0
  120.6496  103.7162  104.6285 H   0  0  0  0  0  0  0  0  0  0  0  0
  116.8522  103.9187  104.9575 H   0  0  0  0  0  0  0  0  0  0  0  0
  117.4900  103.5487  103.3460 H   0  0  0  0  0  0  0  0  0  0  0  0
  116.0103  104.5049  103.5122 H   0  0  0  0  0  0  0  0  0  0  0  0
  116.9801  106.3725  105.8265 H   0  0  0  0  0  0  0  0  0  0  0  0
  116.1356  106.9051  104.3621 H   0  0  0  0  0  0  0  0  0  0  0  0
  117.7021  107.6113  104.7850 H   0  0  0  0  0  0  0  0  0  0  0  0
  121.2809  107.5886  107.6748 H   0  0  0  0  0  0  0  0  0  0  0  0
  119.8906  106.6969  108.3189 H   0  0  0  0  0  0  0  0  0  0  0  0
  121.7397  105.5236  109.3012 H   0  0  0  0  0  0  0  0  0  0  0  0
  117.9396  105.9596  102.9431 H   0  0  0  0  0  0  0  0  0  0  0  0
  127.5276  107.0428  106.4077 H   0  0  0  0  0  0  0  0  0  0  0  0
  127.4128  105.5080  105.5890 H   0  0  0  0  0  0  0  0  0  0  0  0
  120.3513  104.1579  108.1499 H   0  0  0  0  0  0  0  0  0  0  0  0
  1  3  2  0  0  0  0
  1  5  1  0  0  0  0
  2  4  1  0  0  0  0
  2  5  2  0  0  0  0
  3  6  1  0  0  0  0
  4  6  2  0  0  0  0
  5 15  1  0  0  0  0
  6 18  1  0  0  0  0
  7  9  1  0  0  0  0
  7 17  1  0  0  0  0
  7 19  2  0  0  0  0
  8 10  1  0  0  0  0
  8 17  1  0  0  0  0
  8 20  2  0  0  0  0
  9 10  1  0  0  0  0
 10 11  1  0  0  0  0
 10 16  1  0  0  0  0
 12 16  1  0  0  0  0
 13 16  1  0  0  0  0
 14 15  1  0  0  0  0
 14 17  1  0  0  0  0
 15 21  1  0  0  0  0
  1 22  1  0  0  0  0
  2 23  1  0  0  0  0
  3 24  1  0  0  0  0
  4 25  1  0  0  0  0
  9 26  1  0  0  0  0
  9 27  1  0  0  0  0
 11 28  1  0  0  0  0
 11 29  1  0  0  0  0
 11 30  1  0  0  0  0
 12 31  1  0  0  0  0
 12 32  1  0  0  0  0
 12 33  1  0  0  0  0
 13 34  1  0  0  0  0
 13 35  1  0  0  0  0
 13 36  1  0  0  0  0
 14 37  1  0  0  0  0
 14 38  1  0  0  0  0
 15 39  1  0  0  0  0
 16 40  1  0  0  0  0
 18 41  1  0  0  0  0
 18 42  1  0  0  0  0
 21 43  1  0  0  0  0
M  END
> <FRED Chemgauss4 score>
-7.237026

$$$$
C82899427	P129595484
  -OEChem-05182014473D

 29 29  0     1  0  0  0  0  0999 V2000
  120.6414  105.4366  102.8577 C   0  0  0  0  0  0  0  0  0  0  0  0
  119.7803  104.2883  102.3749 C   0  0  0  0  0  0  0  0  0  0  0  0
  119.7127  104.3258  104.7035 C   0  0  0  0  0  0  0  0  0  0  0  0
  121.0077  104.9791  104.2528 C   0  0  2  0  0  0  0  0  0  0  0  0
  121.4821  106.0919  105.1676 C   0  0  0  0  0  0  0  0  0  0  0  0
  125.6572  107.1052  107.2223 C   0  0  0  0  0  0  0  0  0  0  0  0
  123.4763  107.0455  105.9653 C   0  0  0  0  0  0  0  0  0  0  0  0
  124.9877  106.8433  105.8752 C   0  0  1  0  0  0  0  0  0  0  0  0
  125.5504  107.7155  104.8649 N   0  0  0  0  0  0  0  0  0  0  0  0
  119.1158  103.7539  103.5294 O   0  0  0  0  0  0  0  0  0  0  0  0
  125.4265  108.4551  107.6097 O   0  0  0  0  0  0  0  0  0  0  0  0
  122.8446  106.3694  104.8855 O   0  0  0  0  0  0  0  0  0  0  0  0
  121.5060  105.6156  102.2125 H   0  0  0  0  0  0  0  0  0  0  0  0
  120.0472  106.3577  102.8966 H   0  0  0  0  0  0  0  0  0  0  0  0
  119.0388  104.6017  101.6347 H   0  0  0  0  0  0  0  0  0  0  0  0
  120.3910  103.4889  101.9418 H   0  0  0  0  0  0  0  0  0  0  0  0
  119.8771  103.5404  105.4471 H   0  0  0  0  0  0  0  0  0  0  0  0
  119.0040  105.0526  105.1156 H   0  0  0  0  0  0  0  0  0  0  0  0
  121.7894  104.2116  104.1784 H   0  0  0  0  0  0  0  0  0  0  0  0
  121.3914  105.7894  106.2141 H   0  0  0  0  0  0  0  0  0  0  0  0
  120.8941  106.9983  105.0019 H   0  0  0  0  0  0  0  0  0  0  0  0
  126.7401  106.9590  107.1527 H   0  0  0  0  0  0  0  0  0  0  0  0
  125.2596  106.4468  108.0025 H   0  0  0  0  0  0  0  0  0  0  0  0
  123.2088  108.1067  105.9155 H   0  0  0  0  0  0  0  0  0  0  0  0
  123.0838  106.6249  106.8969 H   0  0  0  0  0  0  0  0  0  0  0  0
  125.2103  105.8255  105.5334 H   0  0  0  0  0  0  0  0  0  0  0  0
  125.0136  107.9045  104.0395 H   0  0  0  0  0  0  0  0  0  0  0  0
  126.5260  107.9417  104.9142 H   0  0  0  0  0  0  0  0  0  0  0  0
  125.8665  108.5779  108.4658 H   0  0  0  0  0  0  0  0  0  0  0  0
  1  2  1  0  0  0  0
  1  4  1  0  0  0  0
  2 10  1  0  0  0  0
  3  4  1  0  0  0  0
  3 10  1  0  0  0  0
  4  5  1  0  0  0  0
  5 12  1  0  0  0  0
  6  8  1  0  0  0  0
  6 11  1  0  0  0  0
  7  8  1  0  0  0  0
  7 12  1  0  0  0  0
  8  9  1  0  0  0  0
  1 13  1  0  0  0  0
  1 14  1  0  0  0  0
  2 15  1  0  0  0  0
  2 16  1  0  0  0  0
  3 17  1  0  0  0  0
  3 18  1  0  0  0  0
  4 19  1  0  0  0  0
  5 20  1  0  0  0  0
  5 21  1  0  0  0  0
  6 22  1  0  0  0  0
  6 23  1  0  0  0  0
  7 24  1  0  0  0  0
  7 25  1  0  0  0  0
  8 26  1  0  0  0  0
  9 27  1  0  0  0  0
  9 28  1  0  0  0  0
 11 29  1  0  0  0  0
M  END
> <FRED Chemgauss4 score>
-7.231652

$$$$
C85247316	P133396585
  -OEChem-05182014473D

 26 26  0     1  0  0  0  0  0999 V2000
  120.5396  104.9351  106.4063 C   0  0  0  0  0  0  0  0  0  0  0  0
  119.6470  103.7777  105.9864 C   0  0  0  0  0  0  0  0  0  0  0  0
  120.1180  105.6491  104.1144 C   0  0  0  0  0  0  0  0  0  0  0  0
  121.2277  105.4244  105.1348 C   0  0  1  0  0  0  0  0  0  0  0  0
  123.2605  106.3585  106.0014 C   0  0  0  0  0  0  0  0  0  0  0  0
  125.1346  107.4662  107.3324 C   0  0  0  0  0  0  0  0  0  0  0  0
  124.0473  107.6399  106.2763 C   0  0  1  0  0  0  0  0  0  0  0  0
  121.9794  106.6491  105.3731 N   0  0  0  0  0  0  0  0  0  0  0  0
  124.5253  107.0817  108.5612 O   0  0  0  0  0  0  0  0  0  0  0  0
  124.6611  108.0960  105.0702 O   0  0  0  0  0  0  0  0  0  0  0  0
  118.9688  104.2663  104.3748 S   0  0  0  0  0  0  0  0  0  0  0  0
  119.9327  105.7317  106.8580 H   0  0  0  0  0  0  0  0  0  0  0  0
  121.2634  104.6126  107.1631 H   0  0  0  0  0  0  0  0  0  0  0  0
  120.2276  102.8586  105.8601 H   0  0  0  0  0  0  0  0  0  0  0  0
  118.8488  103.5929  106.7104 H   0  0  0  0  0  0  0  0  0  0  0  0
  119.5743  106.5831  104.2932 H   0  0  0  0  0  0  0  0  0  0  0  0
  120.4959  105.6568  103.0878 H   0  0  0  0  0  0  0  0  0  0  0  0
  121.9208  104.6601  104.7716 H   0  0  0  0  0  0  0  0  0  0  0  0
  123.8302  105.7064  105.3308 H   0  0  0  0  0  0  0  0  0  0  0  0
  123.0876  105.8119  106.9343 H   0  0  0  0  0  0  0  0  0  0  0  0
  125.6735  108.4038  107.5000 H   0  0  0  0  0  0  0  0  0  0  0  0
  125.8426  106.6790  107.0544 H   0  0  0  0  0  0  0  0  0  0  0  0
  123.3551  108.4288  106.5938 H   0  0  0  0  0  0  0  0  0  0  0  0
  122.1402  107.1210  104.4840 H   0  0  0  0  0  0  0  0  0  0  0  0
  125.2425  106.9808  109.2063 H   0  0  0  0  0  0  0  0  0  0  0  0
  123.9415  108.2604  104.4426 H   0  0  0  0  0  0  0  0  0  0  0  0
  1  2  1  0  0  0  0
  1  4  1  0  0  0  0
  2 11  1  0  0  0  0
  3  4  1  0  0  0  0
  3 11  1  0  0  0  0
  4  8  1  0  0  0  0
  5  7  1  0  0  0  0
  5  8  1  0  0  0  0
  6  7  1  0  0  0  0
  6  9  1  0  0  0  0
  7 10  1  0  0  0  0
  1 12  1  0  0  0  0
  1 13  1  0  0  0  0
  2 14  1  0  0  0  0
  2 15  1  0  0  0  0
  3 16  1  0  0  0  0
  3 17  1  0  0  0  0
  4 18  1  0  0  0  0
  5 19  1  0  0  0  0
  5 20  1  0  0  0  0
  6 21  1  0  0  0  0
  6 22  1  0  0  0  0
  7 23  1  0  0  0  0
  8 24  1  0  0  0  0
  9 25  1  0  0  0  0
 10 26  1  0  0  0  0
M  END
> <FRED Chemgauss4 score>
-7.228917

$$$$
C71215192	P109951876
  -OEChem-05182014473D

 34 35  0     0  0  0  0  0  0999 V2000
  124.0509  108.5018  105.6655 C   0  0  0  0  0  0  0  0  0  0  0  0
  123.7912  107.1600  105.7591 C   0  0  0  0  0  0  0  0  0  0  0  0
  122.4713  106.5682  106.0294 C   0  0  0  0  0  0  0  0  0  0  0  0
  123.9199  106.7419  108.7189 C   0  0  0  0  0  0  0  0  0  0  0  0
  120.5758  104.2466  106.3369 C   0  0  0  0  0  0  0  0  0  0  0  0
  119.9699  106.2943  107.6861 C   0  0  0  0  0  0  0  0  0  0  0  0
  119.1799  103.6889  106.5765 C   0  0  0  0  0  0  0  0  0  0  0  0
  118.5790  105.7194  107.9141 C   0  0  0  0  0  0  0  0  0  0  0  0
  121.0050  105.1833  107.4725 C   0  0  0  0  0  0  0  0  0  0  0  0
  123.3879  105.4606  108.1194 C   0  0  0  0  0  0  0  0  0  0  0  0
  125.8750  107.4278  105.3546 N   0  5  0  0  0  0  0  0  0  0  0  0
  125.3577  108.6887  105.4108 N   0  0  0  0  0  0  0  0  0  0  0  0
  124.9279  106.4688  105.5662 N   0  0  0  0  0  0  0  0  0  0  0  0
  125.2640  106.9182  108.4697 N   0  0  0  0  0  0  0  0  0  0  0  0
  122.3105  105.7674  107.1725 N   0  0  0  0  0  0  0  0  0  0  0  0
  118.2253  104.8201  106.7754 N   0  3  0  0  0  0  0  0  0  0  0  0
  121.5798  106.8350  105.2243 O   0  0  0  0  0  0  0  0  0  0  0  0
  123.2258  107.5572  109.3202 O   0  0  0  0  0  0  0  0  0  0  0  0
  123.3540  109.3226  105.7712 H   0  0  0  0  0  0  0  0  0  0  0  0
  121.2890  103.4188  106.2424 H   0  0  0  0  0  0  0  0  0  0  0  0
  120.5983  104.7856  105.3805 H   0  0  0  0  0  0  0  0  0  0  0  0
  119.9548  106.9625  106.8147 H   0  0  0  0  0  0  0  0  0  0  0  0
  120.2548  106.9133  108.5455 H   0  0  0  0  0  0  0  0  0  0  0  0
  118.8227  103.1167  105.7153 H   0  0  0  0  0  0  0  0  0  0  0  0
  119.1344  103.0613  107.4725 H   0  0  0  0  0  0  0  0  0  0  0  0
  118.5239  105.1232  108.8308 H   0  0  0  0  0  0  0  0  0  0  0  0
  117.8201  106.5065  107.9472 H   0  0  0  0  0  0  0  0  0  0  0  0
  121.1331  104.6162  108.3906 H   0  0  0  0  0  0  0  0  0  0  0  0
  122.9810  104.8061  108.8949 H   0  0  0  0  0  0  0  0  0  0  0  0
  124.1899  104.9480  107.5813 H   0  0  0  0  0  0  0  0  0  0  0  0
  125.7897  106.2332  107.9369 H   0  0  0  0  0  0  0  0  0  0  0  0
  125.7770  107.7286  108.8019 H   0  0  0  0  0  0  0  0  0  0  0  0
  118.1635  105.3728  105.9087 H   0  0  0  0  0  0  0  0  0  0  0  0
  117.2813  104.4399  106.9285 H   0  0  0  0  0  0  0  0  0  0  0  0
  1  2  1  0  0  0  0
  1 12  2  0  0  0  0
  2  3  1  0  0  0  0
  2 13  2  0  0  0  0
  3 15  1  0  0  0  0
  3 17  2  0  0  0  0
  4 10  1  0  0  0  0
  4 14  1  0  0  0  0
  4 18  2  0  0  0  0
  5  7  1  0  0  0  0
  5  9  1  0  0  0  0
  6  8  1  0  0  0  0
  6  9  1  0  0  0  0
  7 16  1  0  0  0  0
  8 16  1  0  0  0  0
  9 15  1  0  0  0  0
 10 15  1  0  0  0  0
 11 12  1  0  0  0  0
 11 13  1  0  0  0  0
  1 19  1  0  0  0  0
  5 20  1  0  0  0  0
  5 21  1  0  0  0  0
  6 22  1  0  0  0  0
  6 23  1  0  0  0  0
  7 24  1  0  0  0  0
  7 25  1  0  0  0  0
  8 26  1  0  0  0  0
  8 27  1  0  0  0  0
  9 28  1  0  0  0  0
 10 29  1  0  0  0  0
 10 30  1  0  0  0  0
 14 31  1  0  0  0  0
 14 32  1  0  0  0  0
 16 33  1  0  0  0  0
 16 34  1  0  0  0  0
M  CHG  2  11  -1  16   1
M  END
> <FRED Chemgauss4 score>
-7.228872

$$$$
C84174532	P131723943
  -OEChem-05182014473D

 39 39  0     1  0  0  0  0  0999 V2000
  125.1966  106.4225  109.7967 C   0  0  0  0  0  0  0  0  0  0  0  0
  125.8327  105.5738  108.7016 C   0  0  0  0  0  0  0  0  0  0  0  0
  123.7234  106.6775  109.4892 C   0  0  0  0  0  0  0  0  0  0  0  0
  125.6380  106.1975  107.3253 C   0  0  0  0  0  0  0  0  0  0  0  0
  123.5013  107.2811  108.0965 C   0  0  1  0  0  0  0  0  0  0  0  0
  120.7585  104.5830  103.8330 C   0  0  0  0  0  0  0  0  0  0  0  0
  119.9079  104.3639  106.1765 C   0  0  0  0  0  0  0  0  0  0  0  0
  123.9362  108.7428  108.0127 C   0  0  0  0  0  0  0  0  0  0  0  0
  122.3873  104.5497  105.7900 C   0  0  0  0  0  0  0  0  0  0  0  0
  120.9947  104.9823  105.2930 C   0  0  0  0  0  0  0  0  0  0  0  0
  123.4472  105.1608  104.9999 N   0  5  0  0  0  0  0  0  0  0  0  0
  124.1885  106.4305  107.0701 N   0  0  1  0  0  0  0  0  0  0  0  0
  123.1228  109.5336  108.9582 N   0  3  0  0  0  0  0  0  0  0  0  0
  124.9193  107.2726  104.8129 O   0  0  0  0  0  0  0  0  0  0  0  0
  122.5638  107.5335  105.4953 O   0  0  0  0  0  0  0  0  0  0  0  0
  123.7417  106.6662  105.4362 S   0  0  0  0  0  0  0  0  0  0  0  0
  125.2887  105.9110  110.7626 H   0  0  0  0  0  0  0  0  0  0  0  0
  125.7291  107.3762  109.8847 H   0  0  0  0  0  0  0  0  0  0  0  0
  126.9069  105.4618  108.9068 H   0  0  0  0  0  0  0  0  0  0  0  0
  125.3987  104.5655  108.7165 H   0  0  0  0  0  0  0  0  0  0  0  0
  123.1707  105.7294  109.5815 H   0  0  0  0  0  0  0  0  0  0  0  0
  123.3128  107.3515  110.2595 H   0  0  0  0  0  0  0  0  0  0  0  0
  126.1752  107.1527  107.2973 H   0  0  0  0  0  0  0  0  0  0  0  0
  126.0523  105.5479  106.5446 H   0  0  0  0  0  0  0  0  0  0  0  0
  122.3979  107.2373  107.8658 H   0  0  0  0  0  0  0  0  0  0  0  0
  120.8374  103.4973  103.7114 H   0  0  0  0  0  0  0  0  0  0  0  0
  121.4943  105.0505  103.1698 H   0  0  0  0  0  0  0  0  0  0  0  0
  119.7604  104.8790  103.4950 H   0  0  0  0  0  0  0  0  0  0  0  0
  119.9514  103.2701  106.1390 H   0  0  0  0  0  0  0  0  0  0  0  0
  118.9116  104.6685  105.8389 H   0  0  0  0  0  0  0  0  0  0  0  0
  120.0213  104.6722  107.2215 H   0  0  0  0  0  0  0  0  0  0  0  0
  123.7671  109.1433  107.0152 H   0  0  0  0  0  0  0  0  0  0  0  0
  124.9799  108.8558  108.2990 H   0  0  0  0  0  0  0  0  0  0  0  0
  122.4982  104.8416  106.8421 H   0  0  0  0  0  0  0  0  0  0  0  0
  122.4631  103.4553  105.7672 H   0  0  0  0  0  0  0  0  0  0  0  0
  120.9063  106.0745  105.3671 H   0  0  0  0  0  0  0  0  0  0  0  0
  123.7057  109.9479  109.6967 H   0  0  0  0  0  0  0  0  0  0  0  0
  122.4102  108.9505  109.4155 H   0  0  0  0  0  0  0  0  0  0  0  0
  122.6352  110.3019  108.4797 H   0  0  0  0  0  0  0  0  0  0  0  0
  1  2  1  0  0  0  0
  1  3  1  0  0  0  0
  2  4  1  0  0  0  0
  3  5  1  0  0  0  0
  4 12  1  0  0  0  0
  5  8  1  0  0  0  0
  5 12  1  0  0  0  0
  6 10  1  0  0  0  0
  7 10  1  0  0  0  0
  8 13  1  0  0  0  0
  9 10  1  0  0  0  0
  9 11  1  0  0  0  0
 11 16  1  0  0  0  0
 12 16  1  0  0  0  0
 14 16  2  0  0  0  0
 15 16  2  0  0  0  0
  1 17  1  0  0  0  0
  1 18  1  0  0  0  0
  2 19  1  0  0  0  0
  2 20  1  0  0  0  0
  3 21  1  0  0  0  0
  3 22  1  0  0  0  0
  4 23  1  0  0  0  0
  4 24  1  0  0  0  0
  5 25  1  0  0  0  0
  6 26  1  0  0  0  0
  6 27  1  0  0  0  0
  6 28  1  0  0  0  0
  7 29  1  0  0  0  0
  7 30  1  0  0  0  0
  7 31  1  0  0  0  0
  8 32  1  0  0  0  0
  8 33  1  0  0  0  0
  9 34  1  0  0  0  0
  9 35  1  0  0  0  0
 10 36  1  0  0  0  0
 13 37  1  0  0  0  0
 13 38  1  0  0  0  0
 13 39  1  0  0  0  0
M  CHG  2  11  -1  13   1
M  END
> <FRED Chemgauss4 score>
-7.226286

$$$$
C62362185	P95703184
  -OEChem-05182014473D

 24 25  0     1  0  0  0  0  0999 V2000
  120.4767  105.7401  106.5180 C   0  0  0  0  0  0  0  0  0  0  0  0
  119.2883  107.1383  104.9575 C   0  0  0  0  0  0  0  0  0  0  0  0
  121.2599  106.5132  105.6868 C   0  0  0  0  0  0  0  0  0  0  0  0
  122.7351  106.4929  105.7421 C   0  0  0  0  0  0  0  0  0  0  0  0
  124.7174  106.0444  106.2763 C   0  0  0  0  0  0  0  0  0  0  0  0
  126.8357  104.9832  109.3603 C   0  0  0  0  0  0  0  0  0  0  0  0
  125.7287  105.6586  108.5600 C   0  0  0  0  0  0  0  0  0  0  0  0
  125.8240  105.3610  107.0538 C   0  0  2  0  0  0  0  0  0  0  0  0
  120.5802  107.3153  104.7910 N   0  0  0  0  0  0  0  0  0  0  0  0
  123.4929  107.2231  104.9576 N   0  0  0  0  0  0  0  0  0  0  0  0
  124.7969  106.9279  105.3089 N   0  0  0  0  0  0  0  0  0  0  0  0
  127.1198  105.7274  106.5273 N   0  0  0  0  0  0  0  0  0  0  0  0
  123.4393  105.7155  106.6096 O   0  0  0  0  0  0  0  0  0  0  0  0
  118.8204  106.0221  106.1741 S   0  0  0  0  0  0  0  0  0  0  0  0
  120.7799  105.0437  107.2877 H   0  0  0  0  0  0  0  0  0  0  0  0
  118.5545  107.6662  104.3641 H   0  0  0  0  0  0  0  0  0  0  0  0
  127.8229  105.2812  108.9928 H   0  0  0  0  0  0  0  0  0  0  0  0
  126.7665  105.2703  110.4144 H   0  0  0  0  0  0  0  0  0  0  0  0
  126.7610  103.8929  109.3042 H   0  0  0  0  0  0  0  0  0  0  0  0
  124.7598  105.3337  108.9597 H   0  0  0  0  0  0  0  0  0  0  0  0
  125.7937  106.7413  108.7274 H   0  0  0  0  0  0  0  0  0  0  0  0
  125.7457  104.2764  106.9080 H   0  0  0  0  0  0  0  0  0  0  0  0
  127.2142  105.8832  105.5402 H   0  0  0  0  0  0  0  0  0  0  0  0
  127.9277  105.6201  107.1136 H   0  0  0  0  0  0  0  0  0  0  0  0
  1  3  2  0  0  0  0
  1 14  1  0  0  0  0
  2  9  2  0  0  0  0
  2 14  1  0  0  0  0
  3  4  1  0  0  0  0
  3  9  1  0  0  0  0
  4 10  2  0  0  0  0
  4 13  1  0  0  0  0
  5  8  1  0  0  0  0
  5 11  2  0  0  0  0
  5 13  1  0  0  0  0
  6  7  1  0  0  0  0
  7  8  1  0  0  0  0
  8 12  1  0  0  0  0
 10 11  1  0  0  0  0
  1 15  1  0  0  0  0
  2 16  1  0  0  0  0
  6 17  1  0  0  0  0
  6 18  1  0  0  0  0
  6 19  1  0  0  0  0
  7 20  1  0  0  0  0
  7 21  1  0  0  0  0
  8 22  1  0  0  0  0
 12 23  1  0  0  0  0
 12 24  1  0  0  0  0
M  END
> <FRED Chemgauss4 score>
-7.225224

$$$$
C93779559	P146920627
  -OEChem-05182014473D

 43 44  0     1  0  0  0  0  0999 V2000
  123.8365  107.7831  108.0517 C   0  0  0  0  0  0  0  0  0  0  0  0
  125.5981  107.1493  106.9452 C   0  0  0  0  0  0  0  0  0  0  0  0
  120.4217  107.1452  104.8788 C   0  0  0  0  0  0  0  0  0  0  0  0
  118.5847  108.1476  108.0025 C   0  0  0  0  0  0  0  0  0  0  0  0
  119.8968  108.4561  108.7327 C   0  0  0  0  0  0  0  0  0  0  0  0
  118.7886  107.9611  106.5019 C   0  0  0  0  0  0  0  0  0  0  0  0
  120.8417  106.6122  107.2700 C   0  0  0  0  0  0  0  0  0  0  0  0
  121.1385  107.9268  108.0004 C   0  0  2  0  0  0  0  0  0  0  0  0
  119.7495  106.8012  106.2016 C   0  0  2  0  0  0  0  0  0  0  0  0
  120.4147  104.0845  104.7999 C   0  0  0  0  0  0  0  0  0  0  0  0
  118.9186  103.1439  106.6030 C   0  0  0  0  0  0  0  0  0  0  0  0
  124.7192  105.4573  108.5916 C   0  0  0  0  0  0  0  0  0  0  0  0
  119.7975  104.3068  106.1713 C   0  0  0  0  0  0  0  0  0  0  0  0
  124.0795  108.8087  107.2923 N   0  0  0  0  0  0  0  0  0  0  0  0
  125.1840  108.4391  106.5835 N   0  0  0  0  0  0  0  0  0  0  0  0
  124.6974  106.7411  107.9099 N   0  0  0  0  0  0  0  0  0  0  0  0
  118.9641  105.5316  106.1186 N   0  3  0  0  0  0  0  0  0  0  0  0
  119.8285  106.7242  103.8472 O   0  5  0  0  0  0  0  0  0  0  0  0
  126.5546  106.5402  106.4887 O   0  0  0  0  0  0  0  0  0  0  0  0
  121.4904  107.8099  104.9848 O   0  0  0  0  0  0  0  0  0  0  0  0
  122.5164  107.7130  109.1780 S   0  0  0  0  0  0  0  0  0  0  0  0
  118.1382  107.2391  108.4283 H   0  0  0  0  0  0  0  0  0  0  0  0
  117.8681  108.9601  108.1861 H   0  0  0  0  0  0  0  0  0  0  0  0
  119.9732  109.5501  108.8705 H   0  0  0  0  0  0  0  0  0  0  0  0
  119.8402  108.0251  109.7502 H   0  0  0  0  0  0  0  0  0  0  0  0
  117.8154  107.7623  106.0431 H   0  0  0  0  0  0  0  0  0  0  0  0
  119.1611  108.8940  106.0712 H   0  0  0  0  0  0  0  0  0  0  0  0
  121.7560  106.2280  106.8061 H   0  0  0  0  0  0  0  0  0  0  0  0
  120.5064  105.8598  107.9929 H   0  0  0  0  0  0  0  0  0  0  0  0
  121.4644  108.6856  107.2676 H   0  0  0  0  0  0  0  0  0  0  0  0
  119.6362  103.8952  104.0535 H   0  0  0  0  0  0  0  0  0  0  0  0
  120.9913  104.9566  104.4718 H   0  0  0  0  0  0  0  0  0  0  0  0
  121.0872  103.2198  104.8079 H   0  0  0  0  0  0  0  0  0  0  0  0
  118.1386  102.9537  105.8582 H   0  0  0  0  0  0  0  0  0  0  0  0
  118.4275  103.3445  107.5615 H   0  0  0  0  0  0  0  0  0  0  0  0
  119.5073  102.2266  106.7114 H   0  0  0  0  0  0  0  0  0  0  0  0
  124.1230  104.7276  108.0376 H   0  0  0  0  0  0  0  0  0  0  0  0
  124.3062  105.5572  109.5990 H   0  0  0  0  0  0  0  0  0  0  0  0
  125.7453  105.0876  108.6686 H   0  0  0  0  0  0  0  0  0  0  0  0
  120.5768  104.4959  106.9166 H   0  0  0  0  0  0  0  0  0  0  0  0
  125.5959  109.0664  105.9046 H   0  0  0  0  0  0  0  0  0  0  0  0
  118.2832  105.5191  106.8854 H   0  0  0  0  0  0  0  0  0  0  0  0
  118.4196  105.5418  105.2496 H   0  0  0  0  0  0  0  0  0  0  0  0
  1 14  2  0  0  0  0
  1 16  1  0  0  0  0
  1 21  1  0  0  0  0
  2 15  1  0  0  0  0
  2 16  1  0  0  0  0
  2 19  2  0  0  0  0
  3  9  1  0  0  0  0
  3 18  1  0  0  0  0
  3 20  2  0  0  0  0
  4  5  1  0  0  0  0
  4  6  1  0  0  0  0
  5  8  1  0  0  0  0
  6  9  1  0  0  0  0
  7  8  1  0  0  0  0
  7  9  1  0  0  0  0
  8 21  1  0  0  0  0
  9 17  1  0  0  0  0
 10 13  1  0  0  0  0
 11 13  1  0  0  0  0
 12 16  1  0  0  0  0
 13 17  1  0  0  0  0
 14 15  1  0  0  0  0
  4 22  1  0  0  0  0
  4 23  1  0  0  0  0
  5 24  1  0  0  0  0
  5 25  1  0  0  0  0
  6 26  1  0  0  0  0
  6 27  1  0  0  0  0
  7 28  1  0  0  0  0
  7 29  1  0  0  0  0
  8 30  1  0  0  0  0
 10 31  1  0  0  0  0
 10 32  1  0  0  0  0
 10 33  1  0  0  0  0
 11 34  1  0  0  0  0
 11 35  1  0  0  0  0
 11 36  1  0  0  0  0
 12 37  1  0  0  0  0
 12 38  1  0  0  0  0
 12 39  1  0  0  0  0
 13 40  1  0  0  0  0
 15 41  1  0  0  0  0
 17 42  1  0  0  0  0
 17 43  1  0  0  0  0
M  CHG  2  17   1  18  -1
M  END
> <FRED Chemgauss4 score>
-7.224850

$$$$
C06759849	P10673122
  -OEChem-05182014473D

 42 44  0     1  0  0  0  0  0999 V2000
  117.8697  103.1514  105.0584 C   0  0  0  0  0  0  0  0  0  0  0  0
  118.6062  105.1214  103.8694 C   0  0  0  0  0  0  0  0  0  0  0  0
  116.5899  103.3089  104.5267 C   0  0  0  0  0  0  0  0  0  0  0  0
  117.3263  105.2788  103.3376 C   0  0  0  0  0  0  0  0  0  0  0  0
  118.8779  104.0577  104.7298 C   0  0  0  0  0  0  0  0  0  0  0  0
  116.3181  104.3726  103.6663 C   0  0  0  0  0  0  0  0  0  0  0  0
  126.0644  105.7724  107.0251 C   0  0  0  0  0  0  0  0  0  0  0  0
  123.2468  105.7905  108.6858 C   0  0  0  0  0  0  0  0  0  0  0  0
  120.8460  105.8970  106.6411 C   0  0  0  0  0  0  0  0  0  0  0  0
  126.0656  104.5522  107.9118 C   0  0  0  0  0  0  0  0  0  0  0  0
  125.5452  105.0856  109.2457 C   0  0  0  0  0  0  0  0  0  0  0  0
  120.0771  107.6630  108.2488 C   0  0  0  0  0  0  0  0  0  0  0  0
  122.6645  108.1557  108.0252 C   0  0  0  0  0  0  0  0  0  0  0  0
  124.6684  106.2641  108.8617 C   0  0  1  0  0  0  0  0  0  0  0  0
  120.9316  106.4224  108.0461 C   0  0  2  0  0  0  0  0  0  0  0  0
  120.2560  103.8876  105.3007 C   0  0  0  0  0  0  0  0  0  0  0  0
  125.2493  106.7225  107.6292 N   0  0  0  0  0  0  0  0  0  0  0  0
  122.3324  106.7586  108.2810 N   0  0  0  0  0  0  0  0  0  0  0  0
  120.4120  104.5879  106.5553 N   0  0  0  0  0  0  0  0  0  0  0  0
  126.6492  105.8704  105.9574 O   0  0  0  0  0  0  0  0  0  0  0  0
  122.9578  104.6116  108.8999 O   0  0  0  0  0  0  0  0  0  0  0  0
  121.1498  106.6259  105.7039 O   0  0  0  0  0  0  0  0  0  0  0  0
  121.1215  109.0485  107.7313 S   0  0  0  0  0  0  0  0  0  0  0  0
  114.7393  104.5665  103.0103 Cl  0  0  0  0  0  0  0  0  0  0  0  0
  118.0734  102.3201  105.7283 H   0  0  0  0  0  0  0  0  0  0  0  0
  119.3862  105.8317  103.6082 H   0  0  0  0  0  0  0  0  0  0  0  0
  115.8144  102.5946  104.7915 H   0  0  0  0  0  0  0  0  0  0  0  0
  117.1292  106.1125  102.6685 H   0  0  0  0  0  0  0  0  0  0  0  0
  125.3895  103.8045  107.4859 H   0  0  0  0  0  0  0  0  0  0  0  0
  127.0719  104.1371  108.0061 H   0  0  0  0  0  0  0  0  0  0  0  0
  125.0286  104.3158  109.8257 H   0  0  0  0  0  0  0  0  0  0  0  0
  126.3915  105.4486  109.8413 H   0  0  0  0  0  0  0  0  0  0  0  0
  119.1434  107.6422  107.6795 H   0  0  0  0  0  0  0  0  0  0  0  0
  119.8416  107.7986  109.3093 H   0  0  0  0  0  0  0  0  0  0  0  0
  123.1890  108.5749  108.8882 H   0  0  0  0  0  0  0  0  0  0  0  0
  123.3116  108.2141  107.1451 H   0  0  0  0  0  0  0  0  0  0  0  0
  124.6867  107.0550  109.6255 H   0  0  0  0  0  0  0  0  0  0  0  0
  120.6175  105.6107  108.7117 H   0  0  0  0  0  0  0  0  0  0  0  0
  120.4732  102.8283  105.4764 H   0  0  0  0  0  0  0  0  0  0  0  0
  121.0170  104.2653  104.6096 H   0  0  0  0  0  0  0  0  0  0  0  0
  125.0803  107.6456  107.2416 H   0  0  0  0  0  0  0  0  0  0  0  0
  120.1920  104.0943  107.4152 H   0  0  0  0  0  0  0  0  0  0  0  0
  1  3  1  0  0  0  0
  1  5  2  0  0  0  0
  2  4  2  0  0  0  0
  2  5  1  0  0  0  0
  3  6  2  0  0  0  0
  4  6  1  0  0  0  0
  5 16  1  0  0  0  0
  6 24  1  0  0  0  0
  7 10  1  0  0  0  0
  7 17  1  0  0  0  0
  7 20  2  0  0  0  0
  8 14  1  0  0  0  0
  8 18  1  0  0  0  0
  8 21  2  0  0  0  0
  9 15  1  0  0  0  0
  9 19  1  0  0  0  0
  9 22  2  0  0  0  0
 10 11  1  0  0  0  0
 11 14  1  0  0  0  0
 12 15  1  0  0  0  0
 12 23  1  0  0  0  0
 13 18  1  0  0  0  0
 13 23  1  0  0  0  0
 14 17  1  0  0  0  0
 15 18  1  0  0  0  0
 16 19  1  0  0  0  0
  1 25  1  0  0  0  0
  2 26  1  0  0  0  0
  3 27  1  0  0  0  0
  4 28  1  0  0  0  0
 10 29  1  0  0  0  0
 10 30  1  0  0  0  0
 11 31  1  0  0  0  0
 11 32  1  0  0  0  0
 12 33  1  0  0  0  0
 12 34  1  0  0  0  0
 13 35  1  0  0  0  0
 13 36  1  0  0  0  0
 14 37  1  0  0  0  0
 15 38  1  0  0  0  0
 16 39  1  0  0  0  0
 16 40  1  0  0  0  0
 17 41  1  0  0  0  0
 19 42  1  0  0  0  0
M  END
> <FRED Chemgauss4 score>
-7.218416

$$$$
C83272026	P130167815
  -OEChem-05182014473D

 20 20  0     1  0  0  0  0  0999 V2000
  123.4955  104.9097  106.7275 C   0  0  0  0  0  0  0  0  0  0  0  0
  122.2360  105.1707  106.1994 C   0  0  0  0  0  0  0  0  0  0  0  0
  124.3181  106.8192  105.5727 C   0  0  0  0  0  0  0  0  0  0  0  0
  124.5617  105.7448  106.4131 C   0  0  0  0  0  0  0  0  0  0  0  0
  122.0964  106.2708  105.3688 C   0  0  0  0  0  0  0  0  0  0  0  0
  125.9799  105.5386  108.5016 C   0  0  0  0  0  0  0  0  0  0  0  0
  125.9207  105.4925  106.9623 C   0  0  2  0  0  0  0  0  0  0  0  0
  123.1087  107.1047  105.0406 N   0  0  0  0  0  0  0  0  0  0  0  0
  126.9073  106.4218  106.4281 N   0  0  0  0  0  0  0  0  0  0  0  0
  125.5424  104.2975  109.0456 O   0  0  0  0  0  0  0  0  0  0  0  0
  120.5804  106.6696  104.6722 Cl  0  0  0  0  0  0  0  0  0  0  0  0
  123.6368  104.0542  107.3822 H   0  0  0  0  0  0  0  0  0  0  0  0
  121.3979  104.5245  106.4388 H   0  0  0  0  0  0  0  0  0  0  0  0
  125.1111  107.5059  105.2924 H   0  0  0  0  0  0  0  0  0  0  0  0
  127.0095  105.7030  108.8378 H   0  0  0  0  0  0  0  0  0  0  0  0
  125.3465  106.3345  108.9082 H   0  0  0  0  0  0  0  0  0  0  0  0
  126.2912  104.4984  106.6480 H   0  0  0  0  0  0  0  0  0  0  0  0
  126.8204  106.7072  105.4751 H   0  0  0  0  0  0  0  0  0  0  0  0
  127.7399  106.5818  106.9558 H   0  0  0  0  0  0  0  0  0  0  0  0
  125.5997  104.3819  110.0104 H   0  0  0  0  0  0  0  0  0  0  0  0
  1  2  1  0  0  0  0
  1  4  2  0  0  0  0
  2  5  2  0  0  0  0
  3  4  1  0  0  0  0
  3  8  2  0  0  0  0
  4  7  1  0  0  0  0
  5  8  1  0  0  0  0
  5 11  1  0  0  0  0
  6  7  1  0  0  0  0
  6 10  1  0  0  0  0
  7  9  1  0  0  0  0
  1 12  1  0  0  0  0
  2 13  1  0  0  0  0
  3 14  1  0  0  0  0
  6 15  1  0  0  0  0
  6 16  1  0  0  0  0
  7 17  1  0  0  0  0
  9 18  1  0  0  0  0
  9 19  1  0  0  0  0
 10 20  1  0  0  0  0
M  END
> <FRED Chemgauss4 score>
-7.217129

$$$$
C16951488	P25522321
  -OEChem-05182014473D

 31 31  0     1  0  0  0  0  0999 V2000
  124.7706  107.1341  106.4281 C   0  0  2  0  0  0  0  0  0  0  0  0
  125.6409  106.0091  106.9893 C   0  0  2  0  0  0  0  0  0  0  0  0
  123.4046  106.5927  106.0056 C   0  0  1  0  0  0  0  0  0  0  0  0
  124.8852  105.2066  108.0556 C   0  0  2  0  0  0  0  0  0  0  0  0
  122.7446  105.7915  107.1389 C   0  0  1  0  0  0  0  0  0  0  0  0
  121.8215  105.9771  109.2921 C   0  0  0  0  0  0  0  0  0  0  0  0
  125.6674  103.9759  108.5061 C   0  0  0  0  0  0  0  0  0  0  0  0
  121.4483  105.1270  106.6708 C   0  0  0  0  0  0  0  0  0  0  0  0
  123.6283  104.7411  107.5519 O   0  0  0  0  0  0  0  0  0  0  0  0
  125.4314  107.6846  105.2865 O   0  0  0  0  0  0  0  0  0  0  0  0
  126.8142  106.5939  107.5492 O   0  0  0  0  0  0  0  0  0  0  0  0
  122.5884  107.6954  105.6172 O   0  0  0  0  0  0  0  0  0  0  0  0
  126.9075  104.4014  109.0401 O   0  0  0  0  0  0  0  0  0  0  0  0
  121.1494  104.0618  107.5522 O   0  0  0  0  0  0  0  0  0  0  0  0
  122.4340  106.6748  108.2205 O   0  0  0  0  0  0  0  0  0  0  0  0
  124.6710  107.9514  107.1528 H   0  0  0  0  0  0  0  0  0  0  0  0
  125.9552  105.3575  106.1638 H   0  0  0  0  0  0  0  0  0  0  0  0
  123.5434  105.9591  105.1196 H   0  0  0  0  0  0  0  0  0  0  0  0
  124.7124  105.8255  108.9454 H   0  0  0  0  0  0  0  0  0  0  0  0
  121.5965  106.6758  110.1015 H   0  0  0  0  0  0  0  0  0  0  0  0
  122.4942  105.1933  109.6495 H   0  0  0  0  0  0  0  0  0  0  0  0
  120.8933  105.5236  108.9366 H   0  0  0  0  0  0  0  0  0  0  0  0
  125.8473  103.3185  107.6557 H   0  0  0  0  0  0  0  0  0  0  0  0
  125.1086  103.4409  109.2736 H   0  0  0  0  0  0  0  0  0  0  0  0
  121.5778  104.7385  105.6622 H   0  0  0  0  0  0  0  0  0  0  0  0
  120.6364  105.8517  106.6883 H   0  0  0  0  0  0  0  0  0  0  0  0
  125.5284  106.9591  104.6521 H   0  0  0  0  0  0  0  0  0  0  0  0
  126.5158  107.1957  108.2485 H   0  0  0  0  0  0  0  0  0  0  0  0
  123.0431  108.1281  104.8782 H   0  0  0  0  0  0  0  0  0  0  0  0
  127.3872  103.6030  109.3197 H   0  0  0  0  0  0  0  0  0  0  0  0
  120.3242  103.6530  107.2387 H   0  0  0  0  0  0  0  0  0  0  0  0
  1  2  1  0  0  0  0
  1  3  1  0  0  0  0
  1 10  1  0  0  0  0
  2  4  1  0  0  0  0
  2 11  1  0  0  0  0
  3  5  1  0  0  0  0
  3 12  1  0  0  0  0
  4  7  1  0  0  0  0
  4  9  1  0  0  0  0
  5  8  1  0  0  0  0
  5  9  1  0  0  0  0
  5 15  1  0  0  0  0
  6 15  1  0  0  0  0
  7 13  1  0  0  0  0
  8 14  1  0  0  0  0
  1 16  1  0  0  0  0
  2 17  1  0  0  0  0
  3 18  1  0  0  0  0
  4 19  1  0  0  0  0
  6 20  1  0  0  0  0
  6 21  1  0  0  0  0
  6 22  1  0  0  0  0
  7 23  1  0  0  0  0
  7 24  1  0  0  0  0
  8 25  1  0  0  0  0
  8 26  1  0  0  0  0
 10 27  1  0  0  0  0
 11 28  1  0  0  0  0
 12 29  1  0  0  0  0
 13 30  1  0  0  0  0
 14 31  1  0  0  0  0
M  END
> <FRED Chemgauss4 score>
-7.203747

$$$$
C80566884	P125793118
  -OEChem-05182014473D

 38 39  0     0  0  0  0  0  0999 V2000
  115.5177  105.5711  103.2970 C   0  0  0  0  0  0  0  0  0  0  0  0
  115.6044  105.9302  104.6420 C   0  0  0  0  0  0  0  0  0  0  0  0
  116.4946  104.7533  102.7291 C   0  0  0  0  0  0  0  0  0  0  0  0
  116.6681  105.4716  105.4191 C   0  0  0  0  0  0  0  0  0  0  0  0
  127.9454  107.4844  108.2972 C   0  0  0  0  0  0  0  0  0  0  0  0
  117.5583  104.2947  103.5062 C   0  0  0  0  0  0  0  0  0  0  0  0
  117.6451  104.6538  104.8512 C   0  0  0  0  0  0  0  0  0  0  0  0
  126.7226  105.8044  108.0986 C   0  0  0  0  0  0  0  0  0  0  0  0
  125.9099  104.6181  107.6412 C   0  0  0  0  0  0  0  0  0  0  0  0
  124.8390  104.9888  106.6181 C   0  0  0  0  0  0  0  0  0  0  0  0
  120.1533  105.4526  105.6154 C   0  0  0  0  0  0  0  0  0  0  0  0
  121.4201  105.2141  106.4158 C   0  0  0  0  0  0  0  0  0  0  0  0
  127.4470  106.6184  107.3665 N   0  0  0  0  0  0  0  0  0  0  0  0
  127.5749  107.2574  109.5592 N   0  0  0  0  0  0  0  0  0  0  0  0
  126.7935  106.1778  109.4045 N   0  0  0  0  0  0  0  0  0  0  0  0
  118.5290  103.4676  102.8962 N   0  0  0  0  0  0  0  0  0  0  0  0
  123.8852  105.9870  107.1341 N   0  0  0  0  0  0  0  0  0  0  0  0
  123.0104  106.4485  104.7432 O   0  0  0  0  0  0  0  0  0  0  0  0
  122.0531  107.7298  106.6922 O   0  0  0  0  0  0  0  0  0  0  0  0
  118.9701  104.1040  105.8823 S   0  0  0  0  0  0  0  0  0  0  0  0
  122.6045  106.5101  106.1337 S   0  0  0  0  0  0  0  0  0  0  0  0
  114.6887  105.9270  102.6925 H   0  0  0  0  0  0  0  0  0  0  0  0
  114.8438  106.5672  105.0842 H   0  0  0  0  0  0  0  0  0  0  0  0
  116.4147  104.4796  101.6800 H   0  0  0  0  0  0  0  0  0  0  0  0
  116.7160  105.7646  106.4652 H   0  0  0  0  0  0  0  0  0  0  0  0
  128.5992  108.3068  108.0479 H   0  0  0  0  0  0  0  0  0  0  0  0
  125.4316  104.1647  108.5186 H   0  0  0  0  0  0  0  0  0  0  0  0
  126.5756  103.8489  107.2292 H   0  0  0  0  0  0  0  0  0  0  0  0
  125.3067  105.4280  105.7312 H   0  0  0  0  0  0  0  0  0  0  0  0
  124.2623  104.1134  106.3017 H   0  0  0  0  0  0  0  0  0  0  0  0
  120.3782  105.5139  104.5456 H   0  0  0  0  0  0  0  0  0  0  0  0
  119.6823  106.3968  105.9076 H   0  0  0  0  0  0  0  0  0  0  0  0
  121.9118  104.2782  106.1311 H   0  0  0  0  0  0  0  0  0  0  0  0
  121.2258  105.2018  107.4929 H   0  0  0  0  0  0  0  0  0  0  0  0
  126.3546  105.7637  110.2186 H   0  0  0  0  0  0  0  0  0  0  0  0
  118.4044  103.1955  101.9437 H   0  0  0  0  0  0  0  0  0  0  0  0
  119.2683  103.0956  103.4546 H   0  0  0  0  0  0  0  0  0  0  0  0
  123.6815  105.8899  108.1373 H   0  0  0  0  0  0  0  0  0  0  0  0
  1  2  1  0  0  0  0
  1  3  2  0  0  0  0
  2  4  2  0  0  0  0
  3  6  1  0  0  0  0
  4  7  1  0  0  0  0
  5 13  1  0  0  0  0
  5 14  2  0  0  0  0
  6  7  2  0  0  0  0
  6 16  1  0  0  0  0
  7 20  1  0  0  0  0
  8  9  1  0  0  0  0
  8 13  2  0  0  0  0
  8 15  1  0  0  0  0
  9 10  1  0  0  0  0
 10 17  1  0  0  0  0
 11 12  1  0  0  0  0
 11 20  1  0  0  0  0
 12 21  1  0  0  0  0
 14 15  1  0  0  0  0
 17 21  1  0  0  0  0
 18 21  2  0  0  0  0
 19 21  2  0  0  0  0
  1 22  1  0  0  0  0
  2 23  1  0  0  0  0
  3 24  1  0  0  0  0
  4 25  1  0  0  0  0
  5 26  1  0  0  0  0
  9 27  1  0  0  0  0
  9 28  1  0  0  0  0
 10 29  1  0  0  0  0
 10 30  1  0  0  0  0
 11 31  1  0  0  0  0
 11 32  1  0  0  0  0
 12 33  1  0  0  0  0
 12 34  1  0  0  0  0
 15 35  1  0  0  0  0
 16 36  1  0  0  0  0
 16 37  1  0  0  0  0
 17 38  1  0  0  0  0
M  END
> <FRED Chemgauss4 score>
-7.203178

$$$$
C54154432	P81466114
  -OEChem-05182014473D

 38 38  0     1  0  0  0  0  0999 V2000
  125.6978  105.8134  107.5791 C   0  0  0  0  0  0  0  0  0  0  0  0
  118.4227  105.4581  105.3817 C   0  0  0  0  0  0  0  0  0  0  0  0
  118.2764  104.8679  103.9799 C   0  0  0  0  0  0  0  0  0  0  0  0
  119.6202  104.8614  106.1108 C   0  0  0  0  0  0  0  0  0  0  0  0
  120.7577  104.4184  103.9552 C   0  0  0  0  0  0  0  0  0  0  0  0
  119.5782  105.0133  103.1782 C   0  0  1  0  0  0  0  0  0  0  0  0
  119.4455  104.3492  101.8095 C   0  0  0  0  0  0  0  0  0  0  0  0
  124.4636  107.6409  108.7761 C   0  0  0  0  0  0  0  0  0  0  0  0
  123.1861  105.8007  107.5833 C   0  0  0  0  0  0  0  0  0  0  0  0
  124.4419  106.6817  107.5818 C   0  0  2  0  0  0  0  0  0  0  0  0
  120.8602  105.0370  105.3067 N   0  0  1  0  0  0  0  0  0  0  0  0
  125.8671  104.9781  108.6506 N   0  0  0  0  0  0  0  0  0  0  0  0
  122.0231  106.5712  107.1023 N   0  0  0  0  0  0  0  0  0  0  0  0
  120.7051  107.5901  105.1491 O   0  0  0  0  0  0  0  0  0  0  0  0
  122.9046  106.4587  104.6729 O   0  0  0  0  0  0  0  0  0  0  0  0
  126.8150  105.8729  106.3336 S   0  0  0  0  0  0  0  0  0  0  0  0
  121.6656  106.5373  105.4241 S   0  0  0  0  0  0  0  0  0  0  0  0
  118.5437  106.5456  105.3042 H   0  0  0  0  0  0  0  0  0  0  0  0
  117.5088  105.2744  105.9570 H   0  0  0  0  0  0  0  0  0  0  0  0
  117.9999  103.8074  104.0595 H   0  0  0  0  0  0  0  0  0  0  0  0
  117.4535  105.3717  103.4565 H   0  0  0  0  0  0  0  0  0  0  0  0
  119.7364  105.3703  107.0788 H   0  0  0  0  0  0  0  0  0  0  0  0
  119.4574  103.7914  106.3111 H   0  0  0  0  0  0  0  0  0  0  0  0
  120.6521  103.3269  104.0585 H   0  0  0  0  0  0  0  0  0  0  0  0
  121.6888  104.6112  103.4008 H   0  0  0  0  0  0  0  0  0  0  0  0
  119.7668  106.0832  103.0224 H   0  0  0  0  0  0  0  0  0  0  0  0
  119.2573  103.2837  101.9324 H   0  0  0  0  0  0  0  0  0  0  0  0
  120.3649  104.4855  101.2421 H   0  0  0  0  0  0  0  0  0  0  0  0
  118.6181  104.7963  101.2605 H   0  0  0  0  0  0  0  0  0  0  0  0
  124.4705  107.0893  109.7219 H   0  0  0  0  0  0  0  0  0  0  0  0
  125.3455  108.2903  108.7608 H   0  0  0  0  0  0  0  0  0  0  0  0
  123.5786  108.2865  108.7719 H   0  0  0  0  0  0  0  0  0  0  0  0
  123.3165  104.9351  106.9241 H   0  0  0  0  0  0  0  0  0  0  0  0
  122.9603  105.4223  108.5861 H   0  0  0  0  0  0  0  0  0  0  0  0
  124.4360  107.2961  106.6709 H   0  0  0  0  0  0  0  0  0  0  0  0
  125.2017  104.9273  109.4147 H   0  0  0  0  0  0  0  0  0  0  0  0
  126.6783  104.3721  108.7163 H   0  0  0  0  0  0  0  0  0  0  0  0
  121.2152  106.5327  107.7375 H   0  0  0  0  0  0  0  0  0  0  0  0
  1 10  1  0  0  0  0
  1 12  1  0  0  0  0
  1 16  2  0  0  0  0
  2  3  1  0  0  0  0
  2  4  1  0  0  0  0
  3  6  1  0  0  0  0
  4 11  1  0  0  0  0
  5  6  1  0  0  0  0
  5 11  1  0  0  0  0
  6  7  1  0  0  0  0
  8 10  1  0  0  0  0
  9 10  1  0  0  0  0
  9 13  1  0  0  0  0
 11 17  1  0  0  0  0
 13 17  1  0  0  0  0
 14 17  2  0  0  0  0
 15 17  2  0  0  0  0
  2 18  1  0  0  0  0
  2 19  1  0  0  0  0
  3 20  1  0  0  0  0
  3 21  1  0  0  0  0
  4 22  1  0  0  0  0
  4 23  1  0  0  0  0
  5 24  1  0  0  0  0
  5 25  1  0  0  0  0
  6 26  1  0  0  0  0
  7 27  1  0  0  0  0
  7 28  1  0  0  0  0
  7 29  1  0  0  0  0
  8 30  1  0  0  0  0
  8 31  1  0  0  0  0
  8 32  1  0  0  0  0
  9 33  1  0  0  0  0
  9 34  1  0  0  0  0
 10 35  1  0  0  0  0
 12 36  1  0  0  0  0
 12 37  1  0  0  0  0
 13 38  1  0  0  0  0
M  END
> <FRED Chemgauss4 score>
-7.200391

$$$$
C95660646	P150432542
  -OEChem-05182014473D

 27 27  0     1  0  0  0  0  0999 V2000
  121.4660  104.9551  105.9553 C   0  0  0  0  0  0  0  0  0  0  0  0
  122.4978  105.6024  106.6762 C   0  0  0  0  0  0  0  0  0  0  0  0
  121.3385  105.6425  104.7707 C   0  0  0  0  0  0  0  0  0  0  0  0
  122.9274  106.6390  105.8806 C   0  0  0  0  0  0  0  0  0  0  0  0
  121.2331  105.2802  102.2920 C   0  0  0  0  0  0  0  0  0  0  0  0
  125.8229  105.9442  106.4764 C   0  0  0  0  0  0  0  0  0  0  0  0
  120.4607  105.4805  103.6032 C   0  0  0  0  0  0  0  0  0  0  0  0
  123.9954  107.7104  106.0529 C   0  0  1  0  0  0  0  0  0  0  0  0
  125.1452  107.2218  106.9674 C   0  0  1  0  0  0  0  0  0  0  0  0
  124.4921  108.1490  104.7440 N   0  0  0  0  0  0  0  0  0  0  0  0
  122.2258  106.6703  104.7173 O   0  0  0  0  0  0  0  0  0  0  0  0
  124.6218  106.9488  108.2718 O   0  0  0  0  0  0  0  0  0  0  0  0
  120.8887  104.0950  106.2630 H   0  0  0  0  0  0  0  0  0  0  0  0
  122.8786  105.3428  107.6537 H   0  0  0  0  0  0  0  0  0  0  0  0
  121.9298  106.1084  102.1239 H   0  0  0  0  0  0  0  0  0  0  0  0
  120.5572  105.2260  101.4329 H   0  0  0  0  0  0  0  0  0  0  0  0
  121.8152  104.3529  102.3247 H   0  0  0  0  0  0  0  0  0  0  0  0
  125.1068  105.1295  106.3371 H   0  0  0  0  0  0  0  0  0  0  0  0
  126.5973  105.6166  107.1788 H   0  0  0  0  0  0  0  0  0  0  0  0
  126.3242  106.1237  105.5187 H   0  0  0  0  0  0  0  0  0  0  0  0
  119.7705  104.6210  103.7305 H   0  0  0  0  0  0  0  0  0  0  0  0
  119.7887  106.3544  103.4764 H   0  0  0  0  0  0  0  0  0  0  0  0
  123.5281  108.5804  106.5335 H   0  0  0  0  0  0  0  0  0  0  0  0
  125.9104  107.9972  107.0874 H   0  0  0  0  0  0  0  0  0  0  0  0
  125.3802  108.5938  104.7120 H   0  0  0  0  0  0  0  0  0  0  0  0
  123.8470  108.1702  103.9883 H   0  0  0  0  0  0  0  0  0  0  0  0
  125.3805  106.7046  108.8211 H   0  0  0  0  0  0  0  0  0  0  0  0
  1  2  1  0  0  0  0
  1  3  2  0  0  0  0
  2  4  2  0  0  0  0
  3  7  1  0  0  0  0
  3 11  1  0  0  0  0
  4  8  1  0  0  0  0
  4 11  1  0  0  0  0
  5  7  1  0  0  0  0
  6  9  1  0  0  0  0
  8  9  1  0  0  0  0
  8 10  1  0  0  0  0
  9 12  1  0  0  0  0
  1 13  1  0  0  0  0
  2 14  1  0  0  0  0
  5 15  1  0  0  0  0
  5 16  1  0  0  0  0
  5 17  1  0  0  0  0
  6 18  1  0  0  0  0
  6 19  1  0  0  0  0
  6 20  1  0  0  0  0
  7 21  1  0  0  0  0
  7 22  1  0  0  0  0
  8 23  1  0  0  0  0
  9 24  1  0  0  0  0
 10 25  1  0  0  0  0
 10 26  1  0  0  0  0
 12 27  1  0  0  0  0
M  END
> <FRED Chemgauss4 score>
-7.197371

$$$$
C83551924	P130695650
  -OEChem-05182014473D

 40 42  0     1  0  0  0  0  0999 V2000
  124.6045  108.6495  108.2916 C   0  0  0  0  0  0  0  0  0  0  0  0
  124.7913  108.6530  106.9093 C   0  0  0  0  0  0  0  0  0  0  0  0
  123.8227  107.6596  108.8872 C   0  0  0  0  0  0  0  0  0  0  0  0
  123.4146  106.6768  106.7182 C   0  0  0  0  0  0  0  0  0  0  0  0
  124.1964  107.6667  106.1226 C   0  0  0  0  0  0  0  0  0  0  0  0
  123.2277  106.6733  108.1005 C   0  0  0  0  0  0  0  0  0  0  0  0
  118.9545  104.7452  101.2737 C   0  0  0  0  0  0  0  0  0  0  0  0
  117.6753  104.2619  101.9441 C   0  0  0  0  0  0  0  0  0  0  0  0
  120.1020  104.6853  102.2713 C   0  0  0  0  0  0  0  0  0  0  0  0
  119.8609  104.5478  105.8116 C   0  0  0  0  0  0  0  0  0  0  0  0
  117.3685  105.1033  103.1790 C   0  0  0  0  0  0  0  0  0  0  0  0
  118.6004  104.1192  105.0777 C   0  0  0  0  0  0  0  0  0  0  0  0
  119.7943  105.4743  103.5579 C   0  0  2  0  0  0  0  0  0  0  0  0
  120.7632  105.0553  104.6864 C   0  0  1  0  0  0  0  0  0  0  0  0
  122.7838  105.6251  105.8521 C   0  0  0  0  0  0  0  0  0  0  0  0
  118.4644  105.2150  104.1291 N   0  0  1  0  0  0  0  0  0  0  0  0
  121.6324  106.1390  105.1211 N   0  0  0  0  0  0  0  0  0  0  0  0
  124.3912  107.6877  104.7740 O   0  0  0  0  0  0  0  0  0  0  0  0
  122.2677  105.4659  108.8756 Cl  0  0  0  0  0  0  0  0  0  0  0  0
  125.0677  109.4175  108.9041 H   0  0  0  0  0  0  0  0  0  0  0  0
  125.4016  109.4270  106.4520 H   0  0  0  0  0  0  0  0  0  0  0  0
  123.6871  107.6712  109.9658 H   0  0  0  0  0  0  0  0  0  0  0  0
  119.1791  104.1308  100.4029 H   0  0  0  0  0  0  0  0  0  0  0  0
  118.8196  105.7731  100.9342 H   0  0  0  0  0  0  0  0  0  0  0  0
  116.8441  104.3176  101.2409 H   0  0  0  0  0  0  0  0  0  0  0  0
  117.7939  103.2158  102.2351 H   0  0  0  0  0  0  0  0  0  0  0  0
  120.3185  103.6285  102.5234 H   0  0  0  0  0  0  0  0  0  0  0  0
  121.0264  105.0757  101.8065 H   0  0  0  0  0  0  0  0  0  0  0  0
  119.6240  105.3334  106.5319 H   0  0  0  0  0  0  0  0  0  0  0  0
  120.3319  103.7203  106.3432 H   0  0  0  0  0  0  0  0  0  0  0  0
  117.0241  106.1228  102.8574 H   0  0  0  0  0  0  0  0  0  0  0  0
  116.4760  104.6636  103.6940 H   0  0  0  0  0  0  0  0  0  0  0  0
  118.7263  103.1695  104.5749 H   0  0  0  0  0  0  0  0  0  0  0  0
  117.7675  104.0698  105.7714 H   0  0  0  0  0  0  0  0  0  0  0  0
  119.9476  106.5514  103.3426 H   0  0  0  0  0  0  0  0  0  0  0  0
  121.4073  104.2318  104.3403 H   0  0  0  0  0  0  0  0  0  0  0  0
  123.5048  105.2437  105.1209 H   0  0  0  0  0  0  0  0  0  0  0  0
  122.4466  104.7728  106.4514 H   0  0  0  0  0  0  0  0  0  0  0  0
  121.9593  106.6580  104.3055 H   0  0  0  0  0  0  0  0  0  0  0  0
  124.9558  108.4373  104.5291 H   0  0  0  0  0  0  0  0  0  0  0  0
  1  2  1  0  0  0  0
  1  3  2  0  0  0  0
  2  5  2  0  0  0  0
  3  6  1  0  0  0  0
  4  5  1  0  0  0  0
  4  6  2  0  0  0  0
  4 15  1  0  0  0  0
  5 18  1  0  0  0  0
  6 19  1  0  0  0  0
  7  8  1  0  0  0  0
  7  9  1  0  0  0  0
  8 11  1  0  0  0  0
  9 13  1  0  0  0  0
 10 12  1  0  0  0  0
 10 14  1  0  0  0  0
 11 16  1  0  0  0  0
 12 16  1  0  0  0  0
 13 14  1  0  0  0  0
 13 16  1  0  0  0  0
 14 17  1  0  0  0  0
 15 17  1  0  0  0  0
  1 20  1  0  0  0  0
  2 21  1  0  0  0  0
  3 22  1  0  0  0  0
  7 23  1  0  0  0  0
  7 24  1  0  0  0  0
  8 25  1  0  0  0  0
  8 26  1  0  0  0  0
  9 27  1  0  0  0  0
  9 28  1  0  0  0  0
 10 29  1  0  0  0  0
 10 30  1  0  0  0  0
 11 31  1  0  0  0  0
 11 32  1  0  0  0  0
 12 33  1  0  0  0  0
 12 34  1  0  0  0  0
 13 35  1  0  0  0  0
 14 36  1  0  0  0  0
 15 37  1  0  0  0  0
 15 38  1  0  0  0  0
 17 39  1  0  0  0  0
 18 40  1  0  0  0  0
M  END
> <FRED Chemgauss4 score>
-7.196392

$$$$
C88474213	P138392897
  -OEChem-05182014473D

 37 37  0     1  0  0  0  0  0999 V2000
  123.7607  106.7576  109.2511 C   0  0  0  0  0  0  0  0  0  0  0  0
  122.7234  105.7421  108.7697 C   0  0  0  0  0  0  0  0  0  0  0  0
  125.1879  106.3016  108.9911 C   0  0  0  0  0  0  0  0  0  0  0  0
  124.1435  104.9268  106.8272 C   0  0  0  0  0  0  0  0  0  0  0  0
  122.7985  105.4960  107.2596 C   0  0  1  0  0  0  0  0  0  0  0  0
  117.6539  104.7277  104.6801 C   0  0  0  0  0  0  0  0  0  0  0  0
  118.8848  105.4029  104.0881 C   0  0  0  0  0  0  0  0  0  0  0  0
  121.4241  105.6535  104.1334 C   0  0  0  0  0  0  0  0  0  0  0  0
  120.2044  104.9196  104.7110 C   0  0  1  0  0  0  0  0  0  0  0  0
  121.3372  107.0966  104.3269 N   0  0  0  0  0  0  0  0  0  0  0  0
  121.7303  104.5372  106.8804 N   0  0  0  0  0  0  0  0  0  0  0  0
  125.3025  107.2672  106.5518 O   0  0  0  0  0  0  0  0  0  0  0  0
  126.7206  105.2662  107.1388 O   0  0  0  0  0  0  0  0  0  0  0  0
  120.1278  106.5627  106.7468 O   0  0  0  0  0  0  0  0  0  0  0  0
  119.1949  104.2361  107.0173 O   0  0  0  0  0  0  0  0  0  0  0  0
  125.4846  106.0149  107.2595 S   0  0  0  0  0  0  0  0  0  0  0  0
  120.1913  105.1400  106.4754 S   0  0  0  0  0  0  0  0  0  0  0  0
  123.5936  107.7075  108.7287 H   0  0  0  0  0  0  0  0  0  0  0  0
  123.6195  106.9629  110.3191 H   0  0  0  0  0  0  0  0  0  0  0  0
  122.8807  104.8034  109.3008 H   0  0  0  0  0  0  0  0  0  0  0  0
  121.7266  106.1030  109.0234 H   0  0  0  0  0  0  0  0  0  0  0  0
  125.9081  107.0547  109.3266 H   0  0  0  0  0  0  0  0  0  0  0  0
  125.3987  105.3644  109.5146 H   0  0  0  0  0  0  0  0  0  0  0  0
  124.3472  103.9695  107.2983 H   0  0  0  0  0  0  0  0  0  0  0  0
  124.1745  104.8135  105.7464 H   0  0  0  0  0  0  0  0  0  0  0  0
  122.6094  106.4091  106.7375 H   0  0  0  0  0  0  0  0  0  0  0  0
  117.5841  104.8879  105.7595 H   0  0  0  0  0  0  0  0  0  0  0  0
  116.7470  105.1415  104.2275 H   0  0  0  0  0  0  0  0  0  0  0  0
  117.6659  103.6502  104.4880 H   0  0  0  0  0  0  0  0  0  0  0  0
  118.8844  105.1983  103.0113 H   0  0  0  0  0  0  0  0  0  0  0  0
  118.7865  106.4890  104.2055 H   0  0  0  0  0  0  0  0  0  0  0  0
  122.3439  105.2828  104.6006 H   0  0  0  0  0  0  0  0  0  0  0  0
  121.5089  105.4507  103.0593 H   0  0  0  0  0  0  0  0  0  0  0  0
  120.3194  103.8400  104.5541 H   0  0  0  0  0  0  0  0  0  0  0  0
  121.8298  107.6874  103.6914 H   0  0  0  0  0  0  0  0  0  0  0  0
  120.9668  107.4344  105.1897 H   0  0  0  0  0  0  0  0  0  0  0  0
  122.0773  103.7301  106.3549 H   0  0  0  0  0  0  0  0  0  0  0  0
  1  2  1  0  0  0  0
  1  3  1  0  0  0  0
  2  5  1  0  0  0  0
  3 16  1  0  0  0  0
  4  5  1  0  0  0  0
  4 16  1  0  0  0  0
  5 11  1  0  0  0  0
  6  7  1  0  0  0  0
  7  9  1  0  0  0  0
  8  9  1  0  0  0  0
  8 10  1  0  0  0  0
  9 17  1  0  0  0  0
 11 17  1  0  0  0  0
 12 16  2  0  0  0  0
 13 16  2  0  0  0  0
 14 17  2  0  0  0  0
 15 17  2  0  0  0  0
  1 18  1  0  0  0  0
  1 19  1  0  0  0  0
  2 20  1  0  0  0  0
  2 21  1  0  0  0  0
  3 22  1  0  0  0  0
  3 23  1  0  0  0  0
  4 24  1  0  0  0  0
  4 25  1  0  0  0  0
  5 26  1  0  0  0  0
  6 27  1  0  0  0  0
  6 28  1  0  0  0  0
  6 29  1  0  0  0  0
  7 30  1  0  0  0  0
  7 31  1  0  0  0  0
  8 32  1  0  0  0  0
  8 33  1  0  0  0  0
  9 34  1  0  0  0  0
 10 35  1  0  0  0  0
 10 36  1  0  0  0  0
 11 37  1  0  0  0  0
M  END
> <FRED Chemgauss4 score>
-7.191359

$$$$
C78406664	P122332302
  -OEChem-05182014473D

 38 39  0     1  0  0  0  0  0999 V2000
  126.0205  106.8787  107.1542 C   0  0  0  0  0  0  0  0  0  0  0  0
  120.8572  106.9571  106.8000 C   0  0  0  0  0  0  0  0  0  0  0  0
  125.4450  104.5083  107.6859 C   0  0  0  0  0  0  0  0  0  0  0  0
  117.1150  106.2981  106.3550 C   0  0  0  0  0  0  0  0  0  0  0  0
  118.0280  105.8681  105.2437 C   0  0  0  0  0  0  0  0  0  0  0  0
  124.3525  104.2849  106.6448 C   0  0  0  0  0  0  0  0  0  0  0  0
  124.0407  106.3926  108.6041 C   0  0  0  0  0  0  0  0  0  0  0  0
  125.4460  105.9488  108.1870 C   0  0  2  0  0  0  0  0  0  0  0  0
  118.4451  106.9763  106.1713 C   0  0  0  0  0  0  0  0  0  0  0  0
  122.9734  104.7633  107.1383 C   0  0  2  0  0  0  0  0  0  0  0  0
  121.9524  104.5088  106.0199 C   0  0  0  0  0  0  0  0  0  0  0  0
  121.7447  106.7042  107.9920 C   0  0  0  0  0  0  0  0  0  0  0  0
  123.0395  106.1865  107.5400 N   0  0  1  0  0  0  0  0  0  0  0  0
  126.1103  108.1851  107.5729 N   0  0  0  0  0  0  0  0  0  0  0  0
  119.5177  106.7934  107.1225 N   0  0  0  0  0  0  0  0  0  0  0  0
  126.3857  106.4824  106.0500 O   0  0  0  0  0  0  0  0  0  0  0  0
  121.2860  107.2702  105.6926 O   0  0  0  0  0  0  0  0  0  0  0  0
  125.2735  103.8322  108.5331 H   0  0  0  0  0  0  0  0  0  0  0  0
  126.4188  104.2439  107.2570 H   0  0  0  0  0  0  0  0  0  0  0  0
  116.2169  106.8413  106.0873 H   0  0  0  0  0  0  0  0  0  0  0  0
  117.0011  105.6322  107.2016 H   0  0  0  0  0  0  0  0  0  0  0  0
  118.5286  104.9128  105.3428 H   0  0  0  0  0  0  0  0  0  0  0  0
  117.7413  106.1228  104.2308 H   0  0  0  0  0  0  0  0  0  0  0  0
  124.6201  104.8054  105.7157 H   0  0  0  0  0  0  0  0  0  0  0  0
  124.3114  103.2158  106.4019 H   0  0  0  0  0  0  0  0  0  0  0  0
  123.7458  105.8503  109.5128 H   0  0  0  0  0  0  0  0  0  0  0  0
  124.0794  107.4590  108.8626 H   0  0  0  0  0  0  0  0  0  0  0  0
  126.1105  106.0188  109.0552 H   0  0  0  0  0  0  0  0  0  0  0  0
  118.4276  107.9815  105.7644 H   0  0  0  0  0  0  0  0  0  0  0  0
  122.6843  104.1508  108.0037 H   0  0  0  0  0  0  0  0  0  0  0  0
  122.2146  105.1034  105.1498 H   0  0  0  0  0  0  0  0  0  0  0  0
  120.9616  104.7884  106.3655 H   0  0  0  0  0  0  0  0  0  0  0  0
  121.9613  103.4554  105.7561 H   0  0  0  0  0  0  0  0  0  0  0  0
  121.9015  107.6384  108.5394 H   0  0  0  0  0  0  0  0  0  0  0  0
  121.2759  105.9706  108.6543 H   0  0  0  0  0  0  0  0  0  0  0  0
  125.7960  108.4192  108.5089 H   0  0  0  0  0  0  0  0  0  0  0  0
  126.4782  108.9248  106.9835 H   0  0  0  0  0  0  0  0  0  0  0  0
  119.2789  106.5320  108.0747 H   0  0  0  0  0  0  0  0  0  0  0  0
  1  8  1  0  0  0  0
  1 14  1  0  0  0  0
  1 16  2  0  0  0  0
  2 12  1  0  0  0  0
  2 15  1  0  0  0  0
  2 17  2  0  0  0  0
  3  6  1  0  0  0  0
  3  8  1  0  0  0  0
  4  5  1  0  0  0  0
  4  9  1  0  0  0  0
  5  9  1  0  0  0  0
  6 10  1  0  0  0  0
  7  8  1  0  0  0  0
  7 13  1  0  0  0  0
  9 15  1  0  0  0  0
 10 11  1  0  0  0  0
 10 13  1  0  0  0  0
 12 13  1  0  0  0  0
  3 18  1  0  0  0  0
  3 19  1  0  0  0  0
  4 20  1  0  0  0  0
  4 21  1  0  0  0  0
  5 22  1  0  0  0  0
  5 23  1  0  0  0  0
  6 24  1  0  0  0  0
  6 25  1  0  0  0  0
  7 26  1  0  0  0  0
  7 27  1  0  0  0  0
  8 28  1  0  0  0  0
  9 29  1  0  0  0  0
 10 30  1  0  0  0  0
 11 31  1  0  0  0  0
 11 32  1  0  0  0  0
 11 33  1  0  0  0  0
 12 34  1  0  0  0  0
 12 35  1  0  0  0  0
 14 36  1  0  0  0  0
 14 37  1  0  0  0  0
 15 38  1  0  0  0  0
M  END
> <FRED Chemgauss4 score>
-7.190663

$$$$
C87448699	P136806035
  -OEChem-05182014473D

 29 29  0     0  0  0  0  0  0999 V2000
  119.8637  104.9255  106.6590 C   0  0  0  0  0  0  0  0  0  0  0  0
  118.1310  104.3300  105.6589 C   0  0  0  0  0  0  0  0  0  0  0  0
  120.8274  105.7727  107.4078 C   0  0  0  0  0  0  0  0  0  0  0  0
  116.8112  104.2043  105.0203 C   0  0  0  0  0  0  0  0  0  0  0  0
  124.4668  105.3843  108.1111 C   0  0  0  0  0  0  0  0  0  0  0  0
  123.0652  105.8599  108.4758 C   0  0  0  0  0  0  0  0  0  0  0  0
  124.7819  105.5806  106.6344 C   0  0  0  0  0  0  0  0  0  0  0  0
  118.6338  105.3758  106.2728 N   0  0  0  0  0  0  0  0  0  0  0  0
  120.1535  103.6668  106.3227 N   0  0  0  0  0  0  0  0  0  0  0  0
  119.0291  103.3089  105.6842 N   0  0  0  0  0  0  0  0  0  0  0  0
  125.4352  107.9821  107.5601 N   0  0  0  0  0  0  0  0  0  0  0  0
  122.0411  105.1780  107.7331 N   0  0  0  0  0  0  0  0  0  0  0  0
  120.5077  106.9185  107.7134 O   0  0  0  0  0  0  0  0  0  0  0  0
  125.5761  107.4914  105.0390 O   0  0  0  0  0  0  0  0  0  0  0  0
  123.3104  107.6828  106.1415 O   0  0  0  0  0  0  0  0  0  0  0  0
  124.7070  107.2861  106.1847 S   0  0  0  0  0  0  0  0  0  0  0  0
  116.8494  104.5000  103.9574 H   0  0  0  0  0  0  0  0  0  0  0  0
  116.4226  103.1706  105.0629 H   0  0  0  0  0  0  0  0  0  0  0  0
  116.0470  104.8333  105.5120 H   0  0  0  0  0  0  0  0  0  0  0  0
  124.5541  104.3198  108.3608 H   0  0  0  0  0  0  0  0  0  0  0  0
  125.2118  105.9111  108.7204 H   0  0  0  0  0  0  0  0  0  0  0  0
  122.8630  105.7084  109.5409 H   0  0  0  0  0  0  0  0  0  0  0  0
  122.9614  106.9271  108.2562 H   0  0  0  0  0  0  0  0  0  0  0  0
  125.7911  105.2333  106.3936 H   0  0  0  0  0  0  0  0  0  0  0  0
  124.0659  105.0561  105.9949 H   0  0  0  0  0  0  0  0  0  0  0  0
  118.9527  102.3736  105.3022 H   0  0  0  0  0  0  0  0  0  0  0  0
  126.3766  108.3796  107.4534 H   0  0  0  0  0  0  0  0  0  0  0  0
  124.8335  108.5098  108.2044 H   0  0  0  0  0  0  0  0  0  0  0  0
  122.2041  104.2008  107.4969 H   0  0  0  0  0  0  0  0  0  0  0  0
  1  3  1  0  0  0  0
  1  8  1  0  0  0  0
  1  9  2  0  0  0  0
  2  4  1  0  0  0  0
  2  8  2  0  0  0  0
  2 10  1  0  0  0  0
  3 12  1  0  0  0  0
  3 13  2  0  0  0  0
  5  6  1  0  0  0  0
  5  7  1  0  0  0  0
  6 12  1  0  0  0  0
  7 16  1  0  0  0  0
  9 10  1  0  0  0  0
 11 16  1  0  0  0  0
 14 16  2  0  0  0  0
 15 16  2  0  0  0  0
  4 17  1  0  0  0  0
  4 18  1  0  0  0  0
  4 19  1  0  0  0  0
  5 20  1  0  0  0  0
  5 21  1  0  0  0  0
  6 22  1  0  0  0  0
  6 23  1  0  0  0  0
  7 24  1  0  0  0  0
  7 25  1  0  0  0  0
 10 26  1  0  0  0  0
 11 27  1  0  0  0  0
 11 28  1  0  0  0  0
 12 29  1  0  0  0  0
M  END
> <FRED Chemgauss4 score>
-7.189738

$$$$
C82915348	P129630587
  -OEChem-05182014473D

 36 36  0     1  0  0  0  0  0999 V2000
  121.4158  104.1307  104.7555 C   0  0  0  0  0  0  0  0  0  0  0  0
  120.2462  104.2299  106.8490 C   0  0  0  0  0  0  0  0  0  0  0  0
  120.0880  104.3250  104.0158 C   0  0  1  0  0  0  0  0  0  0  0  0
  118.9160  104.3944  106.1041 C   0  0  1  0  0  0  0  0  0  0  0  0
  120.0900  103.5743  102.6897 C   0  0  0  0  0  0  0  0  0  0  0  0
  118.4247  105.8402  106.0480 C   0  0  0  0  0  0  0  0  0  0  0  0
  123.6625  105.6185  106.2388 C   0  0  0  0  0  0  0  0  0  0  0  0
  122.6228  104.6347  106.7821 C   0  0  0  0  0  0  0  0  0  0  0  0
  124.4202  108.0232  106.2836 C   0  0  0  0  0  0  0  0  0  0  0  0
  123.2213  107.0784  106.4133 C   0  0  1  0  0  0  0  0  0  0  0  0
  121.3571  104.7904  106.0675 N   0  0  0  0  0  0  0  0  0  0  0  0
  125.0513  107.8927  104.9727 N   0  0  0  0  0  0  0  0  0  0  0  0
  119.0005  103.8171  104.7958 O   0  0  0  0  0  0  0  0  0  0  0  0
  122.2639  107.3803  105.3999 O   0  0  0  0  0  0  0  0  0  0  0  0
  121.6228  103.0591  104.8807 H   0  0  0  0  0  0  0  0  0  0  0  0
  122.2270  104.5603  104.1553 H   0  0  0  0  0  0  0  0  0  0  0  0
  120.1785  104.7249  107.8253 H   0  0  0  0  0  0  0  0  0  0  0  0
  120.4213  103.1610  107.0314 H   0  0  0  0  0  0  0  0  0  0  0  0
  119.9171  105.3868  103.8030 H   0  0  0  0  0  0  0  0  0  0  0  0
  118.1550  103.8138  106.6388 H   0  0  0  0  0  0  0  0  0  0  0  0
  120.2578  102.5115  102.8637 H   0  0  0  0  0  0  0  0  0  0  0  0
  120.8820  103.9571  102.0463 H   0  0  0  0  0  0  0  0  0  0  0  0
  119.1316  103.7038  102.1871 H   0  0  0  0  0  0  0  0  0  0  0  0
  119.1525  106.4563  105.5231 H   0  0  0  0  0  0  0  0  0  0  0  0
  118.2938  106.2240  107.0581 H   0  0  0  0  0  0  0  0  0  0  0  0
  117.4727  105.8854  105.5222 H   0  0  0  0  0  0  0  0  0  0  0  0
  123.8235  105.4117  105.1725 H   0  0  0  0  0  0  0  0  0  0  0  0
  124.6188  105.4615  106.7537 H   0  0  0  0  0  0  0  0  0  0  0  0
  122.4537  104.8026  107.8511 H   0  0  0  0  0  0  0  0  0  0  0  0
  122.9780  103.6062  106.6573 H   0  0  0  0  0  0  0  0  0  0  0  0
  124.0977  109.0622  106.4092 H   0  0  0  0  0  0  0  0  0  0  0  0
  125.1671  107.8004  107.0539 H   0  0  0  0  0  0  0  0  0  0  0  0
  122.7381  107.1992  107.3905 H   0  0  0  0  0  0  0  0  0  0  0  0
  126.0109  108.1481  104.8869 H   0  0  0  0  0  0  0  0  0  0  0  0
  124.4620  107.7528  104.1809 H   0  0  0  0  0  0  0  0  0  0  0  0
  122.7103  107.2433  104.5504 H   0  0  0  0  0  0  0  0  0  0  0  0
  1  3  1  0  0  0  0
  1 11  1  0  0  0  0
  2  4  1  0  0  0  0
  2 11  1  0  0  0  0
  3  5  1  0  0  0  0
  3 13  1  0  0  0  0
  4  6  1  0  0  0  0
  4 13  1  0  0  0  0
  7  8  1  0  0  0  0
  7 10  1  0  0  0  0
  8 11  1  0  0  0  0
  9 10  1  0  0  0  0
  9 12  1  0  0  0  0
 10 14  1  0  0  0  0
  1 15  1  0  0  0  0
  1 16  1  0  0  0  0
  2 17  1  0  0  0  0
  2 18  1  0  0  0  0
  3 19  1  0  0  0  0
  4 20  1  0  0  0  0
  5 21  1  0  0  0  0
  5 22  1  0  0  0  0
  5 23  1  0  0  0  0
  6 24  1  0  0  0  0
  6 25  1  0  0  0  0
  6 26  1  0  0  0  0
  7 27  1  0  0  0  0
  7 28  1  0  0  0  0
  8 29  1  0  0  0  0
  8 30  1  0  0  0  0
  9 31  1  0  0  0  0
  9 32  1  0  0  0  0
 10 33  1  0  0  0  0
 12 34  1  0  0  0  0
 12 35  1  0  0  0  0
 14 36  1  0  0  0  0
M  END
> <FRED Chemgauss4 score>
-7.186494

$$$$
C87047543	P136261645
  -OEChem-05182014473D

 33 33  0     1  0  0  0  0  0999 V2000
  120.1807  104.1735  102.8720 C   0  0  0  0  0  0  0  0  0  0  0  0
  119.9863  104.6537  103.9555 C   0  0  0  0  0  0  0  0  0  0  0  0
  121.8788  106.5231  105.2933 C   0  0  0  0  0  0  0  0  0  0  0  0
  122.9000  107.1984  107.5157 C   0  0  0  0  0  0  0  0  0  0  0  0
  124.1858  106.7824  108.1873 C   0  0  0  0  0  0  0  0  0  0  0  0
  123.1496  106.7595  106.0853 C   0  0  1  0  0  0  0  0  0  0  0  0
  124.5240  105.4890  107.4683 C   0  0  2  0  0  0  0  0  0  0  0  0
  118.8667  106.4911  105.1457 C   0  0  0  0  0  0  0  0  0  0  0  0
  119.0543  104.2194  106.1925 C   0  0  0  0  0  0  0  0  0  0  0  0
  125.9914  105.3230  107.2448 C   0  0  0  0  0  0  0  0  0  0  0  0
  119.7465  105.2440  105.2881 C   0  0  0  0  0  0  0  0  0  0  0  0
  126.4926  106.3939  106.4441 N   0  0  0  0  0  0  0  0  0  0  0  0
  121.0148  105.6143  105.8740 N   0  0  0  0  0  0  0  0  0  0  0  0
  121.7030  107.1235  104.2396 O   0  0  0  0  0  0  0  0  0  0  0  0
  123.8999  105.5382  106.1801 O   0  0  0  0  0  0  0  0  0  0  0  0
  120.3530  103.7478  101.9112 H   0  0  0  0  0  0  0  0  0  0  0  0
  122.0534  106.6660  107.9589 H   0  0  0  0  0  0  0  0  0  0  0  0
  122.7029  108.2682  107.5968 H   0  0  0  0  0  0  0  0  0  0  0  0
  124.9569  107.5456  108.0069 H   0  0  0  0  0  0  0  0  0  0  0  0
  124.0867  106.6540  109.2721 H   0  0  0  0  0  0  0  0  0  0  0  0
  123.7767  107.4987  105.5477 H   0  0  0  0  0  0  0  0  0  0  0  0
  124.1256  104.6270  108.0008 H   0  0  0  0  0  0  0  0  0  0  0  0
  118.6710  106.9523  106.1208 H   0  0  0  0  0  0  0  0  0  0  0  0
  119.3504  107.2502  104.5185 H   0  0  0  0  0  0  0  0  0  0  0  0
  117.9007  106.2510  104.6862 H   0  0  0  0  0  0  0  0  0  0  0  0
  118.8625  104.6293  107.1911 H   0  0  0  0  0  0  0  0  0  0  0  0
  118.0897  103.9061  105.7743 H   0  0  0  0  0  0  0  0  0  0  0  0
  119.6657  103.3170  106.3091 H   0  0  0  0  0  0  0  0  0  0  0  0
  126.1714  104.3848  106.7292 H   0  0  0  0  0  0  0  0  0  0  0  0
  126.5068  105.3281  108.1999 H   0  0  0  0  0  0  0  0  0  0  0  0
  125.9227  106.7705  105.6968 H   0  0  0  0  0  0  0  0  0  0  0  0
  127.4754  106.6343  106.4868 H   0  0  0  0  0  0  0  0  0  0  0  0
  121.2840  105.1861  106.7546 H   0  0  0  0  0  0  0  0  0  0  0  0
  1  2  3  0  0  0  0
  2 11  1  0  0  0  0
  3  6  1  0  0  0  0
  3 13  1  0  0  0  0
  3 14  2  0  0  0  0
  4  5  1  0  0  0  0
  4  6  1  0  0  0  0
  5  7  1  0  0  0  0
  6 15  1  0  0  0  0
  7 10  1  0  0  0  0
  7 15  1  0  0  0  0
  8 11  1  0  0  0  0
  9 11  1  0  0  0  0
 10 12  1  0  0  0  0
 11 13  1  0  0  0  0
  1 16  1  0  0  0  0
  4 17  1  0  0  0  0
  4 18  1  0  0  0  0
  5 19  1  0  0  0  0
  5 20  1  0  0  0  0
  6 21  1  0  0  0  0
  7 22  1  0  0  0  0
  8 23  1  0  0  0  0
  8 24  1  0  0  0  0
  8 25  1  0  0  0  0
  9 26  1  0  0  0  0
  9 27  1  0  0  0  0
  9 28  1  0  0  0  0
 10 29  1  0  0  0  0
 10 30  1  0  0  0  0
 12 31  1  0  0  0  0
 12 32  1  0  0  0  0
 13 33  1  0  0  0  0
M  END
> <FRED Chemgauss4 score>
-7.184896

$$$$
C82574931	P129060506
  -OEChem-05182014473D

 39 39  0     1  0  0  0  0  0999 V2000
  119.5162  105.9928  103.4848 C   0  0  0  0  0  0  0  0  0  0  0  0
  121.9903  106.3743  103.8013 C   0  0  0  0  0  0  0  0  0  0  0  0
  120.4121  107.1206  105.5580 C   0  0  0  0  0  0  0  0  0  0  0  0
  120.9257  105.4613  103.1840 C   0  0  2  0  0  0  0  0  0  0  0  0
  119.2915  106.2462  104.9835 C   0  0  2  0  0  0  0  0  0  0  0  0
  121.1396  105.3289  101.6771 C   0  0  0  0  0  0  0  0  0  0  0  0
  119.1435  104.9389  105.7678 C   0  0  0  0  0  0  0  0  0  0  0  0
  125.0637  103.4169  107.3353 C   0  0  0  0  0  0  0  0  0  0  0  0
  123.3648  105.2306  107.8156 C   0  0  0  0  0  0  0  0  0  0  0  0
  124.3981  104.2664  108.4101 C   0  0  2  0  0  0  0  0  0  0  0  0
  123.8234  105.8026  106.5572 N   0  5  0  0  0  0  0  0  0  0  0  0
  121.7440  106.5120  105.2670 N   0  0  0  0  0  0  0  0  0  0  0  0
  125.4658  105.0480  109.1000 N   0  3  0  0  0  0  0  0  0  0  0  0
  122.4291  107.8426  107.3029 O   0  0  0  0  0  0  0  0  0  0  0  0
  123.7703  108.0207  105.2409 O   0  0  0  0  0  0  0  0  0  0  0  0
  123.0527  107.1466  106.1736 S   0  0  0  0  0  0  0  0  0  0  0  0
  119.3316  106.9128  102.9165 H   0  0  0  0  0  0  0  0  0  0  0  0
  118.7831  105.2561  103.1296 H   0  0  0  0  0  0  0  0  0  0  0  0
  122.9883  105.9549  103.6418 H   0  0  0  0  0  0  0  0  0  0  0  0
  121.9522  107.3593  103.3283 H   0  0  0  0  0  0  0  0  0  0  0  0
  120.3646  108.1167  105.0968 H   0  0  0  0  0  0  0  0  0  0  0  0
  120.2977  107.2470  106.6441 H   0  0  0  0  0  0  0  0  0  0  0  0
  121.0209  104.4716  103.6148 H   0  0  0  0  0  0  0  0  0  0  0  0
  118.3361  106.8036  105.0957 H   0  0  0  0  0  0  0  0  0  0  0  0
  121.0511  106.3063  101.2089 H   0  0  0  0  0  0  0  0  0  0  0  0
  120.3905  104.6606  101.2597 H   0  0  0  0  0  0  0  0  0  0  0  0
  122.1305  104.9253  101.4835 H   0  0  0  0  0  0  0  0  0  0  0  0
  120.0590  104.3553  105.6876 H   0  0  0  0  0  0  0  0  0  0  0  0
  118.3144  104.3596  105.3655 H   0  0  0  0  0  0  0  0  0  0  0  0
  118.9505  105.1582  106.8165 H   0  0  0  0  0  0  0  0  0  0  0  0
  125.5146  104.0526  106.5660 H   0  0  0  0  0  0  0  0  0  0  0  0
  124.3340  102.7650  106.8426 H   0  0  0  0  0  0  0  0  0  0  0  0
  125.8531  102.7836  107.7551 H   0  0  0  0  0  0  0  0  0  0  0  0
  123.1857  106.0388  108.5361 H   0  0  0  0  0  0  0  0  0  0  0  0
  122.4012  104.7210  107.6877 H   0  0  0  0  0  0  0  0  0  0  0  0
  123.9502  103.6212  109.1746 H   0  0  0  0  0  0  0  0  0  0  0  0
  126.3869  104.7966  108.7341 H   0  0  0  0  0  0  0  0  0  0  0  0
  125.4546  104.8590  110.1049 H   0  0  0  0  0  0  0  0  0  0  0  0
  125.3241  106.0507  108.9580 H   0  0  0  0  0  0  0  0  0  0  0  0
  1  4  1  0  0  0  0
  1  5  1  0  0  0  0
  2  4  1  0  0  0  0
  2 12  1  0  0  0  0
  3  5  1  0  0  0  0
  3 12  1  0  0  0  0
  4  6  1  0  0  0  0
  5  7  1  0  0  0  0
  8 10  1  0  0  0  0
  9 10  1  0  0  0  0
  9 11  1  0  0  0  0
 10 13  1  0  0  0  0
 11 16  1  0  0  0  0
 12 16  1  0  0  0  0
 14 16  2  0  0  0  0
 15 16  2  0  0  0  0
  1 17  1  0  0  0  0
  1 18  1  0  0  0  0
  2 19  1  0  0  0  0
  2 20  1  0  0  0  0
  3 21  1  0  0  0  0
  3 22  1  0  0  0  0
  4 23  1  0  0  0  0
  5 24  1  0  0  0  0
  6 25  1  0  0  0  0
  6 26  1  0  0  0  0
  6 27  1  0  0  0  0
  7 28  1  0  0  0  0
  7 29  1  0  0  0  0
  7 30  1  0  0  0  0
  8 31  1  0  0  0  0
  8 32  1  0  0  0  0
  8 33  1  0  0  0  0
  9 34  1  0  0  0  0
  9 35  1  0  0  0  0
 10 36  1  0  0  0  0
 13 37  1  0  0  0  0
 13 38  1  0  0  0  0
 13 39  1  0  0  0  0
M  CHG  2  11  -1  13   1
M  END
> <FRED Chemgauss4 score>
-7.183414

$$$$
C80540978	P125746331
  -OEChem-05182014473D

 34 35  0     0  0  0  0  0  0999 V2000
  119.1411  103.4985  105.1258 C   0  0  0  0  0  0  0  0  0  0  0  0
  120.4246  103.9649  104.8419 C   0  0  0  0  0  0  0  0  0  0  0  0
  118.9902  105.0412  106.9789 C   0  0  0  0  0  0  0  0  0  0  0  0
  126.4565  106.9912  106.7927 C   0  0  0  0  0  0  0  0  0  0  0  0
  118.4238  104.0367  106.1943 C   0  0  0  0  0  0  0  0  0  0  0  0
  120.9910  104.9695  105.6266 C   0  0  0  0  0  0  0  0  0  0  0  0
  120.2738  105.5077  106.6951 C   0  0  0  0  0  0  0  0  0  0  0  0
  126.1339  105.0672  107.5349 C   0  0  0  0  0  0  0  0  0  0  0  0
  125.9855  103.5781  107.7205 C   0  0  0  0  0  0  0  0  0  0  0  0
  124.9933  102.9267  106.7478 C   0  0  0  0  0  0  0  0  0  0  0  0
  123.5756  103.4909  106.8181 C   0  0  0  0  0  0  0  0  0  0  0  0
  126.4636  105.6775  106.4204 N   0  0  0  0  0  0  0  0  0  0  0  0
  125.9415  105.9852  108.5198 N   0  0  0  0  0  0  0  0  0  0  0  0
  126.1431  107.2322  108.0676 N   0  0  0  0  0  0  0  0  0  0  0  0
  117.1261  103.5646  106.4809 N   0  0  0  0  0  0  0  0  0  0  0  0
  123.5270  104.9006  106.5444 N   0  0  0  0  0  0  0  0  0  0  0  0
  123.0360  104.8317  104.0113 O   0  0  0  0  0  0  0  0  0  0  0  0
  122.6003  106.9696  105.2619 O   0  0  0  0  0  0  0  0  0  0  0  0
  122.6205  105.5200  105.2186 S   0  0  0  0  0  0  0  0  0  0  0  0
  120.9299  106.7524  107.6966 Cl  0  0  0  0  0  0  0  0  0  0  0  0
  118.7092  102.7153  104.5080 H   0  0  0  0  0  0  0  0  0  0  0  0
  120.9724  103.5369  104.0065 H   0  0  0  0  0  0  0  0  0  0  0  0
  118.4258  105.4571  107.8111 H   0  0  0  0  0  0  0  0  0  0  0  0
  126.6902  107.7882  106.0990 H   0  0  0  0  0  0  0  0  0  0  0  0
  125.7021  103.3527  108.7559 H   0  0  0  0  0  0  0  0  0  0  0  0
  126.9724  103.1175  107.5818 H   0  0  0  0  0  0  0  0  0  0  0  0
  124.9593  101.8515  106.9649 H   0  0  0  0  0  0  0  0  0  0  0  0
  125.3601  103.0276  105.7191 H   0  0  0  0  0  0  0  0  0  0  0  0
  123.1694  103.3488  107.8246 H   0  0  0  0  0  0  0  0  0  0  0  0
  122.9060  102.9886  106.1138 H   0  0  0  0  0  0  0  0  0  0  0  0
  126.0476  108.0570  108.6535 H   0  0  0  0  0  0  0  0  0  0  0  0
  116.7134  102.8779  105.8824 H   0  0  0  0  0  0  0  0  0  0  0  0
  116.6041  103.9910  107.2196 H   0  0  0  0  0  0  0  0  0  0  0  0
  123.6890  105.5536  107.3403 H   0  0  0  0  0  0  0  0  0  0  0  0
  1  2  1  0  0  0  0
  1  5  2  0  0  0  0
  2  6  2  0  0  0  0
  3  5  1  0  0  0  0
  3  7  2  0  0  0  0
  4 12  2  0  0  0  0
  4 14  1  0  0  0  0
  5 15  1  0  0  0  0
  6  7  1  0  0  0  0
  6 19  1  0  0  0  0
  7 20  1  0  0  0  0
  8  9  1  0  0  0  0
  8 12  1  0  0  0  0
  8 13  2  0  0  0  0
  9 10  1  0  0  0  0
 10 11  1  0  0  0  0
 11 16  1  0  0  0  0
 13 14  1  0  0  0  0
 16 19  1  0  0  0  0
 17 19  2  0  0  0  0
 18 19  2  0  0  0  0
  1 21  1  0  0  0  0
  2 22  1  0  0  0  0
  3 23  1  0  0  0  0
  4 24  1  0  0  0  0
  9 25  1  0  0  0  0
  9 26  1  0  0  0  0
 10 27  1  0  0  0  0
 10 28  1  0  0  0  0
 11 29  1  0  0  0  0
 11 30  1  0  0  0  0
 14 31  1  0  0  0  0
 15 32  1  0  0  0  0
 15 33  1  0  0  0  0
 16 34  1  0  0  0  0
M  END
> <FRED Chemgauss4 score>
-7.182196

$$$$
C90644921	P141781001
  -OEChem-05182014473D

 35 37  0     1  0  0  0  0  0999 V2000
  122.1166  105.7037  107.1243 C   0  0  0  0  0  0  0  0  0  0  0  0
  124.2075  106.6398  105.6536 C   0  0  0  0  0  0  0  0  0  0  0  0
  121.9386  106.4853  106.0317 C   0  0  0  0  0  0  0  0  0  0  0  0
  123.4834  105.3498  107.5280 C   0  0  0  0  0  0  0  0  0  0  0  0
  125.6634  105.3923  107.3124 C   0  0  0  0  0  0  0  0  0  0  0  0
  118.1873  108.3567  107.2792 C   0  0  0  0  0  0  0  0  0  0  0  0
  119.7124  108.2021  107.4612 C   0  0  2  0  0  0  0  0  0  0  0  0
  119.6142  106.9156  106.6144 C   0  0  1  0  0  0  0  0  0  0  0  0
  118.3304  107.5183  105.9818 C   0  0  1  0  0  0  0  0  0  0  0  0
  116.3711  104.9118  104.2702 C   0  0  0  0  0  0  0  0  0  0  0  0
  117.5096  105.8804  104.5099 C   0  0  0  0  0  0  0  0  0  0  0  0
  123.0125  106.9634  105.2805 N   0  0  0  0  0  0  0  0  0  0  0  0
  123.8803  104.6247  108.5248 N   0  0  0  0  0  0  0  0  0  0  0  0
  125.2473  104.6303  108.4200 N   0  0  0  0  0  0  0  0  0  0  0  0
  124.4729  105.8497  106.7514 N   0  0  0  0  0  0  0  0  0  0  0  0
  119.9891  107.8434  108.8457 N   0  0  0  0  0  0  0  0  0  0  0  0
  120.6805  106.7948  105.6821 N   0  0  0  0  0  0  0  0  0  0  0  0
  126.8087  105.5953  106.9407 O   0  0  0  0  0  0  0  0  0  0  0  0
  117.2703  106.5841  105.7140 O   0  0  0  0  0  0  0  0  0  0  0  0
  121.2938  105.3238  107.7190 H   0  0  0  0  0  0  0  0  0  0  0  0
  125.1024  106.9793  105.1107 H   0  0  0  0  0  0  0  0  0  0  0  0
  117.5554  107.8793  108.0387 H   0  0  0  0  0  0  0  0  0  0  0  0
  117.8402  109.3837  107.1319 H   0  0  0  0  0  0  0  0  0  0  0  0
  120.3127  109.0213  107.0515 H   0  0  0  0  0  0  0  0  0  0  0  0
  119.4444  105.9812  107.1633 H   0  0  0  0  0  0  0  0  0  0  0  0
  118.5172  108.1456  105.1003 H   0  0  0  0  0  0  0  0  0  0  0  0
  116.2949  104.1892  105.0875 H   0  0  0  0  0  0  0  0  0  0  0  0
  115.4203  105.4478  104.1825 H   0  0  0  0  0  0  0  0  0  0  0  0
  116.5180  104.3685  103.3309 H   0  0  0  0  0  0  0  0  0  0  0  0
  117.5802  106.6002  103.6890 H   0  0  0  0  0  0  0  0  0  0  0  0
  118.4586  105.3432  104.5982 H   0  0  0  0  0  0  0  0  0  0  0  0
  125.8164  104.1276  109.0891 H   0  0  0  0  0  0  0  0  0  0  0  0
  119.5502  108.3748  109.5683 H   0  0  0  0  0  0  0  0  0  0  0  0
  120.7516  107.2255  109.0304 H   0  0  0  0  0  0  0  0  0  0  0  0
  120.5187  106.9461  104.6748 H   0  0  0  0  0  0  0  0  0  0  0  0
  1  3  2  0  0  0  0
  1  4  1  0  0  0  0
  2 12  2  0  0  0  0
  2 15  1  0  0  0  0
  3 12  1  0  0  0  0
  3 17  1  0  0  0  0
  4 13  2  0  0  0  0
  4 15  1  0  0  0  0
  5 14  1  0  0  0  0
  5 15  1  0  0  0  0
  5 18  2  0  0  0  0
  6  7  1  0  0  0  0
  6  9  1  0  0  0  0
  7  8  1  0  0  0  0
  7 16  1  0  0  0  0
  8  9  1  0  0  0  0
  8 17  1  0  0  0  0
  9 19  1  0  0  0  0
 10 11  1  0  0  0  0
 11 19  1  0  0  0  0
 13 14  1  0  0  0  0
  1 20  1  0  0  0  0
  2 21  1  0  0  0  0
  6 22  1  0  0  0  0
  6 23  1  0  0  0  0
  7 24  1  0  0  0  0
  8 25  1  0  0  0  0
  9 26  1  0  0  0  0
 10 27  1  0  0  0  0
 10 28  1  0  0  0  0
 10 29  1  0  0  0  0
 11 30  1  0  0  0  0
 11 31  1  0  0  0  0
 14 32  1  0  0  0  0
 16 33  1  0  0  0  0
 16 34  1  0  0  0  0
 17 35  1  0  0  0  0
M  END
> <FRED Chemgauss4 score>
-7.174670

$$$$
C95045183	P149000638
  -OEChem-05182014473D

 41 43  0     0  0  0  0  0  0999 V2000
  122.7907  106.9586  105.2013 C   0  0  0  0  0  0  0  0  0  0  0  0
  124.5360  107.3220  106.3499 C   0  0  0  0  0  0  0  0  0  0  0  0
  121.3878  106.7259  104.8229 C   0  0  0  0  0  0  0  0  0  0  0  0
  121.1414  105.0849  107.6976 C   0  0  0  0  0  0  0  0  0  0  0  0
  126.9209  107.2025  107.4271 C   0  0  0  0  0  0  0  0  0  0  0  0
  126.0089  106.4205  108.3197 C   0  0  0  0  0  0  0  0  0  0  0  0
  118.6013  104.6851  106.1804 C   0  0  0  0  0  0  0  0  0  0  0  0
  119.2346  104.5156  103.7410 C   0  0  0  0  0  0  0  0  0  0  0  0
  117.1636  104.3386  105.8203 C   0  0  0  0  0  0  0  0  0  0  0  0
  117.7914  104.1703  103.4014 C   0  0  0  0  0  0  0  0  0  0  0  0
  125.4600  107.5769  107.5173 C   0  0  0  0  0  0  0  0  0  0  0  0
  119.3200  105.3698  105.0117 C   0  0  0  0  0  0  0  0  0  0  0  0
  121.3368  104.6405  106.2664 C   0  0  0  0  0  0  0  0  0  0  0  0
  123.8135  106.9992  104.3250 N   0  5  0  0  0  0  0  0  0  0  0  0
  123.2111  107.1554  106.4581 N   0  0  0  0  0  0  0  0  0  0  0  0
  124.9432  107.2336  105.0684 N   0  0  0  0  0  0  0  0  0  0  0  0
  121.6897  104.1994  108.6004 N   0  0  0  0  0  0  0  0  0  0  0  0
  120.7189  105.6122  105.3578 N   0  0  0  0  0  0  0  0  0  0  0  0
  117.1536  103.5087  104.5786 N   0  3  0  0  0  0  0  0  0  0  0  0
  120.8861  107.5500  104.0592 O   0  0  0  0  0  0  0  0  0  0  0  0
  120.5971  106.1374  108.0202 O   0  0  0  0  0  0  0  0  0  0  0  0
  127.6450  107.8586  107.8964 H   0  0  0  0  0  0  0  0  0  0  0  0
  127.2776  106.7208  106.5241 H   0  0  0  0  0  0  0  0  0  0  0  0
  125.7514  105.4121  108.0169 H   0  0  0  0  0  0  0  0  0  0  0  0
  126.1172  106.5488  109.3906 H   0  0  0  0  0  0  0  0  0  0  0  0
  118.6104  105.3379  107.0617 H   0  0  0  0  0  0  0  0  0  0  0  0
  119.1403  103.7719  106.4659 H   0  0  0  0  0  0  0  0  0  0  0  0
  119.8138  103.5920  103.8728 H   0  0  0  0  0  0  0  0  0  0  0  0
  119.6907  105.0490  102.8982 H   0  0  0  0  0  0  0  0  0  0  0  0
  116.6847  103.7458  106.6050 H   0  0  0  0  0  0  0  0  0  0  0  0
  116.5613  105.2312  105.6218 H   0  0  0  0  0  0  0  0  0  0  0  0
  117.1986  105.0601  103.1655 H   0  0  0  0  0  0  0  0  0  0  0  0
  117.7334  103.4643  102.5679 H   0  0  0  0  0  0  0  0  0  0  0  0
  125.2375  108.4927  108.0936 H   0  0  0  0  0  0  0  0  0  0  0  0
  118.8814  106.3472  104.8300 H   0  0  0  0  0  0  0  0  0  0  0  0
  120.8682  103.6682  106.0919 H   0  0  0  0  0  0  0  0  0  0  0  0
  122.4058  104.5851  106.0434 H   0  0  0  0  0  0  0  0  0  0  0  0
  122.1617  103.3585  108.2850 H   0  0  0  0  0  0  0  0  0  0  0  0
  121.6468  104.3491  109.6035 H   0  0  0  0  0  0  0  0  0  0  0  0
  117.6226  102.6107  104.7628 H   0  0  0  0  0  0  0  0  0  0  0  0
  116.1808  103.2691  104.3428 H   0  0  0  0  0  0  0  0  0  0  0  0
  1  3  1  0  0  0  0
  1 14  1  0  0  0  0
  1 15  2  0  0  0  0
  2 11  1  0  0  0  0
  2 15  1  0  0  0  0
  2 16  2  0  0  0  0
  3 18  1  0  0  0  0
  3 20  2  0  0  0  0
  4 13  1  0  0  0  0
  4 17  1  0  0  0  0
  4 21  2  0  0  0  0
  5  6  1  0  0  0  0
  5 11  1  0  0  0  0
  6 11  1  0  0  0  0
  7  9  1  0  0  0  0
  7 12  1  0  0  0  0
  8 10  1  0  0  0  0
  8 12  1  0  0  0  0
  9 19  1  0  0  0  0
 10 19  1  0  0  0  0
 12 18  1  0  0  0  0
 13 18  1  0  0  0  0
 14 16  1  0  0  0  0
  5 22  1  0  0  0  0
  5 23  1  0  0  0  0
  6 24  1  0  0  0  0
  6 25  1  0  0  0  0
  7 26  1  0  0  0  0
  7 27  1  0  0  0  0
  8 28  1  0  0  0  0
  8 29  1  0  0  0  0
  9 30  1  0  0  0  0
  9 31  1  0  0  0  0
 10 32  1  0  0  0  0
 10 33  1  0  0  0  0
 11 34  1  0  0  0  0
 12 35  1  0  0  0  0
 13 36  1  0  0  0  0
 13 37  1  0  0  0  0
 17 38  1  0  0  0  0
 17 39  1  0  0  0  0
 19 40  1  0  0  0  0
 19 41  1  0  0  0  0
M  CHG  2  14  -1  19   1
M  END
> <FRED Chemgauss4 score>
-7.172021

$$$$
C37750230	P56129578
  -OEChem-05182014473D

 28 28  0     0  0  0  0  0  0999 V2000
  122.9682  105.6325  106.0608 C   0  0  0  0  0  0  0  0  0  0  0  0
  124.1162  106.2723  106.4598 C   0  0  0  0  0  0  0  0  0  0  0  0
  124.2634  107.3334  105.5465 C   0  0  0  0  0  0  0  0  0  0  0  0
  121.7717  110.7871  110.9704 C   0  0  0  0  0  0  0  0  0  0  0  0
  123.5200  107.3842  109.4084 C   0  0  0  0  0  0  0  0  0  0  0  0
  123.2729  108.8626  109.6397 C   0  0  0  0  0  0  0  0  0  0  0  0
  123.2869  107.3690  104.6358 N   0  0  0  0  0  0  0  0  0  0  0  0
  122.5153  106.3223  104.9748 N   0  0  0  0  0  0  0  0  0  0  0  0
  125.3027  108.2061  105.6189 N   0  0  0  0  0  0  0  0  0  0  0  0
  124.8446  107.1267  108.9129 N   0  0  0  0  0  0  0  0  0  0  0  0
  124.6308  104.6060  108.4011 O   0  0  0  0  0  0  0  0  0  0  0  0
  126.5210  105.8896  107.3507 O   0  0  0  0  0  0  0  0  0  0  0  0
  120.7720  109.3330  109.0420 O   0  0  0  0  0  0  0  0  0  0  0  0
  121.3114  108.2290  111.2470 O   0  0  0  0  0  0  0  0  0  0  0  0
  125.1510  105.8303  107.8231 S   0  0  0  0  0  0  0  0  0  0  0  0
  121.6319  109.1886  110.2042 S   0  0  0  0  0  0  0  0  0  0  0  0
  122.4427  104.7681  106.4413 H   0  0  0  0  0  0  0  0  0  0  0  0
  120.7906  111.0724  111.3533 H   0  0  0  0  0  0  0  0  0  0  0  0
  122.4942  110.7166  111.7849 H   0  0  0  0  0  0  0  0  0  0  0  0
  122.1112  111.5009  110.2184 H   0  0  0  0  0  0  0  0  0  0  0  0
  123.3939  106.8069  110.3296 H   0  0  0  0  0  0  0  0  0  0  0  0
  122.8203  106.9982  108.6609 H   0  0  0  0  0  0  0  0  0  0  0  0
  123.3910  109.4192  108.7051 H   0  0  0  0  0  0  0  0  0  0  0  0
  123.9568  109.2771  110.3864 H   0  0  0  0  0  0  0  0  0  0  0  0
  121.6900  106.1347  104.4193 H   0  0  0  0  0  0  0  0  0  0  0  0
  125.9980  108.1553  106.3716 H   0  0  0  0  0  0  0  0  0  0  0  0
  125.3806  109.0055  104.9806 H   0  0  0  0  0  0  0  0  0  0  0  0
  125.5130  107.9255  108.8834 H   0  0  0  0  0  0  0  0  0  0  0  0
  1  2  2  0  0  0  0
  1  8  1  0  0  0  0
  2  3  1  0  0  0  0
  2 15  1  0  0  0  0
  3  7  2  0  0  0  0
  3  9  1  0  0  0  0
  4 16  1  0  0  0  0
  5  6  1  0  0  0  0
  5 10  1  0  0  0  0
  6 16  1  0  0  0  0
  7  8  1  0  0  0  0
 10 15  1  0  0  0  0
 11 15  2  0  0  0  0
 12 15  2  0  0  0  0
 13 16  2  0  0  0  0
 14 16  2  0  0  0  0
  1 17  1  0  0  0  0
  4 18  1  0  0  0  0
  4 19  1  0  0  0  0
  4 20  1  0  0  0  0
  5 21  1  0  0  0  0
  5 22  1  0  0  0  0
  6 23  1  0  0  0  0
  6 24  1  0  0  0  0
  8 25  1  0  0  0  0
  9 26  1  0  0  0  0
  9 27  1  0  0  0  0
 10 28  1  0  0  0  0
M  END
> <FRED Chemgauss4 score>
-7.169858

$$$$
C20438719	P129507092
  -OEChem-05182014473D

 20 20  0     1  0  0  0  0  0999 V2000
  121.4131  105.5033  106.4530 C   0  0  0  0  0  0  0  0  0  0  0  0
  121.4598  106.3106  105.3357 C   0  0  0  0  0  0  0  0  0  0  0  0
  123.4217  106.8051  106.1822 C   0  0  0  0  0  0  0  0  0  0  0  0
  120.3985  106.4353  104.3171 C   0  0  0  0  0  0  0  0  0  0  0  0
  125.7681  106.4784  107.0381 C   0  0  0  0  0  0  0  0  0  0  0  0
  124.7840  107.4352  106.3605 C   0  0  1  0  0  0  0  0  0  0  0  0
  122.6107  107.0581  105.1790 N   0  0  0  0  0  0  0  0  0  0  0  0
  125.5428  106.4758  108.4660 N   0  0  0  0  0  0  0  0  0  0  0  0
  125.2805  107.8079  105.0746 O   0  0  0  0  0  0  0  0  0  0  0  0
  122.8644  105.6779  107.3500 S   0  0  0  0  0  0  0  0  0  0  0  0
  120.6240  104.8396  106.7773 H   0  0  0  0  0  0  0  0  0  0  0  0
  119.6882  107.2361  104.5798 H   0  0  0  0  0  0  0  0  0  0  0  0
  120.8083  106.6646  103.3188 H   0  0  0  0  0  0  0  0  0  0  0  0
  119.8231  105.5007  104.2031 H   0  0  0  0  0  0  0  0  0  0  0  0
  126.8028  106.7848  106.8493 H   0  0  0  0  0  0  0  0  0  0  0  0
  125.6443  105.4554  106.6661 H   0  0  0  0  0  0  0  0  0  0  0  0
  124.6902  108.3598  106.9435 H   0  0  0  0  0  0  0  0  0  0  0  0
  125.3102  107.3402  108.9206 H   0  0  0  0  0  0  0  0  0  0  0  0
  125.8188  105.6701  108.9977 H   0  0  0  0  0  0  0  0  0  0  0  0
  126.1510  108.2069  105.2227 H   0  0  0  0  0  0  0  0  0  0  0  0
  1  2  2  0  0  0  0
  1 10  1  0  0  0  0
  2  4  1  0  0  0  0
  2  7  1  0  0  0  0
  3  6  1  0  0  0  0
  3  7  2  0  0  0  0
  3 10  1  0  0  0  0
  5  6  1  0  0  0  0
  5  8  1  0  0  0  0
  6  9  1  0  0  0  0
  1 11  1  0  0  0  0
  4 12  1  0  0  0  0
  4 13  1  0  0  0  0
  4 14  1  0  0  0  0
  5 15  1  0  0  0  0
  5 16  1  0  0  0  0
  6 17  1  0  0  0  0
  8 18  1  0  0  0  0
  8 19  1  0  0  0  0
  9 20  1  0  0  0  0
M  END
> <FRED Chemgauss4 score>
-7.167302

$$$$
C69506331	P106964096
  -OEChem-05182014473D

 41 42  0     1  0  0  0  0  0999 V2000
  123.9902  104.7723  106.7035 C   0  0  0  0  0  0  0  0  0  0  0  0
  122.7341  106.3674  105.5875 C   0  0  0  0  0  0  0  0  0  0  0  0
  118.7837  103.4935  106.2761 C   0  0  0  0  0  0  0  0  0  0  0  0
  120.0000  104.1598  106.9238 C   0  0  0  0  0  0  0  0  0  0  0  0
  118.8519  103.8159  104.7797 C   0  0  0  0  0  0  0  0  0  0  0  0
  124.1498  106.1160  106.0427 C   0  0  1  0  0  0  0  0  0  0  0  0
  120.6190  105.0208  105.8259 C   0  0  2  0  0  0  0  0  0  0  0  0
  120.2858  104.2733  104.5367 C   0  0  1  0  0  0  0  0  0  0  0  0
  125.3013  104.4581  108.7869 C   0  0  0  0  0  0  0  0  0  0  0  0
  124.9521  102.5322  107.2098 C   0  0  0  0  0  0  0  0  0  0  0  0
  124.6170  107.1864  107.0080 C   0  0  0  0  0  0  0  0  0  0  0  0
  124.3103  108.6011  106.5230 C   0  0  0  0  0  0  0  0  0  0  0  0
  125.1338  104.0464  107.3246 C   0  0  0  0  0  0  0  0  0  0  0  0
  122.7773  104.3150  106.6770 N   0  0  0  0  0  0  0  0  0  0  0  0
  122.0221  105.2484  106.0171 N   0  0  0  0  0  0  0  0  0  0  0  0
  124.9253  108.8886  105.2568 N   0  0  0  0  0  0  0  0  0  0  0  0
  122.3345  107.3497  104.9851 O   0  0  0  0  0  0  0  0  0  0  0  0
  121.1284  103.1415  104.3437 O   0  0  0  0  0  0  0  0  0  0  0  0
  118.8083  102.4072  106.4251 H   0  0  0  0  0  0  0  0  0  0  0  0
  117.8537  103.8625  106.7235 H   0  0  0  0  0  0  0  0  0  0  0  0
  119.6610  104.8010  107.7481 H   0  0  0  0  0  0  0  0  0  0  0  0
  120.6951  103.4222  107.3404 H   0  0  0  0  0  0  0  0  0  0  0  0
  118.6094  102.9296  104.1820 H   0  0  0  0  0  0  0  0  0  0  0  0
  118.1317  104.5906  104.4978 H   0  0  0  0  0  0  0  0  0  0  0  0
  124.8079  106.0245  105.1739 H   0  0  0  0  0  0  0  0  0  0  0  0
  120.1578  106.0445  105.8105 H   0  0  0  0  0  0  0  0  0  0  0  0
  120.3400  104.9145  103.6816 H   0  0  0  0  0  0  0  0  0  0  0  0
  124.4119  104.2095  109.3771 H   0  0  0  0  0  0  0  0  0  0  0  0
  125.4698  105.5374  108.8720 H   0  0  0  0  0  0  0  0  0  0  0  0
  126.1591  103.9506  109.2412 H   0  0  0  0  0  0  0  0  0  0  0  0
  124.0474  102.2066  107.7355 H   0  0  0  0  0  0  0  0  0  0  0  0
  125.8033  101.9921  107.6399 H   0  0  0  0  0  0  0  0  0  0  0  0
  124.8558  102.2282  106.1620 H   0  0  0  0  0  0  0  0  0  0  0  0
  125.7025  107.0927  107.1471 H   0  0  0  0  0  0  0  0  0  0  0  0
  124.1537  107.0220  107.9906 H   0  0  0  0  0  0  0  0  0  0  0  0
  123.2314  108.7307  106.3913 H   0  0  0  0  0  0  0  0  0  0  0  0
  124.6581  109.3493  107.2422 H   0  0  0  0  0  0  0  0  0  0  0  0
  126.0505  104.3181  106.7830 H   0  0  0  0  0  0  0  0  0  0  0  0
  125.1171  109.8468  105.0084 H   0  0  0  0  0  0  0  0  0  0  0  0
  124.9704  108.1653  104.5556 H   0  0  0  0  0  0  0  0  0  0  0  0
  120.7903  102.6591  103.5689 H   0  0  0  0  0  0  0  0  0  0  0  0
  1  6  1  0  0  0  0
  1 13  1  0  0  0  0
  1 14  2  0  0  0  0
  2  6  1  0  0  0  0
  2 15  1  0  0  0  0
  2 17  2  0  0  0  0
  3  4  1  0  0  0  0
  3  5  1  0  0  0  0
  4  7  1  0  0  0  0
  5  8  1  0  0  0  0
  6 11  1  0  0  0  0
  7  8  1  0  0  0  0
  7 15  1  0  0  0  0
  8 18  1  0  0  0  0
  9 13  1  0  0  0  0
 10 13  1  0  0  0  0
 11 12  1  0  0  0  0
 12 16  1  0  0  0  0
 14 15  1  0  0  0  0
  3 19  1  0  0  0  0
  3 20  1  0  0  0  0
  4 21  1  0  0  0  0
  4 22  1  0  0  0  0
  5 23  1  0  0  0  0
  5 24  1  0  0  0  0
  6 25  1  0  0  0  0
  7 26  1  0  0  0  0
  8 27  1  0  0  0  0
  9 28  1  0  0  0  0
  9 29  1  0  0  0  0
  9 30  1  0  0  0  0
 10 31  1  0  0  0  0
 10 32  1  0  0  0  0
 10 33  1  0  0  0  0
 11 34  1  0  0  0  0
 11 35  1  0  0  0  0
 12 36  1  0  0  0  0
 12 37  1  0  0  0  0
 13 38  1  0  0  0  0
 16 39  1  0  0  0  0
 16 40  1  0  0  0  0
 18 41  1  0  0  0  0
M  END
> <FRED Chemgauss4 score>
-7.165448

$$$$
C63135344	P96965078
  -OEChem-05182014473D

 23 23  0     0  0  0  0  0  0999 V2000
  117.7021  103.7527  106.2702 C   0  0  0  0  0  0  0  0  0  0  0  0
  117.5458  103.9172  104.9098 C   0  0  0  0  0  0  0  0  0  0  0  0
  119.7920  104.1607  105.7451 C   0  0  0  0  0  0  0  0  0  0  0  0
  123.7528  106.6114  106.0688 C   0  0  0  0  0  0  0  0  0  0  0  0
  121.2792  104.3812  105.8748 C   0  0  0  0  0  0  0  0  0  0  0  0
  125.2210  106.6410  106.4089 C   0  0  0  0  0  0  0  0  0  0  0  0
  121.6308  105.5344  106.8114 C   0  0  0  0  0  0  0  0  0  0  0  0
  118.9895  103.8916  106.7509 N   0  0  0  0  0  0  0  0  0  0  0  0
  125.9197  107.5601  105.4985 N   0  0  0  0  0  0  0  0  0  0  0  0
  123.0558  105.7549  106.9090 N   0  0  0  0  0  0  0  0  0  0  0  0
  123.2561  107.2719  105.1603 O   0  0  0  0  0  0  0  0  0  0  0  0
  119.0656  104.2620  104.1937 S   0  0  0  0  0  0  0  0  0  0  0  0
  116.9022  103.5288  106.9631 H   0  0  0  0  0  0  0  0  0  0  0  0
  116.6407  103.8556  104.3224 H   0  0  0  0  0  0  0  0  0  0  0  0
  121.6889  104.5861  104.8776 H   0  0  0  0  0  0  0  0  0  0  0  0
  121.7630  103.4569  106.2157 H   0  0  0  0  0  0  0  0  0  0  0  0
  125.3537  106.9845  107.4391 H   0  0  0  0  0  0  0  0  0  0  0  0
  125.6464  105.6387  106.3036 H   0  0  0  0  0  0  0  0  0  0  0  0
  121.1923  106.4652  106.4379 H   0  0  0  0  0  0  0  0  0  0  0  0
  121.2532  105.3616  107.8246 H   0  0  0  0  0  0  0  0  0  0  0  0
  126.8926  107.4201  105.3624 H   0  0  0  0  0  0  0  0  0  0  0  0
  125.4434  108.3872  105.2267 H   0  0  0  0  0  0  0  0  0  0  0  0
  123.5729  105.2580  107.6286 H   0  0  0  0  0  0  0  0  0  0  0  0
  1  2  2  0  0  0  0
  1  8  1  0  0  0  0
  2 12  1  0  0  0  0
  3  5  1  0  0  0  0
  3  8  2  0  0  0  0
  3 12  1  0  0  0  0
  4  6  1  0  0  0  0
  4 10  1  0  0  0  0
  4 11  2  0  0  0  0
  5  7  1  0  0  0  0
  6  9  1  0  0  0  0
  7 10  1  0  0  0  0
  1 13  1  0  0  0  0
  2 14  1  0  0  0  0
  5 15  1  0  0  0  0
  5 16  1  0  0  0  0
  6 17  1  0  0  0  0
  6 18  1  0  0  0  0
  7 19  1  0  0  0  0
  7 20  1  0  0  0  0
  9 21  1  0  0  0  0
  9 22  1  0  0  0  0
 10 23  1  0  0  0  0
M  END
> <FRED Chemgauss4 score>
-7.162035

$$$$
C87572129	P136980498
  -OEChem-05182014473D

 22 23  0     1  0  0  0  0  0999 V2000
  120.0604  104.2787  105.0461 C   0  0  0  0  0  0  0  0  0  0  0  0
  119.1248  104.6434  103.0963 C   0  0  0  0  0  0  0  0  0  0  0  0
  120.9961  105.1485  104.5265 C   0  0  0  0  0  0  0  0  0  0  0  0
  122.2195  105.6002  105.2120 C   0  0  0  0  0  0  0  0  0  0  0  0
  123.8099  106.7954  105.7791 C   0  0  0  0  0  0  0  0  0  0  0  0
  125.9206  107.4040  107.0361 C   0  0  0  0  0  0  0  0  0  0  0  0
  124.8681  107.8508  106.0180 C   0  0  1  0  0  0  0  0  0  0  0  0
  118.9864  103.9882  104.2275 N   0  0  0  0  0  0  0  0  0  0  0  0
  122.7741  106.8251  104.9792 N   0  0  0  0  0  0  0  0  0  0  0  0
  122.8561  104.8340  106.1027 N   0  0  0  0  0  0  0  0  0  0  0  0
  125.4947  108.2404  104.7728 N   0  0  0  0  0  0  0  0  0  0  0  0
  123.9333  105.6423  106.4872 O   0  0  0  0  0  0  0  0  0  0  0  0
  125.2788  107.0931  108.2686 O   0  0  0  0  0  0  0  0  0  0  0  0
  120.5232  105.6270  102.9489 S   0  0  0  0  0  0  0  0  0  0  0  0
  120.1073  103.8204  106.0257 H   0  0  0  0  0  0  0  0  0  0  0  0
  118.3994  104.5693  102.2975 H   0  0  0  0  0  0  0  0  0  0  0  0
  126.4368  106.5002  106.6942 H   0  0  0  0  0  0  0  0  0  0  0  0
  126.6663  108.1843  107.2239 H   0  0  0  0  0  0  0  0  0  0  0  0
  124.3925  108.7665  106.3915 H   0  0  0  0  0  0  0  0  0  0  0  0
  126.4006  108.6701  104.8027 H   0  0  0  0  0  0  0  0  0  0  0  0
  124.9373  108.2623  103.9390 H   0  0  0  0  0  0  0  0  0  0  0  0
  125.9768  106.8160  108.8827 H   0  0  0  0  0  0  0  0  0  0  0  0
  1  3  2  0  0  0  0
  1  8  1  0  0  0  0
  2  8  2  0  0  0  0
  2 14  1  0  0  0  0
  3  4  1  0  0  0  0
  3 14  1  0  0  0  0
  4  9  1  0  0  0  0
  4 10  2  0  0  0  0
  5  7  1  0  0  0  0
  5  9  2  0  0  0  0
  5 12  1  0  0  0  0
  6  7  1  0  0  0  0
  6 13  1  0  0  0  0
  7 11  1  0  0  0  0
 10 12  1  0  0  0  0
  1 15  1  0  0  0  0
  2 16  1  0  0  0  0
  6 17  1  0  0  0  0
  6 18  1  0  0  0  0
  7 19  1  0  0  0  0
 11 20  1  0  0  0  0
 11 21  1  0  0  0  0
 13 22  1  0  0  0  0
M  END
> <FRED Chemgauss4 score>
-7.160793

$$$$
C82561211	P129033962
  -OEChem-05182014473D

 28 28  0     1  0  0  0  0  0999 V2000
  121.8390  105.3804  105.3048 C   0  0  0  0  0  0  0  0  0  0  0  0
  123.6532  106.2536  105.7800 C   0  0  0  0  0  0  0  0  0  0  0  0
  118.4216  103.6483  104.5006 C   0  0  0  0  0  0  0  0  0  0  0  0
  120.5831  105.1956  103.1416 C   0  0  0  0  0  0  0  0  0  0  0  0
  119.7915  103.8616  105.1331 C   0  0  0  0  0  0  0  0  0  0  0  0
  125.1039  107.5419  107.4096 C   0  0  0  0  0  0  0  0  0  0  0  0
  120.4754  105.1644  104.6711 C   0  0  1  0  0  0  0  0  0  0  0  0
  124.8629  107.0687  105.9550 C   0  0  2  0  0  0  0  0  0  0  0  0
  122.5980  106.4830  105.0400 N   0  0  0  0  0  0  0  0  0  0  0  0
  122.3705  104.5007  106.1587 N   0  0  0  0  0  0  0  0  0  0  0  0
  124.8780  108.2532  105.0953 N   0  0  0  0  0  0  0  0  0  0  0  0
  123.5991  105.0908  106.4810 O   0  0  0  0  0  0  0  0  0  0  0  0
  126.4598  107.9364  107.5925 O   0  0  0  0  0  0  0  0  0  0  0  0
  118.5052  103.6702  103.4092 H   0  0  0  0  0  0  0  0  0  0  0  0
  117.9942  102.6810  104.7817 H   0  0  0  0  0  0  0  0  0  0  0  0
  117.7236  104.4359  104.8019 H   0  0  0  0  0  0  0  0  0  0  0  0
  121.2231  104.3926  102.7602 H   0  0  0  0  0  0  0  0  0  0  0  0
  119.5950  105.0794  102.6833 H   0  0  0  0  0  0  0  0  0  0  0  0
  121.0006  106.1485  102.7969 H   0  0  0  0  0  0  0  0  0  0  0  0
  119.6897  103.8367  106.2246 H   0  0  0  0  0  0  0  0  0  0  0  0
  120.4267  103.0092  104.8607 H   0  0  0  0  0  0  0  0  0  0  0  0
  124.4738  108.4111  107.6279 H   0  0  0  0  0  0  0  0  0  0  0  0
  124.8751  106.7519  108.1332 H   0  0  0  0  0  0  0  0  0  0  0  0
  119.8201  105.9985  104.9576 H   0  0  0  0  0  0  0  0  0  0  0  0
  125.7776  106.5153  105.6460 H   0  0  0  0  0  0  0  0  0  0  0  0
  124.5058  108.1664  104.1762 H   0  0  0  0  0  0  0  0  0  0  0  0
  125.4339  109.0283  105.3802 H   0  0  0  0  0  0  0  0  0  0  0  0
  126.5442  108.2196  108.5165 H   0  0  0  0  0  0  0  0  0  0  0  0
  1  7  1  0  0  0  0
  1  9  1  0  0  0  0
  1 10  2  0  0  0  0
  2  8  1  0  0  0  0
  2  9  2  0  0  0  0
  2 12  1  0  0  0  0
  3  5  1  0  0  0  0
  4  7  1  0  0  0  0
  5  7  1  0  0  0  0
  6  8  1  0  0  0  0
  6 13  1  0  0  0  0
  8 11  1  0  0  0  0
 10 12  1  0  0  0  0
  3 14  1  0  0  0  0
  3 15  1  0  0  0  0
  3 16  1  0  0  0  0
  4 17  1  0  0  0  0
  4 18  1  0  0  0  0
  4 19  1  0  0  0  0
  5 20  1  0  0  0  0
  5 21  1  0  0  0  0
  6 22  1  0  0  0  0
  6 23  1  0  0  0  0
  7 24  1  0  0  0  0
  8 25  1  0  0  0  0
 11 26  1  0  0  0  0
 11 27  1  0  0  0  0
 13 28  1  0  0  0  0
M  END
> <FRED Chemgauss4 score>
-7.147976

$$$$
C42040378	P88561192
  -OEChem-05182014473D

 24 25  0     1  0  0  0  0  0999 V2000
  124.4058  104.4036  107.2278 C   0  0  0  0  0  0  0  0  0  0  0  0
  125.2567  104.1282  109.2420 C   0  0  0  0  0  0  0  0  0  0  0  0
  125.3632  105.3513  107.5033 C   0  0  0  0  0  0  0  0  0  0  0  0
  123.8560  107.9417  106.3662 C   0  0  0  0  0  0  0  0  0  0  0  0
  122.1240  108.6238  107.4823 C   0  0  0  0  0  0  0  0  0  0  0  0
  125.8467  106.4748  106.6195 C   0  0  0  0  0  0  0  0  0  0  0  0
  124.7638  106.9815  105.6685 C   0  0  2  0  0  0  0  0  0  0  0  0
  125.8892  105.1742  108.7585 N   0  0  0  0  0  0  0  0  0  0  0  0
  124.0767  109.2181  106.4798 N   0  0  0  0  0  0  0  0  0  0  0  0
  124.3491  103.6270  108.3507 N   0  0  0  0  0  0  0  0  0  0  0  0
  122.7139  107.5060  106.9359 N   0  0  0  0  0  0  0  0  0  0  0  0
  122.9980  109.6766  107.1811 N   0  0  0  0  0  0  0  0  0  0  0  0
  125.2965  107.7399  104.5694 N   0  0  0  0  0  0  0  0  0  0  0  0
  121.0700  108.6901  108.0962 O   0  0  0  0  0  0  0  0  0  0  0  0
  123.7806  104.2143  106.3671 H   0  0  0  0  0  0  0  0  0  0  0  0
  125.4065  103.6884  110.2179 H   0  0  0  0  0  0  0  0  0  0  0  0
  126.1975  107.2955  107.2597 H   0  0  0  0  0  0  0  0  0  0  0  0
  126.7324  106.1471  106.0582 H   0  0  0  0  0  0  0  0  0  0  0  0
  124.1615  106.1667  105.2544 H   0  0  0  0  0  0  0  0  0  0  0  0
  123.7458  102.8285  108.4964 H   0  0  0  0  0  0  0  0  0  0  0  0
  122.3636  106.5559  106.9573 H   0  0  0  0  0  0  0  0  0  0  0  0
  122.8507  110.6421  107.4461 H   0  0  0  0  0  0  0  0  0  0  0  0
  124.7258  108.4514  104.1406 H   0  0  0  0  0  0  0  0  0  0  0  0
  126.1373  107.4215  104.1140 H   0  0  0  0  0  0  0  0  0  0  0  0
  1  3  2  0  0  0  0
  1 10  1  0  0  0  0
  2  8  2  0  0  0  0
  2 10  1  0  0  0  0
  3  6  1  0  0  0  0
  3  8  1  0  0  0  0
  4  7  1  0  0  0  0
  4  9  2  0  0  0  0
  4 11  1  0  0  0  0
  5 11  1  0  0  0  0
  5 12  1  0  0  0  0
  5 14  2  0  0  0  0
  6  7  1  0  0  0  0
  7 13  1  0  0  0  0
  9 12  1  0  0  0  0
  1 15  1  0  0  0  0
  2 16  1  0  0  0  0
  6 17  1  0  0  0  0
  6 18  1  0  0  0  0
  7 19  1  0  0  0  0
 10 20  1  0  0  0  0
 11 21  1  0  0  0  0
 12 22  1  0  0  0  0
 13 23  1  0  0  0  0
 13 24  1  0  0  0  0
M  END
> <FRED Chemgauss4 score>
-7.147203

$$$$
C89754839	P140318181
  -OEChem-05182014473D

 39 40  0     1  0  0  0  0  0999 V2000
  125.6440  106.5850  106.5282 C   0  0  0  0  0  0  0  0  0  0  0  0
  123.2866  106.7742  105.6904 C   0  0  0  0  0  0  0  0  0  0  0  0
  119.2195  105.6519  103.8270 C   0  0  0  0  0  0  0  0  0  0  0  0
  120.7394  104.4174  106.8499 C   0  0  0  0  0  0  0  0  0  0  0  0
  125.2669  105.3383  107.2924 C   0  0  0  0  0  0  0  0  0  0  0  0
  123.8025  105.3525  107.6911 C   0  0  0  0  0  0  0  0  0  0  0  0
  117.6566  104.4997  102.1467 C   0  0  0  0  0  0  0  0  0  0  0  0
  122.9420  105.5038  106.4474 C   0  0  1  0  0  0  0  0  0  0  0  0
  119.0439  104.8513  102.5794 C   0  0  1  0  0  0  0  0  0  0  0  0
  118.4468  105.5249  101.3841 C   0  0  1  0  0  0  0  0  0  0  0  0
  118.9699  105.2084  100.0256 C   0  0  0  0  0  0  0  0  0  0  0  0
  119.3123  104.7617  107.2366 C   0  0  0  0  0  0  0  0  0  0  0  0
  118.6539  105.7138  106.2475 C   0  0  0  0  0  0  0  0  0  0  0  0
  124.6187  107.1732  105.7938 N   0  0  0  0  0  0  0  0  0  0  0  0
  118.6077  105.1048  104.9406 N   0  0  0  0  0  0  0  0  0  0  0  0
  121.5449  105.5492  106.7892 N   0  0  0  0  0  0  0  0  0  0  0  0
  126.7989  107.0104  106.5238 O   0  0  0  0  0  0  0  0  0  0  0  0
  122.4757  107.3661  104.9782 O   0  0  0  0  0  0  0  0  0  0  0  0
  119.8645  106.6932  103.7909 O   0  0  0  0  0  0  0  0  0  0  0  0
  121.1167  103.2709  106.6241 O   0  0  0  0  0  0  0  0  0  0  0  0
  125.4916  104.4712  106.6613 H   0  0  0  0  0  0  0  0  0  0  0  0
  125.8916  105.2790  108.1903 H   0  0  0  0  0  0  0  0  0  0  0  0
  123.5499  104.4266  108.2210 H   0  0  0  0  0  0  0  0  0  0  0  0
  123.6159  106.1808  108.3877 H   0  0  0  0  0  0  0  0  0  0  0  0
  117.5140  103.5207  101.7048 H   0  0  0  0  0  0  0  0  0  0  0  0
  116.8126  104.8488  102.7299 H   0  0  0  0  0  0  0  0  0  0  0  0
  123.0854  104.6532  105.7712 H   0  0  0  0  0  0  0  0  0  0  0  0
  119.8193  104.1213  102.4341 H   0  0  0  0  0  0  0  0  0  0  0  0
  118.1304  106.5586  101.4621 H   0  0  0  0  0  0  0  0  0  0  0  0
  119.2911  104.1570   99.9482 H   0  0  0  0  0  0  0  0  0  0  0  0
  119.8397  105.8345   99.7687 H   0  0  0  0  0  0  0  0  0  0  0  0
  118.2074  105.3744   99.2474 H   0  0  0  0  0  0  0  0  0  0  0  0
  118.7374  103.8295  107.3005 H   0  0  0  0  0  0  0  0  0  0  0  0
  119.3240  105.2093  108.2383 H   0  0  0  0  0  0  0  0  0  0  0  0
  119.2122  106.6544  106.1890 H   0  0  0  0  0  0  0  0  0  0  0  0
  117.6358  105.9589  106.5688 H   0  0  0  0  0  0  0  0  0  0  0  0
  124.8724  108.0053  105.2680 H   0  0  0  0  0  0  0  0  0  0  0  0
  118.1004  104.2302  104.8326 H   0  0  0  0  0  0  0  0  0  0  0  0
  121.1258  106.4541  106.9966 H   0  0  0  0  0  0  0  0  0  0  0  0
  1  5  1  0  0  0  0
  1 14  1  0  0  0  0
  1 17  2  0  0  0  0
  2  8  1  0  0  0  0
  2 14  1  0  0  0  0
  2 18  2  0  0  0  0
  3  9  1  0  0  0  0
  3 15  1  0  0  0  0
  3 19  2  0  0  0  0
  4 12  1  0  0  0  0
  4 16  1  0  0  0  0
  4 20  2  0  0  0  0
  5  6  1  0  0  0  0
  6  8  1  0  0  0  0
  7  9  1  0  0  0  0
  7 10  1  0  0  0  0
  8 16  1  0  0  0  0
  9 10  1  0  0  0  0
 10 11  1  0  0  0  0
 12 13  1  0  0  0  0
 13 15  1  0  0  0  0
  5 21  1  0  0  0  0
  5 22  1  0  0  0  0
  6 23  1  0  0  0  0
  6 24  1  0  0  0  0
  7 25  1  0  0  0  0
  7 26  1  0  0  0  0
  8 27  1  0  0  0  0
  9 28  1  0  0  0  0
 10 29  1  0  0  0  0
 11 30  1  0  0  0  0
 11 31  1  0  0  0  0
 11 32  1  0  0  0  0
 12 33  1  0  0  0  0
 12 34  1  0  0  0  0
 13 35  1  0  0  0  0
 13 36  1  0  0  0  0
 14 37  1  0  0  0  0
 15 38  1  0  0  0  0
 16 39  1  0  0  0  0
M  END
> <FRED Chemgauss4 score>
-7.146659

$$$$
C22059796	P32818392
  -OEChem-05182014473D

 25 25  0     1  0  0  0  0  0999 V2000
  124.8390  106.7087  105.3778 C   0  0  1  0  0  0  0  0  0  0  0  0
  125.6162  106.7603  106.6979 C   0  0  2  0  0  0  0  0  0  0  0  0
  123.3338  106.5391  105.6062 C   0  0  1  0  0  0  0  0  0  0  0  0
  125.2355  105.5556  107.5704 C   0  0  1  0  0  0  0  0  0  0  0  0
  123.0912  105.3356  106.5300 C   0  0  2  0  0  0  0  0  0  0  0  0
  125.8727  105.5961  108.9541 C   0  0  0  0  0  0  0  0  0  0  0  0
  121.6639  105.1557  106.7856 N   0  0  0  0  0  0  0  0  0  0  0  0
  123.8137  105.4997  107.7568 O   0  0  0  0  0  0  0  0  0  0  0  0
  125.1097  107.8739  104.6081 O   0  0  0  0  0  0  0  0  0  0  0  0
  125.3152  107.9802  107.3751 O   0  0  0  0  0  0  0  0  0  0  0  0
  122.8137  107.7293  106.1998 O   0  0  0  0  0  0  0  0  0  0  0  0
  125.8507  104.2896  109.5007 O   0  0  0  0  0  0  0  0  0  0  0  0
  125.2037  105.8496  104.8000 H   0  0  0  0  0  0  0  0  0  0  0  0
  126.6924  106.7700  106.4893 H   0  0  0  0  0  0  0  0  0  0  0  0
  122.8263  106.4124  104.6424 H   0  0  0  0  0  0  0  0  0  0  0  0
  125.5545  104.6295  107.0751 H   0  0  0  0  0  0  0  0  0  0  0  0
  123.4511  104.4223  106.0401 H   0  0  0  0  0  0  0  0  0  0  0  0
  125.3108  106.2672  109.6047 H   0  0  0  0  0  0  0  0  0  0  0  0
  126.9059  105.9373  108.8801 H   0  0  0  0  0  0  0  0  0  0  0  0
  121.3942  104.6581  107.6059 H   0  0  0  0  0  0  0  0  0  0  0  0
  121.0273  105.3511  106.0442 H   0  0  0  0  0  0  0  0  0  0  0  0
  126.0658  107.8821  104.4413 H   0  0  0  0  0  0  0  0  0  0  0  0
  125.8255  107.9694  108.1989 H   0  0  0  0  0  0  0  0  0  0  0  0
  121.8648  107.5796  106.3261 H   0  0  0  0  0  0  0  0  0  0  0  0
  126.2613  104.3417  110.3804 H   0  0  0  0  0  0  0  0  0  0  0  0
  1  2  1  0  0  0  0
  1  3  1  0  0  0  0
  1  9  1  0  0  0  0
  2  4  1  0  0  0  0
  2 10  1  0  0  0  0
  3  5  1  0  0  0  0
  3 11  1  0  0  0  0
  4  6  1  0  0  0  0
  4  8  1  0  0  0  0
  5  7  1  0  0  0  0
  5  8  1  0  0  0  0
  6 12  1  0  0  0  0
  1 13  1  0  0  0  0
  2 14  1  0  0  0  0
  3 15  1  0  0  0  0
  4 16  1  0  0  0  0
  5 17  1  0  0  0  0
  6 18  1  0  0  0  0
  6 19  1  0  0  0  0
  7 20  1  0  0  0  0
  7 21  1  0  0  0  0
  9 22  1  0  0  0  0
 10 23  1  0  0  0  0
 11 24  1  0  0  0  0
 12 25  1  0  0  0  0
M  END
> <FRED Chemgauss4 score>
-7.145451

$$$$
C87446092	P136813147
  -OEChem-05182014473D

 26 26  0     0  0  0  0  0  0999 V2000
  122.9383  106.5910  105.6236 C   0  0  0  0  0  0  0  0  0  0  0  0
  124.8672  106.1762  106.4015 C   0  0  0  0  0  0  0  0  0  0  0  0
  121.4624  106.6575  105.4672 C   0  0  0  0  0  0  0  0  0  0  0  0
  125.9434  105.6946  107.2644 C   0  0  0  0  0  0  0  0  0  0  0  0
  118.7742  104.7684  105.7496 C   0  0  0  0  0  0  0  0  0  0  0  0
  119.2761  106.0254  106.4553 C   0  0  0  0  0  0  0  0  0  0  0  0
  117.2529  104.6970  105.7083 C   0  0  0  0  0  0  0  0  0  0  0  0
  125.0646  106.8446  105.2483 N   0  5  0  0  0  0  0  0  0  0  0  0
  123.5626  106.0069  106.6551 N   0  0  0  0  0  0  0  0  0  0  0  0
  123.8163  107.1137  104.7451 N   0  0  0  0  0  0  0  0  0  0  0  0
  120.7190  106.0645  106.4764 N   0  0  0  0  0  0  0  0  0  0  0  0
  116.8454  103.4302  105.0527 N   0  3  0  0  0  0  0  0  0  0  0  0
  120.9883  107.1996  104.4723 O   0  0  0  0  0  0  0  0  0  0  0  0
  126.2336  106.4493  108.0217 H   0  0  0  0  0  0  0  0  0  0  0  0
  125.6701  104.7724  107.8166 H   0  0  0  0  0  0  0  0  0  0  0  0
  126.8621  105.4350  106.6996 H   0  0  0  0  0  0  0  0  0  0  0  0
  119.1756  103.8762  106.2469 H   0  0  0  0  0  0  0  0  0  0  0  0
  119.1658  104.7649  104.7247 H   0  0  0  0  0  0  0  0  0  0  0  0
  118.9098  106.9121  105.9277 H   0  0  0  0  0  0  0  0  0  0  0  0
  118.8924  106.0695  107.4801 H   0  0  0  0  0  0  0  0  0  0  0  0
  116.8092  104.6894  106.7080 H   0  0  0  0  0  0  0  0  0  0  0  0
  116.8208  105.5115  105.1194 H   0  0  0  0  0  0  0  0  0  0  0  0
  121.1844  105.5798  107.2379 H   0  0  0  0  0  0  0  0  0  0  0  0
  115.8359  103.2760  105.1475 H   0  0  0  0  0  0  0  0  0  0  0  0
  117.3284  102.6285  105.4725 H   0  0  0  0  0  0  0  0  0  0  0  0
  117.0702  103.4461  104.0520 H   0  0  0  0  0  0  0  0  0  0  0  0
  1  3  1  0  0  0  0
  1  9  1  0  0  0  0
  1 10  2  0  0  0  0
  2  4  1  0  0  0  0
  2  8  1  0  0  0  0
  2  9  2  0  0  0  0
  3 11  1  0  0  0  0
  3 13  2  0  0  0  0
  5  6  1  0  0  0  0
  5  7  1  0  0  0  0
  6 11  1  0  0  0  0
  7 12  1  0  0  0  0
  8 10  1  0  0  0  0
  4 14  1  0  0  0  0
  4 15  1  0  0  0  0
  4 16  1  0  0  0  0
  5 17  1  0  0  0  0
  5 18  1  0  0  0  0
  6 19  1  0  0  0  0
  6 20  1  0  0  0  0
  7 21  1  0  0  0  0
  7 22  1  0  0  0  0
 11 23  1  0  0  0  0
 12 24  1  0  0  0  0
 12 25  1  0  0  0  0
 12 26  1  0  0  0  0
M  CHG  2   8  -1  12   1
M  END
> <FRED Chemgauss4 score>
-7.144369

$$$$
C85446673	P133732895
  -OEChem-05182014473D

 27 27  0     0  0  0  0  0  0999 V2000
  119.2178  103.8738  102.7543 C   0  0  0  0  0  0  0  0  0  0  0  0
  119.5661  104.9986  102.0364 C   0  0  0  0  0  0  0  0  0  0  0  0
  120.3965  105.5788  103.9816 C   0  0  0  0  0  0  0  0  0  0  0  0
  119.2788  105.2326  100.6073 C   0  0  0  0  0  0  0  0  0  0  0  0
  121.0866  106.3766  105.0500 C   0  0  0  0  0  0  0  0  0  0  0  0
  123.2138  105.4719  107.0612 C   0  0  0  0  0  0  0  0  0  0  0  0
  124.6237  107.1788  105.8619 C   0  0  0  0  0  0  0  0  0  0  0  0
  123.2038  106.6874  106.1371 C   0  0  0  0  0  0  0  0  0  0  0  0
  120.2417  105.9776  102.7385 N   0  0  0  0  0  0  0  0  0  0  0  0
  122.5377  106.3585  104.8937 N   0  0  0  0  0  0  0  0  0  0  0  0
  121.9421  105.3442  107.6872 O   0  0  0  0  0  0  0  0  0  0  0  0
  124.5730  108.3103  105.0002 O   0  0  0  0  0  0  0  0  0  0  0  0
  119.7546  104.0367  104.3751 S   0  0  0  0  0  0  0  0  0  0  0  0
  118.6918  102.9912  102.4186 H   0  0  0  0  0  0  0  0  0  0  0  0
  118.3060  105.7335  100.4748 H   0  0  0  0  0  0  0  0  0  0  0  0
  120.0481  105.8619  100.1284 H   0  0  0  0  0  0  0  0  0  0  0  0
  119.2528  104.2917  100.0314 H   0  0  0  0  0  0  0  0  0  0  0  0
  120.7577  107.4212  105.0249 H   0  0  0  0  0  0  0  0  0  0  0  0
  120.8522  105.9856  106.0456 H   0  0  0  0  0  0  0  0  0  0  0  0
  123.9634  105.5903  107.8507 H   0  0  0  0  0  0  0  0  0  0  0  0
  123.4233  104.5495  106.5085 H   0  0  0  0  0  0  0  0  0  0  0  0
  125.2318  106.4037  105.3828 H   0  0  0  0  0  0  0  0  0  0  0  0
  125.1134  107.4891  106.7906 H   0  0  0  0  0  0  0  0  0  0  0  0
  122.6068  107.4939  106.5791 H   0  0  0  0  0  0  0  0  0  0  0  0
  122.8005  107.0348  104.1735 H   0  0  0  0  0  0  0  0  0  0  0  0
  121.9920  104.5642  108.2621 H   0  0  0  0  0  0  0  0  0  0  0  0
  125.4907  108.5885  104.8521 H   0  0  0  0  0  0  0  0  0  0  0  0
  1  2  2  0  0  0  0
  1 13  1  0  0  0  0
  2  4  1  0  0  0  0
  2  9  1  0  0  0  0
  3  5  1  0  0  0  0
  3  9  2  0  0  0  0
  3 13  1  0  0  0  0
  5 10  1  0  0  0  0
  6  8  1  0  0  0  0
  6 11  1  0  0  0  0
  7  8  1  0  0  0  0
  7 12  1  0  0  0  0
  8 10  1  0  0  0  0
  1 14  1  0  0  0  0
  4 15  1  0  0  0  0
  4 16  1  0  0  0  0
  4 17  1  0  0  0  0
  5 18  1  0  0  0  0
  5 19  1  0  0  0  0
  6 20  1  0  0  0  0
  6 21  1  0  0  0  0
  7 22  1  0  0  0  0
  7 23  1  0  0  0  0
  8 24  1  0  0  0  0
 10 25  1  0  0  0  0
 11 26  1  0  0  0  0
 12 27  1  0  0  0  0
M  END
> <FRED Chemgauss4 score>
-7.142797

$$$$
C22012448	P32767994
  -OEChem-05182014473D

 33 34  0     1  0  0  0  0  0999 V2000
  118.0922  106.5816  104.4029 C   0  0  0  0  0  0  0  0  0  0  0  0
  116.7591  106.3615  104.7494 C   0  0  0  0  0  0  0  0  0  0  0  0
  117.4132  104.4233  106.0349 C   0  0  0  0  0  0  0  0  0  0  0  0
  124.4207  107.2916  106.1334 C   0  0  0  0  0  0  0  0  0  0  0  0
  123.8963  105.7646  104.8103 C   0  0  0  0  0  0  0  0  0  0  0  0
  119.0858  105.7226  104.8724 C   0  0  0  0  0  0  0  0  0  0  0  0
  116.4196  105.2824  105.5654 C   0  0  0  0  0  0  0  0  0  0  0  0
  118.7463  104.6434  105.6884 C   0  0  0  0  0  0  0  0  0  0  0  0
  120.6602  103.7690  103.1224 C   0  0  0  0  0  0  0  0  0  0  0  0
  121.5068  105.4628  105.6130 C   0  0  0  0  0  0  0  0  0  0  0  0
  120.8927  105.2840  103.1213 C   0  0  2  0  0  0  0  0  0  0  0  0
  120.5512  105.9677  104.4891 C   0  0  1  0  0  0  0  0  0  0  0  0
  124.9197  106.5273  105.1177 N   0  0  0  0  0  0  0  0  0  0  0  0
  123.1530  107.0497  106.4738 N   0  0  0  0  0  0  0  0  0  0  0  0
  122.8412  106.0692  105.6126 N   0  0  0  0  0  0  0  0  0  0  0  0
  120.1274  105.8660  102.0361 N   0  0  0  0  0  0  0  0  0  0  0  0
  120.7820  107.3741  104.3158 O   0  0  0  0  0  0  0  0  0  0  0  0
  115.1396  105.0715  105.8986 F   0  0  0  0  0  0  0  0  0  0  0  0
  119.6941  103.8123  106.1441 F   0  0  0  0  0  0  0  0  0  0  0  0
  118.3472  107.4254  103.7671 H   0  0  0  0  0  0  0  0  0  0  0  0
  115.9853  107.0305  104.3846 H   0  0  0  0  0  0  0  0  0  0  0  0
  117.1491  103.5831  106.6700 H   0  0  0  0  0  0  0  0  0  0  0  0
  124.9982  108.0499  106.6405 H   0  0  0  0  0  0  0  0  0  0  0  0
  123.8651  105.0053  104.0417 H   0  0  0  0  0  0  0  0  0  0  0  0
  119.6247  103.5197  103.3782 H   0  0  0  0  0  0  0  0  0  0  0  0
  120.8918  103.3219  102.1512 H   0  0  0  0  0  0  0  0  0  0  0  0
  121.3016  103.2846  103.8678 H   0  0  0  0  0  0  0  0  0  0  0  0
  121.6435  104.3758  105.5522 H   0  0  0  0  0  0  0  0  0  0  0  0
  121.0924  105.6768  106.6067 H   0  0  0  0  0  0  0  0  0  0  0  0
  121.9413  105.4667  102.8596 H   0  0  0  0  0  0  0  0  0  0  0  0
  119.9876  105.3256  101.2041 H   0  0  0  0  0  0  0  0  0  0  0  0
  119.9353  106.8492  102.0583 H   0  0  0  0  0  0  0  0  0  0  0  0
  121.7148  107.4629  104.0774 H   0  0  0  0  0  0  0  0  0  0  0  0
  1  2  2  0  0  0  0
  1  6  1  0  0  0  0
  2  7  1  0  0  0  0
  3  7  2  0  0  0  0
  3  8  1  0  0  0  0
  4 13  1  0  0  0  0
  4 14  2  0  0  0  0
  5 13  2  0  0  0  0
  5 15  1  0  0  0  0
  6  8  2  0  0  0  0
  6 12  1  0  0  0  0
  7 18  1  0  0  0  0
  8 19  1  0  0  0  0
  9 11  1  0  0  0  0
 10 12  1  0  0  0  0
 10 15  1  0  0  0  0
 11 12  1  0  0  0  0
 11 16  1  0  0  0  0
 12 17  1  0  0  0  0
 14 15  1  0  0  0  0
  1 20  1  0  0  0  0
  2 21  1  0  0  0  0
  3 22  1  0  0  0  0
  4 23  1  0  0  0  0
  5 24  1  0  0  0  0
  9 25  1  0  0  0  0
  9 26  1  0  0  0  0
  9 27  1  0  0  0  0
 10 28  1  0  0  0  0
 10 29  1  0  0  0  0
 11 30  1  0  0  0  0
 16 31  1  0  0  0  0
 16 32  1  0  0  0  0
 17 33  1  0  0  0  0
M  END
> <FRED Chemgauss4 score>
-7.140298

$$$$
C40710779	P61812576
  -OEChem-05182014473D

 28 28  0     1  0  0  0  0  0999 V2000
  121.3386  106.1487  104.7331 C   0  0  0  0  0  0  0  0  0  0  0  0
  123.0119  106.6204  105.8544 C   0  0  0  0  0  0  0  0  0  0  0  0
  119.4433  105.0768  101.5451 C   0  0  0  0  0  0  0  0  0  0  0  0
  120.3314  106.1878  103.6670 C   0  0  0  0  0  0  0  0  0  0  0  0
  120.5117  105.0590  102.6268 C   0  0  0  0  0  0  0  0  0  0  0  0
  124.0277  108.3032  107.4842 C   0  0  0  0  0  0  0  0  0  0  0  0
  123.5458  107.8181  108.8475 C   0  0  0  0  0  0  0  0  0  0  0  0
  124.2773  107.1605  106.4869 C   0  0  2  0  0  0  0  0  0  0  0  0
  122.3986  107.0074  104.7645 N   0  0  0  0  0  0  0  0  0  0  0  0
  121.2741  105.2684  105.7365 N   0  0  0  0  0  0  0  0  0  0  0  0
  125.2095  107.5823  105.4634 N   0  0  0  0  0  0  0  0  0  0  0  0
  122.4068  105.5868  106.4962 O   0  0  0  0  0  0  0  0  0  0  0  0
  122.3344  107.0945  108.6724 O   0  0  0  0  0  0  0  0  0  0  0  0
  118.4429  104.9875  101.9804 H   0  0  0  0  0  0  0  0  0  0  0  0
  119.4859  106.0054  100.9671 H   0  0  0  0  0  0  0  0  0  0  0  0
  119.5889  104.2400  100.8547 H   0  0  0  0  0  0  0  0  0  0  0  0
  119.2988  106.1169  104.0739 H   0  0  0  0  0  0  0  0  0  0  0  0
  120.3438  107.1585  103.1244 H   0  0  0  0  0  0  0  0  0  0  0  0
  121.4989  105.1499  102.1577 H   0  0  0  0  0  0  0  0  0  0  0  0
  120.4911  104.0876  103.1356 H   0  0  0  0  0  0  0  0  0  0  0  0
  124.9566  108.8730  107.6259 H   0  0  0  0  0  0  0  0  0  0  0  0
  123.3121  109.0331  107.0832 H   0  0  0  0  0  0  0  0  0  0  0  0
  124.2762  107.1519  109.3161 H   0  0  0  0  0  0  0  0  0  0  0  0
  123.3515  108.6631  109.5156 H   0  0  0  0  0  0  0  0  0  0  0  0
  124.7921  106.3513  107.0201 H   0  0  0  0  0  0  0  0  0  0  0  0
  125.2440  107.0696  104.6018 H   0  0  0  0  0  0  0  0  0  0  0  0
  125.9309  108.2352  105.7079 H   0  0  0  0  0  0  0  0  0  0  0  0
  122.0546  106.8004  109.5542 H   0  0  0  0  0  0  0  0  0  0  0  0
  1  4  1  0  0  0  0
  1  9  1  0  0  0  0
  1 10  2  0  0  0  0
  2  8  1  0  0  0  0
  2  9  2  0  0  0  0
  2 12  1  0  0  0  0
  3  5  1  0  0  0  0
  4  5  1  0  0  0  0
  6  7  1  0  0  0  0
  6  8  1  0  0  0  0
  7 13  1  0  0  0  0
  8 11  1  0  0  0  0
 10 12  1  0  0  0  0
  3 14  1  0  0  0  0
  3 15  1  0  0  0  0
  3 16  1  0  0  0  0
  4 17  1  0  0  0  0
  4 18  1  0  0  0  0
  5 19  1  0  0  0  0
  5 20  1  0  0  0  0
  6 21  1  0  0  0  0
  6 22  1  0  0  0  0
  7 23  1  0  0  0  0
  7 24  1  0  0  0  0
  8 25  1  0  0  0  0
 11 26  1  0  0  0  0
 11 27  1  0  0  0  0
 13 28  1  0  0  0  0
M  END
> <FRED Chemgauss4 score>
-7.135107

$$$$
C87111177	P136357235
  -OEChem-05182014473D

 24 24  0     1  0  0  0  0  0999 V2000
  120.0835  104.0556  106.2479 C   0  0  0  0  0  0  0  0  0  0  0  0
  119.3424  106.2757  106.8017 C   0  0  0  0  0  0  0  0  0  0  0  0
  118.9791  103.9523  105.4176 C   0  0  0  0  0  0  0  0  0  0  0  0
  118.2713  106.0730  105.9464 C   0  0  0  0  0  0  0  0  0  0  0  0
  120.2613  105.2427  106.9497 C   0  0  0  0  0  0  0  0  0  0  0  0
  124.8399  106.4975  105.5418 C   0  0  0  0  0  0  0  0  0  0  0  0
  122.9995  105.2161  106.8264 C   0  0  0  0  0  0  0  0  0  0  0  0
  123.4443  106.5367  106.1783 C   0  0  2  0  0  0  0  0  0  0  0  0
  118.0652  104.9339  105.2481 N   0  0  0  0  0  0  0  0  0  0  0  0
  122.4724  106.9059  105.1400 N   0  0  0  0  0  0  0  0  0  0  0  0
  125.1667  107.7498  104.9540 O   0  0  0  0  0  0  0  0  0  0  0  0
  121.6483  105.4378  108.0247 S   0  0  0  0  0  0  0  0  0  0  0  0
  120.7771  103.2256  106.3346 H   0  0  0  0  0  0  0  0  0  0  0  0
  119.4450  107.2171  107.3317 H   0  0  0  0  0  0  0  0  0  0  0  0
  118.7950  103.0474  104.8478 H   0  0  0  0  0  0  0  0  0  0  0  0
  117.5268  106.8479  105.7958 H   0  0  0  0  0  0  0  0  0  0  0  0
  125.6033  106.2545  106.2901 H   0  0  0  0  0  0  0  0  0  0  0  0
  124.8897  105.7309  104.7618 H   0  0  0  0  0  0  0  0  0  0  0  0
  122.6360  104.5228  106.0595 H   0  0  0  0  0  0  0  0  0  0  0  0
  123.8325  104.7235  107.3397 H   0  0  0  0  0  0  0  0  0  0  0  0
  123.4304  107.3371  106.9282 H   0  0  0  0  0  0  0  0  0  0  0  0
  122.7738  107.5289  104.4283 H   0  0  0  0  0  0  0  0  0  0  0  0
  121.5181  106.6865  105.3043 H   0  0  0  0  0  0  0  0  0  0  0  0
  126.0546  107.6569  104.5727 H   0  0  0  0  0  0  0  0  0  0  0  0
  1  3  1  0  0  0  0
  1  5  2  0  0  0  0
  2  4  2  0  0  0  0
  2  5  1  0  0  0  0
  3  9  2  0  0  0  0
  4  9  1  0  0  0  0
  5 12  1  0  0  0  0
  6  8  1  0  0  0  0
  6 11  1  0  0  0  0
  7  8  1  0  0  0  0
  7 12  1  0  0  0  0
  8 10  1  0  0  0  0
  1 13  1  0  0  0  0
  2 14  1  0  0  0  0
  3 15  1  0  0  0  0
  4 16  1  0  0  0  0
  6 17  1  0  0  0  0
  6 18  1  0  0  0  0
  7 19  1  0  0  0  0
  7 20  1  0  0  0  0
  8 21  1  0  0  0  0
 10 22  1  0  0  0  0
 10 23  1  0  0  0  0
 11 24  1  0  0  0  0
M  END
> <FRED Chemgauss4 score>
-7.132735

$$$$
C42920684	P64883577
  -OEChem-05182014473D

 19 19  0     1  0  0  0  0  0999 V2000
  123.9002  106.5134  106.2188 C   0  0  0  0  0  0  0  0  0  0  0  0
  124.9722  107.4796  106.7359 C   0  0  0  0  0  0  0  0  0  0  0  0
  124.5133  106.3942  108.8927 C   0  0  0  0  0  0  0  0  0  0  0  0
  124.3598  105.1209  108.0757 C   0  0  1  0  0  0  0  0  0  0  0  0
  123.5838  104.0638  108.8504 C   0  0  0  0  0  0  0  0  0  0  0  0
  123.6239  105.4175  106.8420 N   0  0  0  0  0  0  0  0  0  0  0  0
  125.2037  107.3744  108.0924 N   0  0  0  0  0  0  0  0  0  0  0  0
  124.3364  103.7207  110.0756 N   0  3  0  0  0  0  0  0  0  0  0  0
  123.4226  107.0170  105.1893 O   0  5  0  0  0  0  0  0  0  0  0  0
  125.5678  108.2477  105.9927 O   0  0  0  0  0  0  0  0  0  0  0  0
  123.5437  106.8204  109.1743 H   0  0  0  0  0  0  0  0  0  0  0  0
  125.0998  106.2228  109.8007 H   0  0  0  0  0  0  0  0  0  0  0  0
  125.3433  104.7112  107.8115 H   0  0  0  0  0  0  0  0  0  0  0  0
  123.4722  103.1500  108.2673 H   0  0  0  0  0  0  0  0  0  0  0  0
  122.6080  104.4383  109.1591 H   0  0  0  0  0  0  0  0  0  0  0  0
  125.8718  107.9983  108.5343 H   0  0  0  0  0  0  0  0  0  0  0  0
  124.0075  102.8347  110.4787 H   0  0  0  0  0  0  0  0  0  0  0  0
  124.2296  104.4483  110.7934 H   0  0  0  0  0  0  0  0  0  0  0  0
  125.3402  103.6207  109.8800 H   0  0  0  0  0  0  0  0  0  0  0  0
  1  2  1  0  0  0  0
  1  6  2  0  0  0  0
  1  9  1  0  0  0  0
  2  7  1  0  0  0  0
  2 10  2  0  0  0  0
  3  4  1  0  0  0  0
  3  7  1  0  0  0  0
  4  5  1  0  0  0  0
  4  6  1  0  0  0  0
  5  8  1  0  0  0  0
  3 11  1  0  0  0  0
  3 12  1  0  0  0  0
  4 13  1  0  0  0  0
  5 14  1  0  0  0  0
  5 15  1  0  0  0  0
  7 16  1  0  0  0  0
  8 17  1  0  0  0  0
  8 18  1  0  0  0  0
  8 19  1  0  0  0  0
M  CHG  2   8   1   9  -1
M  END
> <FRED Chemgauss4 score>
-7.127211

$$$$
C91496157	P143180366
  -OEChem-05182014473D

 34 35  0     0  0  0  0  0  0999 V2000
  125.7349  106.5667  108.1327 C   0  0  0  0  0  0  0  0  0  0  0  0
  119.8786  103.8504  106.5344 C   0  0  0  0  0  0  0  0  0  0  0  0
  124.8490  107.0789  109.0805 C   0  0  0  0  0  0  0  0  0  0  0  0
  121.2005  104.2073  106.2926 C   0  0  0  0  0  0  0  0  0  0  0  0
  125.3073  106.3526  106.8223 C   0  0  0  0  0  0  0  0  0  0  0  0
  123.1078  107.1628  107.4077 C   0  0  0  0  0  0  0  0  0  0  0  0
  119.0048  103.8318  105.4593 C   0  0  0  0  0  0  0  0  0  0  0  0
  123.5354  107.3769  108.7181 C   0  0  0  0  0  0  0  0  0  0  0  0
  121.6026  104.5301  105.0013 C   0  0  0  0  0  0  0  0  0  0  0  0
  123.9938  106.6506  106.4599 C   0  0  0  0  0  0  0  0  0  0  0  0
  120.6517  104.4809  103.9948 C   0  0  0  0  0  0  0  0  0  0  0  0
  121.0082  104.8158  102.5809 C   0  0  0  0  0  0  0  0  0  0  0  0
  122.5888  107.9245  109.7321 C   0  0  0  0  0  0  0  0  0  0  0  0
  119.3585  104.1389  104.1911 N   0  0  0  0  0  0  0  0  0  0  0  0
  122.8896  104.8798  104.7609 N   0  5  0  0  0  0  0  0  0  0  0  0
  122.5934  109.4119  109.8023 N   0  3  0  0  0  0  0  0  0  0  0  0
  122.4298  107.4121  104.5896 O   0  0  0  0  0  0  0  0  0  0  0  0
  124.6654  106.5884  103.9977 O   0  0  0  0  0  0  0  0  0  0  0  0
  123.4589  106.3810  104.8201 S   0  0  0  0  0  0  0  0  0  0  0  0
  126.7580  106.3353  108.4147 H   0  0  0  0  0  0  0  0  0  0  0  0
  119.5430  103.5930  107.5322 H   0  0  0  0  0  0  0  0  0  0  0  0
  125.1913  107.2435  110.0989 H   0  0  0  0  0  0  0  0  0  0  0  0
  121.9025  104.2270  107.1233 H   0  0  0  0  0  0  0  0  0  0  0  0
  126.0060  105.9526  106.0924 H   0  0  0  0  0  0  0  0  0  0  0  0
  122.0836  107.3958  107.1264 H   0  0  0  0  0  0  0  0  0  0  0  0
  117.9633  103.5595  105.5944 H   0  0  0  0  0  0  0  0  0  0  0  0
  121.3335  103.9146  102.0503 H   0  0  0  0  0  0  0  0  0  0  0  0
  120.1515  105.2466  102.0502 H   0  0  0  0  0  0  0  0  0  0  0  0
  121.8152  105.5568  102.5434 H   0  0  0  0  0  0  0  0  0  0  0  0
  121.5522  107.6296  109.5191 H   0  0  0  0  0  0  0  0  0  0  0  0
  122.8283  107.5678  110.7432 H   0  0  0  0  0  0  0  0  0  0  0  0
  122.2216  109.8157  108.9383 H   0  0  0  0  0  0  0  0  0  0  0  0
  123.5453  109.7639  109.9369 H   0  0  0  0  0  0  0  0  0  0  0  0
  122.0173  109.7387  110.5829 H   0  0  0  0  0  0  0  0  0  0  0  0
  1  3  1  0  0  0  0
  1  5  2  0  0  0  0
  2  4  1  0  0  0  0
  2  7  2  0  0  0  0
  3  8  2  0  0  0  0
  4  9  2  0  0  0  0
  5 10  1  0  0  0  0
  6  8  1  0  0  0  0
  6 10  2  0  0  0  0
  7 14  1  0  0  0  0
  8 13  1  0  0  0  0
  9 11  1  0  0  0  0
  9 15  1  0  0  0  0
 10 19  1  0  0  0  0
 11 12  1  0  0  0  0
 11 14  2  0  0  0  0
 13 16  1  0  0  0  0
 15 19  1  0  0  0  0
 17 19  2  0  0  0  0
 18 19  2  0  0  0  0
  1 20  1  0  0  0  0
  2 21  1  0  0  0  0
  3 22  1  0  0  0  0
  4 23  1  0  0  0  0
  5 24  1  0  0  0  0
  6 25  1  0  0  0  0
  7 26  1  0  0  0  0
 12 27  1  0  0  0  0
 12 28  1  0  0  0  0
 12 29  1  0  0  0  0
 13 30  1  0  0  0  0
 13 31  1  0  0  0  0
 16 32  1  0  0  0  0
 16 33  1  0  0  0  0
 16 34  1  0  0  0  0
M  CHG  2  15  -1  16   1
M  END
> <FRED Chemgauss4 score>
-7.126226

$$$$
C87061796	P136265586
  -OEChem-05182014473D

 47 48  0     1  0  0  0  0  0999 V2000
  119.6961  104.8833  102.5239 C   0  0  0  0  0  0  0  0  0  0  0  0
  119.3275  105.2210  106.6394 C   0  0  0  0  0  0  0  0  0  0  0  0
  118.4672  105.4159  105.3979 C   0  0  0  0  0  0  0  0  0  0  0  0
  120.4594  104.2065  106.5167 C   0  0  0  0  0  0  0  0  0  0  0  0
  119.0884  106.3862  104.3908 C   0  0  0  0  0  0  0  0  0  0  0  0
  123.5938  107.2193  108.3875 C   0  0  0  0  0  0  0  0  0  0  0  0
  125.5893  105.7471  107.8744 C   0  0  0  0  0  0  0  0  0  0  0  0
  121.0807  103.9761  105.1401 C   0  0  0  0  0  0  0  0  0  0  0  0
  123.6722  107.8117  106.9810 C   0  0  0  0  0  0  0  0  0  0  0  0
  125.6625  106.3417  106.4684 C   0  0  0  0  0  0  0  0  0  0  0  0
  120.2301  105.8302  103.5290 C   0  0  1  0  0  0  0  0  0  0  0  0
  124.9454  106.6966  108.8951 C   0  0  0  0  0  0  0  0  0  0  0  0
  121.4260  105.2065  104.2836 C   0  0  1  0  0  0  0  0  0  0  0  0
  124.3082  106.8564  105.9593 C   0  0  0  0  0  0  0  0  0  0  0  0
  125.8882  107.8445  109.2678 C   0  0  0  0  0  0  0  0  0  0  0  0
  123.3675  105.7008  105.5991 C   0  0  0  0  0  0  0  0  0  0  0  0
  119.2776  104.1413  101.7362 N   0  0  0  0  0  0  0  0  0  0  0  0
  122.1627  106.2179  105.0451 N   0  0  0  0  0  0  0  0  0  0  0  0
  124.5581  107.5898  104.7550 O   0  0  0  0  0  0  0  0  0  0  0  0
  119.7971  106.2011  106.8721 H   0  0  0  0  0  0  0  0  0  0  0  0
  118.6974  105.0041  107.5294 H   0  0  0  0  0  0  0  0  0  0  0  0
  118.3649  104.4591  104.8990 H   0  0  0  0  0  0  0  0  0  0  0  0
  117.4726  105.7346  105.6700 H   0  0  0  0  0  0  0  0  0  0  0  0
  121.2610  104.4532  107.2474 H   0  0  0  0  0  0  0  0  0  0  0  0
  120.0740  103.2256  106.8702 H   0  0  0  0  0  0  0  0  0  0  0  0
  118.3002  106.7739  103.7545 H   0  0  0  0  0  0  0  0  0  0  0  0
  119.4686  107.2277  104.9623 H   0  0  0  0  0  0  0  0  0  0  0  0
  123.2021  107.9795  109.0849 H   0  0  0  0  0  0  0  0  0  0  0  0
  122.8553  106.4003  108.3909 H   0  0  0  0  0  0  0  0  0  0  0  0
  125.0200  104.8035  107.8357 H   0  0  0  0  0  0  0  0  0  0  0  0
  126.6043  105.4721  108.2091 H   0  0  0  0  0  0  0  0  0  0  0  0
  122.0032  103.3916  105.2913 H   0  0  0  0  0  0  0  0  0  0  0  0
  120.4215  103.3038  104.5695 H   0  0  0  0  0  0  0  0  0  0  0  0
  122.6581  108.0882  106.6529 H   0  0  0  0  0  0  0  0  0  0  0  0
  124.2540  108.7448  107.0346 H   0  0  0  0  0  0  0  0  0  0  0  0
  126.3969  107.1617  106.4808 H   0  0  0  0  0  0  0  0  0  0  0  0
  126.0539  105.5779  105.7781 H   0  0  0  0  0  0  0  0  0  0  0  0
  120.6166  106.6739  102.9596 H   0  0  0  0  0  0  0  0  0  0  0  0
  124.7539  106.1139  109.8215 H   0  0  0  0  0  0  0  0  0  0  0  0
  122.1122  104.8486  103.5218 H   0  0  0  0  0  0  0  0  0  0  0  0
  126.1045  108.4452  108.3860 H   0  0  0  0  0  0  0  0  0  0  0  0
  126.8196  107.4431  109.6634 H   0  0  0  0  0  0  0  0  0  0  0  0
  125.4215  108.4744  110.0232 H   0  0  0  0  0  0  0  0  0  0  0  0
  123.1415  105.1469  106.4997 H   0  0  0  0  0  0  0  0  0  0  0  0
  123.8553  105.0671  104.8720 H   0  0  0  0  0  0  0  0  0  0  0  0
  122.3575  107.0066  104.4102 H   0  0  0  0  0  0  0  0  0  0  0  0
  125.1614  108.3078  104.9955 H   0  0  0  0  0  0  0  0  0  0  0  0
  1 11  1  0  0  0  0
  1 17  3  0  0  0  0
  2  3  1  0  0  0  0
  2  4  1  0  0  0  0
  3  5  1  0  0  0  0
  4  8  1  0  0  0  0
  5 11  1  0  0  0  0
  6  9  1  0  0  0  0
  6 12  1  0  0  0  0
  7 10  1  0  0  0  0
  7 12  1  0  0  0  0
  8 13  1  0  0  0  0
  9 14  1  0  0  0  0
 10 14  1  0  0  0  0
 11 13  1  0  0  0  0
 12 15  1  0  0  0  0
 13 18  1  0  0  0  0
 14 16  1  0  0  0  0
 14 19  1  0  0  0  0
 16 18  1  0  0  0  0
  2 20  1  0  0  0  0
  2 21  1  0  0  0  0
  3 22  1  0  0  0  0
  3 23  1  0  0  0  0
  4 24  1  0  0  0  0
  4 25  1  0  0  0  0
  5 26  1  0  0  0  0
  5 27  1  0  0  0  0
  6 28  1  0  0  0  0
  6 29  1  0  0  0  0
  7 30  1  0  0  0  0
  7 31  1  0  0  0  0
  8 32  1  0  0  0  0
  8 33  1  0  0  0  0
  9 34  1  0  0  0  0
  9 35  1  0  0  0  0
 10 36  1  0  0  0  0
 10 37  1  0  0  0  0
 11 38  1  0  0  0  0
 12 39  1  0  0  0  0
 13 40  1  0  0  0  0
 15 41  1  0  0  0  0
 15 42  1  0  0  0  0
 15 43  1  0  0  0  0
 16 44  1  0  0  0  0
 16 45  1  0  0  0  0
 18 46  1  0  0  0  0
 19 47  1  0  0  0  0
M  END
> <FRED Chemgauss4 score>
-7.123216

$$$$
C83693351	P130916066
  -OEChem-05182014473D

 31 31  0     1  0  0  0  0  0999 V2000
  121.4988  104.0058  104.7749 C   0  0  0  0  0  0  0  0  0  0  0  0
  120.0823  104.2561  104.2673 C   0  0  0  0  0  0  0  0  0  0  0  0
  120.3857  104.4440  106.9158 C   0  0  0  0  0  0  0  0  0  0  0  0
  121.6439  104.7446  106.1061 C   0  0  2  0  0  0  0  0  0  0  0  0
  124.7131  108.0841  107.1215 C   0  0  0  0  0  0  0  0  0  0  0  0
  124.3425  106.4654  109.0141 C   0  0  0  0  0  0  0  0  0  0  0  0
  124.0197  106.7957  107.5582 C   0  0  0  0  0  0  0  0  0  0  0  0
  122.5625  106.9209  107.3748 N   0  0  0  0  0  0  0  0  0  0  0  0
  118.4234  103.0122  105.8928 O   0  0  0  0  0  0  0  0  0  0  0  0
  118.3007  105.5392  105.7217 O   0  0  0  0  0  0  0  0  0  0  0  0
  122.8490  106.6762  104.8150 O   0  0  0  0  0  0  0  0  0  0  0  0
  120.5580  107.0942  105.7809 O   0  0  0  0  0  0  0  0  0  0  0  0
  124.8163  108.1071  105.7022 O   0  0  0  0  0  0  0  0  0  0  0  0
  125.7485  106.3009  109.1604 O   0  0  0  0  0  0  0  0  0  0  0  0
  119.0566  104.3041  105.7271 S   0  0  0  0  0  0  0  0  0  0  0  0
  121.8734  106.4854  105.8733 S   0  0  0  0  0  0  0  0  0  0  0  0
  121.6330  102.9305  104.9471 H   0  0  0  0  0  0  0  0  0  0  0  0
  122.2423  104.3176  104.0346 H   0  0  0  0  0  0  0  0  0  0  0  0
  120.0033  105.2241  103.7649 H   0  0  0  0  0  0  0  0  0  0  0  0
  119.7350  103.4650  103.5993 H   0  0  0  0  0  0  0  0  0  0  0  0
  120.4730  103.4725  107.4123 H   0  0  0  0  0  0  0  0  0  0  0  0
  120.1365  105.2137  107.6497 H   0  0  0  0  0  0  0  0  0  0  0  0
  122.5374  104.4107  106.6441 H   0  0  0  0  0  0  0  0  0  0  0  0
  125.7276  108.1369  107.5301 H   0  0  0  0  0  0  0  0  0  0  0  0
  124.1542  108.9695  107.4437 H   0  0  0  0  0  0  0  0  0  0  0  0
  123.8488  105.5420  109.3362 H   0  0  0  0  0  0  0  0  0  0  0  0
  124.0322  107.2816  109.6747 H   0  0  0  0  0  0  0  0  0  0  0  0
  124.3213  105.9649  106.9092 H   0  0  0  0  0  0  0  0  0  0  0  0
  122.0156  106.7015  108.2175 H   0  0  0  0  0  0  0  0  0  0  0  0
  125.2603  108.9378  105.4690 H   0  0  0  0  0  0  0  0  0  0  0  0
  125.9086  106.0935  110.0947 H   0  0  0  0  0  0  0  0  0  0  0  0
  1  2  1  0  0  0  0
  1  4  1  0  0  0  0
  2 15  1  0  0  0  0
  3  4  1  0  0  0  0
  3 15  1  0  0  0  0
  4 16  1  0  0  0  0
  5  7  1  0  0  0  0
  5 13  1  0  0  0  0
  6  7  1  0  0  0  0
  6 14  1  0  0  0  0
  7  8  1  0  0  0  0
  8 16  1  0  0  0  0
  9 15  2  0  0  0  0
 10 15  2  0  0  0  0
 11 16  2  0  0  0  0
 12 16  2  0  0  0  0
  1 17  1  0  0  0  0
  1 18  1  0  0  0  0
  2 19  1  0  0  0  0
  2 20  1  0  0  0  0
  3 21  1  0  0  0  0
  3 22  1  0  0  0  0
  4 23  1  0  0  0  0
  5 24  1  0  0  0  0
  5 25  1  0  0  0  0
  6 26  1  0  0  0  0
  6 27  1  0  0  0  0
  7 28  1  0  0  0  0
  8 29  1  0  0  0  0
 13 30  1  0  0  0  0
 14 31  1  0  0  0  0
M  END
> <FRED Chemgauss4 score>
-7.118430

$$$$
C63132327	P96937982
  -OEChem-05182014473D

 38 39  0     0  0  0  0  0  0999 V2000
  126.1150  105.6898  108.6803 C   0  0  0  0  0  0  0  0  0  0  0  0
  125.1180  106.6651  108.6964 C   0  0  0  0  0  0  0  0  0  0  0  0
  124.8441  104.4173  107.0671 C   0  0  0  0  0  0  0  0  0  0  0  0
  116.2322  103.1462  105.0199 C   0  0  0  0  0  0  0  0  0  0  0  0
  116.5574  103.6662  103.7845 C   0  0  0  0  0  0  0  0  0  0  0  0
  123.8470  105.3926  107.0832 C   0  0  0  0  0  0  0  0  0  0  0  0
  125.9781  104.5659  107.8656 C   0  0  0  0  0  0  0  0  0  0  0  0
  123.9840  106.5165  107.8979 C   0  0  0  0  0  0  0  0  0  0  0  0
  118.2108  103.9540  105.5125 C   0  0  0  0  0  0  0  0  0  0  0  0
  122.6746  105.2083  106.2371 C   0  0  0  0  0  0  0  0  0  0  0  0
  123.3049  108.8790  107.5547 C   0  0  0  0  0  0  0  0  0  0  0  0
  121.6317  107.1868  108.3196 C   0  0  0  0  0  0  0  0  0  0  0  0
  119.4486  104.3202  106.2940 C   0  0  0  0  0  0  0  0  0  0  0  0
  120.7251  103.7318  105.6980 C   0  0  0  0  0  0  0  0  0  0  0  0
  117.1793  103.3099  106.0118 N   0  0  0  0  0  0  0  0  0  0  0  0
  126.9864  103.5798  107.8496 N   0  0  0  0  0  0  0  0  0  0  0  0
  121.9018  104.0660  106.4676 N   0  0  0  0  0  0  0  0  0  0  0  0
  122.9866  107.5164  107.9282 N   0  0  0  0  0  0  0  0  0  0  0  0
  122.4076  106.0313  105.3458 O   0  0  0  0  0  0  0  0  0  0  0  0
  118.1088  104.3936  103.8568 S   0  0  0  0  0  0  0  0  0  0  0  0
  126.9948  105.8156  109.3062 H   0  0  0  0  0  0  0  0  0  0  0  0
  125.2362  107.5370  109.3348 H   0  0  0  0  0  0  0  0  0  0  0  0
  124.7387  103.5400  106.4321 H   0  0  0  0  0  0  0  0  0  0  0  0
  115.3084  102.6339  105.2528 H   0  0  0  0  0  0  0  0  0  0  0  0
  115.9755  103.6557  102.8738 H   0  0  0  0  0  0  0  0  0  0  0  0
  122.4155  109.5090  107.6383 H   0  0  0  0  0  0  0  0  0  0  0  0
  123.6651  108.9138  106.5229 H   0  0  0  0  0  0  0  0  0  0  0  0
  124.0825  109.2790  108.2110 H   0  0  0  0  0  0  0  0  0  0  0  0
  121.0025  108.0799  108.2842 H   0  0  0  0  0  0  0  0  0  0  0  0
  121.6189  106.7874  109.3374 H   0  0  0  0  0  0  0  0  0  0  0  0
  121.2150  106.4357  107.6432 H   0  0  0  0  0  0  0  0  0  0  0  0
  119.3295  103.9597  107.3236 H   0  0  0  0  0  0  0  0  0  0  0  0
  119.5333  105.4122  106.3645 H   0  0  0  0  0  0  0  0  0  0  0  0
  120.6592  102.6393  105.6804 H   0  0  0  0  0  0  0  0  0  0  0  0
  120.8906  104.0804  104.6733 H   0  0  0  0  0  0  0  0  0  0  0  0
  127.8154  103.7210  108.3907 H   0  0  0  0  0  0  0  0  0  0  0  0
  126.8986  102.8027  107.2265 H   0  0  0  0  0  0  0  0  0  0  0  0
  122.2018  103.3948  107.1671 H   0  0  0  0  0  0  0  0  0  0  0  0
  1  2  2  0  0  0  0
  1  7  1  0  0  0  0
  2  8  1  0  0  0  0
  3  6  1  0  0  0  0
  3  7  2  0  0  0  0
  4  5  2  0  0  0  0
  4 15  1  0  0  0  0
  5 20  1  0  0  0  0
  6  8  2  0  0  0  0
  6 10  1  0  0  0  0
  7 16  1  0  0  0  0
  8 18  1  0  0  0  0
  9 13  1  0  0  0  0
  9 15  2  0  0  0  0
  9 20  1  0  0  0  0
 10 17  1  0  0  0  0
 10 19  2  0  0  0  0
 11 18  1  0  0  0  0
 12 18  1  0  0  0  0
 13 14  1  0  0  0  0
 14 17  1  0  0  0  0
  1 21  1  0  0  0  0
  2 22  1  0  0  0  0
  3 23  1  0  0  0  0
  4 24  1  0  0  0  0
  5 25  1  0  0  0  0
 11 26  1  0  0  0  0
 11 27  1  0  0  0  0
 11 28  1  0  0  0  0
 12 29  1  0  0  0  0
 12 30  1  0  0  0  0
 12 31  1  0  0  0  0
 13 32  1  0  0  0  0
 13 33  1  0  0  0  0
 14 34  1  0  0  0  0
 14 35  1  0  0  0  0
 16 36  1  0  0  0  0
 16 37  1  0  0  0  0
 17 38  1  0  0  0  0
M  END
> <FRED Chemgauss4 score>
-7.115881

$$$$
C80052265	P125060489
  -OEChem-05182014473D

 30 31  0     0  0  0  0  0  0999 V2000
  121.5530  104.2997  103.3257 C   0  0  0  0  0  0  0  0  0  0  0  0
  121.1095  104.4188  102.0087 C   0  0  0  0  0  0  0  0  0  0  0  0
  119.0885  105.4904  102.7862 C   0  0  0  0  0  0  0  0  0  0  0  0
  123.5718  104.9125  106.7793 C   0  0  0  0  0  0  0  0  0  0  0  0
  120.7643  104.7759  104.3731 C   0  0  0  0  0  0  0  0  0  0  0  0
  124.5665  105.8471  106.6251 C   0  0  0  0  0  0  0  0  0  0  0  0
  119.8773  105.0142  101.7389 C   0  0  0  0  0  0  0  0  0  0  0  0
  119.5321  105.3713  104.1033 C   0  0  0  0  0  0  0  0  0  0  0  0
  124.0492  106.7599  105.6865 C   0  0  0  0  0  0  0  0  0  0  0  0
  124.6986  107.9687  105.1497 C   0  0  0  0  0  0  0  0  0  0  0  0
  121.2741  104.6268  105.7703 C   0  0  0  0  0  0  0  0  0  0  0  0
  125.8765  105.8760  107.2970 C   0  0  0  0  0  0  0  0  0  0  0  0
  122.8214  106.4346  105.2734 N   0  0  0  0  0  0  0  0  0  0  0  0
  122.5589  105.3068  105.9555 N   0  0  0  0  0  0  0  0  0  0  0  0
  126.9656  105.4706  106.4328 N   0  0  0  0  0  0  0  0  0  0  0  0
  119.3311  105.1626  100.1136 Cl  0  0  0  0  0  0  0  0  0  0  0  0
  118.5283  105.9708  105.3732 Cl  0  0  0  0  0  0  0  0  0  0  0  0
  122.5139  103.8324  103.5252 H   0  0  0  0  0  0  0  0  0  0  0  0
  121.7348  104.0439  101.2025 H   0  0  0  0  0  0  0  0  0  0  0  0
  118.1273  105.9539  102.5741 H   0  0  0  0  0  0  0  0  0  0  0  0
  123.5003  104.0227  107.3900 H   0  0  0  0  0  0  0  0  0  0  0  0
  125.2792  107.7402  104.2399 H   0  0  0  0  0  0  0  0  0  0  0  0
  123.9668  108.7538  104.8893 H   0  0  0  0  0  0  0  0  0  0  0  0
  125.3891  108.4289  105.8786 H   0  0  0  0  0  0  0  0  0  0  0  0
  120.5672  105.0381  106.5065 H   0  0  0  0  0  0  0  0  0  0  0  0
  121.4123  103.5692  106.0415 H   0  0  0  0  0  0  0  0  0  0  0  0
  126.1290  106.8858  107.6706 H   0  0  0  0  0  0  0  0  0  0  0  0
  125.9127  105.2107  108.1794 H   0  0  0  0  0  0  0  0  0  0  0  0
  127.7855  105.0695  106.8478 H   0  0  0  0  0  0  0  0  0  0  0  0
  126.9642  105.7811  105.4793 H   0  0  0  0  0  0  0  0  0  0  0  0
  1  2  2  0  0  0  0
  1  5  1  0  0  0  0
  2  7  1  0  0  0  0
  3  7  2  0  0  0  0
  3  8  1  0  0  0  0
  4  6  2  0  0  0  0
  4 14  1  0  0  0  0
  5  8  2  0  0  0  0
  5 11  1  0  0  0  0
  6  9  1  0  0  0  0
  6 12  1  0  0  0  0
  7 16  1  0  0  0  0
  8 17  1  0  0  0  0
  9 10  1  0  0  0  0
  9 13  2  0  0  0  0
 11 14  1  0  0  0  0
 12 15  1  0  0  0  0
 13 14  1  0  0  0  0
  1 18  1  0  0  0  0
  2 19  1  0  0  0  0
  3 20  1  0  0  0  0
  4 21  1  0  0  0  0
 10 22  1  0  0  0  0
 10 23  1  0  0  0  0
 10 24  1  0  0  0  0
 11 25  1  0  0  0  0
 11 26  1  0  0  0  0
 12 27  1  0  0  0  0
 12 28  1  0  0  0  0
 15 29  1  0  0  0  0
 15 30  1  0  0  0  0
M  END
> <FRED Chemgauss4 score>
-7.111156

$$$$
C34604564	P120599899
  -OEChem-05182014473D

 26 26  0     1  0  0  0  0  0999 V2000
  121.4303  105.6249  105.9894 C   0  0  0  0  0  0  0  0  0  0  0  0
  122.8383  105.7290  106.4795 C   0  0  2  0  0  0  0  0  0  0  0  0
  122.8813  106.2669  107.9037 C   0  0  2  0  0  0  0  0  0  0  0  0
  124.3132  106.6279  108.3029 C   0  0  1  0  0  0  0  0  0  0  0  0
  124.9968  107.4740  107.2285 C   0  0  2  0  0  0  0  0  0  0  0  0
  124.8180  106.8560  105.8419 C   0  0  1  0  0  0  0  0  0  0  0  0
  119.3801  104.5182  106.3836 C   0  0  0  0  0  0  0  0  0  0  0  0
  120.9825  106.2684  105.0500 O   0  0  0  0  0  0  0  0  0  0  0  0
  123.4353  106.6440  105.5702 O   0  0  0  0  0  0  0  0  0  0  0  0
  122.3898  105.2620  108.7889 O   0  0  0  0  0  0  0  0  0  0  0  0
  124.2676  107.3645  109.5257 O   0  0  0  0  0  0  0  0  0  0  0  0
  126.3872  107.5546  107.5389 O   0  0  0  0  0  0  0  0  0  0  0  0
  125.3664  107.7614  104.8852 O   0  0  0  0  0  0  0  0  0  0  0  0
  120.7501  104.7174  106.7462 O   0  0  0  0  0  0  0  0  0  0  0  0
  123.3000  104.7386  106.3895 H   0  0  0  0  0  0  0  0  0  0  0  0
  122.2325  107.1454  108.0121 H   0  0  0  0  0  0  0  0  0  0  0  0
  124.8923  105.7194  108.5108 H   0  0  0  0  0  0  0  0  0  0  0  0
  124.6029  108.4977  107.2514 H   0  0  0  0  0  0  0  0  0  0  0  0
  125.3711  105.9119  105.7578 H   0  0  0  0  0  0  0  0  0  0  0  0
  118.9306  103.7765  107.0483 H   0  0  0  0  0  0  0  0  0  0  0  0
  119.3225  104.1766  105.3470 H   0  0  0  0  0  0  0  0  0  0  0  0
  118.8446  105.4654  106.4833 H   0  0  0  0  0  0  0  0  0  0  0  0
  122.9732  104.4949  108.6849 H   0  0  0  0  0  0  0  0  0  0  0  0
  123.7382  108.1563  109.3479 H   0  0  0  0  0  0  0  0  0  0  0  0
  126.7214  106.6448  107.5402 H   0  0  0  0  0  0  0  0  0  0  0  0
  125.2425  107.3506  104.0160 H   0  0  0  0  0  0  0  0  0  0  0  0
  1  2  1  0  0  0  0
  1  8  2  0  0  0  0
  1 14  1  0  0  0  0
  2  3  1  0  0  0  0
  2  9  1  0  0  0  0
  3  4  1  0  0  0  0
  3 10  1  0  0  0  0
  4  5  1  0  0  0  0
  4 11  1  0  0  0  0
  5  6  1  0  0  0  0
  5 12  1  0  0  0  0
  6  9  1  0  0  0  0
  6 13  1  0  0  0  0
  7 14  1  0  0  0  0
  2 15  1  0  0  0  0
  3 16  1  0  0  0  0
  4 17  1  0  0  0  0
  5 18  1  0  0  0  0
  6 19  1  0  0  0  0
  7 20  1  0  0  0  0
  7 21  1  0  0  0  0
  7 22  1  0  0  0  0
 10 23  1  0  0  0  0
 11 24  1  0  0  0  0
 12 25  1  0  0  0  0
 13 26  1  0  0  0  0
M  END
> <FRED Chemgauss4 score>
-7.109931

$$$$
C05669319	P122489113
  -OEChem-05182014473D

 35 35  0     0  0  0  0  0  0999 V2000
  122.9670  105.9564  106.7373 C   0  0  0  0  0  0  0  0  0  0  0  0
  123.5294  107.0460  105.8948 C   0  0  0  0  0  0  0  0  0  0  0  0
  123.7820  105.2235  107.7430 C   0  0  0  0  0  0  0  0  0  0  0  0
  125.6820  106.6596  107.0595 C   0  0  0  0  0  0  0  0  0  0  0  0
  121.6833  105.6241  106.5850 C   0  0  0  0  0  0  0  0  0  0  0  0
  118.2955  105.0472  103.0345 C   0  0  0  0  0  0  0  0  0  0  0  0
  115.9551  104.1547  103.2441 C   0  0  0  0  0  0  0  0  0  0  0  0
  116.6755  106.1257  104.6274 C   0  0  0  0  0  0  0  0  0  0  0  0
  120.0055  103.8717  106.7875 C   0  0  0  0  0  0  0  0  0  0  0  0
  119.0043  104.6864  105.9799 C   0  0  0  0  0  0  0  0  0  0  0  0
  117.1227  104.8074  103.9896 C   0  0  0  0  0  0  0  0  0  0  0  0
  124.8710  107.3015  106.1424 N   0  0  0  0  0  0  0  0  0  0  0  0
  125.0989  105.6567  107.8111 N   0  0  0  0  0  0  0  0  0  0  0  0
  121.0944  104.6620  107.2949 N   0  0  0  0  0  0  0  0  0  0  0  0
  122.8684  107.6591  105.0618 O   0  0  0  0  0  0  0  0  0  0  0  0
  123.3312  104.3223  108.4439 O   0  0  0  0  0  0  0  0  0  0  0  0
  127.2898  107.0761  107.2504 S   0  0  0  0  0  0  0  0  0  0  0  0
  117.6702  103.6668  105.3186 S   0  0  0  0  0  0  0  0  0  0  0  0
  121.0475  106.1279  105.8674 H   0  0  0  0  0  0  0  0  0  0  0  0
  119.1460  105.5145  103.5447 H   0  0  0  0  0  0  0  0  0  0  0  0
  118.6513  104.0997  102.6128 H   0  0  0  0  0  0  0  0  0  0  0  0
  118.0100  105.6890  102.1929 H   0  0  0  0  0  0  0  0  0  0  0  0
  115.1009  103.9720  103.9066 H   0  0  0  0  0  0  0  0  0  0  0  0
  116.2447  103.1989  102.7918 H   0  0  0  0  0  0  0  0  0  0  0  0
  115.6027  104.8031  102.4331 H   0  0  0  0  0  0  0  0  0  0  0  0
  115.8354  105.9799  105.3166 H   0  0  0  0  0  0  0  0  0  0  0  0
  117.4933  106.5736  105.2042 H   0  0  0  0  0  0  0  0  0  0  0  0
  116.3716  106.8601  103.8722 H   0  0  0  0  0  0  0  0  0  0  0  0
  120.4502  103.1036  106.1461 H   0  0  0  0  0  0  0  0  0  0  0  0
  119.5320  103.3652  107.6350 H   0  0  0  0  0  0  0  0  0  0  0  0
  118.5633  105.4801  106.5916 H   0  0  0  0  0  0  0  0  0  0  0  0
  119.5136  105.1554  105.1323 H   0  0  0  0  0  0  0  0  0  0  0  0
  125.3016  108.0382  105.5905 H   0  0  0  0  0  0  0  0  0  0  0  0
  125.6964  105.1864  108.4852 H   0  0  0  0  0  0  0  0  0  0  0  0
  121.4488  104.4946  108.2399 H   0  0  0  0  0  0  0  0  0  0  0  0
  1  2  1  0  0  0  0
  1  3  1  0  0  0  0
  1  5  2  0  0  0  0
  2 12  1  0  0  0  0
  2 15  2  0  0  0  0
  3 13  1  0  0  0  0
  3 16  2  0  0  0  0
  4 12  1  0  0  0  0
  4 13  1  0  0  0  0
  4 17  2  0  0  0  0
  5 14  1  0  0  0  0
  6 11  1  0  0  0  0
  7 11  1  0  0  0  0
  8 11  1  0  0  0  0
  9 10  1  0  0  0  0
  9 14  1  0  0  0  0
 10 18  1  0  0  0  0
 11 18  1  0  0  0  0
  5 19  1  0  0  0  0
  6 20  1  0  0  0  0
  6 21  1  0  0  0  0
  6 22  1  0  0  0  0
  7 23  1  0  0  0  0
  7 24  1  0  0  0  0
  7 25  1  0  0  0  0
  8 26  1  0  0  0  0
  8 27  1  0  0  0  0
  8 28  1  0  0  0  0
  9 29  1  0  0  0  0
  9 30  1  0  0  0  0
 10 31  1  0  0  0  0
 10 32  1  0  0  0  0
 12 33  1  0  0  0  0
 13 34  1  0  0  0  0
 14 35  1  0  0  0  0
M  END
> <FRED Chemgauss4 score>
-7.109188

$$$$
C04544532	P06219521
  -OEChem-05182014473D

 23 23  0     1  0  0  0  0  0999 V2000
  125.4485  105.9486  107.9583 C   0  0  1  0  0  0  0  0  0  0  0  0
  124.0266  105.4040  108.1373 C   0  0  2  0  0  0  0  0  0  0  0  0
  125.4931  107.0916  106.9424 C   0  0  1  0  0  0  0  0  0  0  0  0
  123.4214  105.0705  106.7651 C   0  0  1  0  0  0  0  0  0  0  0  0
  124.8208  106.6458  105.6419 C   0  0  1  0  0  0  0  0  0  0  0  0
  121.9621  104.6389  106.8456 C   0  0  0  0  0  0  0  0  0  0  0  0
  123.4820  106.2120  105.8968 O   0  0  0  0  0  0  0  0  0  0  0  0
  125.9737  106.3620  109.2136 O   0  0  0  0  0  0  0  0  0  0  0  0
  123.2290  106.3790  108.8089 O   0  0  0  0  0  0  0  0  0  0  0  0
  124.8050  108.2283  107.4678 O   0  0  0  0  0  0  0  0  0  0  0  0
  124.8301  107.7374  104.7270 O   0  0  0  0  0  0  0  0  0  0  0  0
  121.6514  103.9791  105.7038 F   0  0  0  0  0  0  0  0  0  0  0  0
  126.0853  105.1318  107.5950 H   0  0  0  0  0  0  0  0  0  0  0  0
  124.0523  104.5171  108.7811 H   0  0  0  0  0  0  0  0  0  0  0  0
  126.5257  107.4118  106.7642 H   0  0  0  0  0  0  0  0  0  0  0  0
  123.9933  104.2560  106.3016 H   0  0  0  0  0  0  0  0  0  0  0  0
  125.3862  105.8234  105.1860 H   0  0  0  0  0  0  0  0  0  0  0  0
  121.3106  105.5060  106.9366 H   0  0  0  0  0  0  0  0  0  0  0  0
  121.8073  103.9689  107.6894 H   0  0  0  0  0  0  0  0  0  0  0  0
  125.9784  105.5783  109.7861 H   0  0  0  0  0  0  0  0  0  0  0  0
  122.3444  105.9939  108.8996 H   0  0  0  0  0  0  0  0  0  0  0  0
  125.2658  108.4726  108.2841 H   0  0  0  0  0  0  0  0  0  0  0  0
  124.3989  107.4236  103.9169 H   0  0  0  0  0  0  0  0  0  0  0  0
  1  2  1  0  0  0  0
  1  3  1  0  0  0  0
  1  8  1  0  0  0  0
  2  4  1  0  0  0  0
  2  9  1  0  0  0  0
  3  5  1  0  0  0  0
  3 10  1  0  0  0  0
  4  6  1  0  0  0  0
  4  7  1  0  0  0  0
  5  7  1  0  0  0  0
  5 11  1  0  0  0  0
  6 12  1  0  0  0  0
  1 13  1  0  0  0  0
  2 14  1  0  0  0  0
  3 15  1  0  0  0  0
  4 16  1  0  0  0  0
  5 17  1  0  0  0  0
  6 18  1  0  0  0  0
  6 19  1  0  0  0  0
  8 20  1  0  0  0  0
  9 21  1  0  0  0  0
 10 22  1  0  0  0  0
 11 23  1  0  0  0  0
M  END
> <FRED Chemgauss4 score>
-7.099166

$$$$
C12876633	P18914539
  -OEChem-05182014473D

 34 36  0     1  0  0  0  0  0999 V2000
  123.5865  105.4360  107.9764 C   0  0  0  0  0  0  0  0  0  0  0  0
  124.4730  104.6021  108.6506 C   0  0  0  0  0  0  0  0  0  0  0  0
  126.2424  105.3205  107.1707 C   0  0  0  0  0  0  0  0  0  0  0  0
  124.9113  107.6902  104.8322 C   0  0  0  0  0  0  0  0  0  0  0  0
  124.0367  106.2131  106.8950 C   0  0  0  0  0  0  0  0  0  0  0  0
  125.3769  106.1636  106.4780 C   0  0  0  0  0  0  0  0  0  0  0  0
  125.8024  104.5447  108.2472 C   0  0  0  0  0  0  0  0  0  0  0  0
  123.2023  107.0666  106.1786 C   0  0  0  0  0  0  0  0  0  0  0  0
  119.5019  106.8299  105.8932 C   0  0  0  0  0  0  0  0  0  0  0  0
  119.0697  107.2345  107.2980 C   0  0  0  0  0  0  0  0  0  0  0  0
  120.9112  106.2442  105.8907 C   0  0  0  0  0  0  0  0  0  0  0  0
  121.4968  107.6236  107.8872 C   0  0  0  0  0  0  0  0  0  0  0  0
  120.0790  108.2161  107.9021 C   0  0  2  0  0  0  0  0  0  0  0  0
  119.6712  108.6046  109.3218 C   0  0  0  0  0  0  0  0  0  0  0  0
  125.8181  106.9023  105.4448 N   0  0  0  0  0  0  0  0  0  0  0  0
  123.6108  107.8198  105.1402 N   0  0  0  0  0  0  0  0  0  0  0  0
  121.8526  107.1680  106.5376 N   0  0  0  0  0  0  0  0  0  0  0  0
  118.4465  109.1523  109.3148 F   0  0  0  0  0  0  0  0  0  0  0  0
  119.6573  107.5188  110.1096 F   0  0  0  0  0  0  0  0  0  0  0  0
  120.5419  109.4940  109.8230 F   0  0  0  0  0  0  0  0  0  0  0  0
  126.9080  103.5166  109.0740 Cl  0  0  0  0  0  0  0  0  0  0  0  0
  122.5525  105.4639  108.3105 H   0  0  0  0  0  0  0  0  0  0  0  0
  124.1148  104.0056  109.4852 H   0  0  0  0  0  0  0  0  0  0  0  0
  127.2861  105.2676  106.8630 H   0  0  0  0  0  0  0  0  0  0  0  0
  125.2731  108.2831  104.0009 H   0  0  0  0  0  0  0  0  0  0  0  0
  118.7968  106.0983  105.4831 H   0  0  0  0  0  0  0  0  0  0  0  0
  119.4703  107.7095  105.2378 H   0  0  0  0  0  0  0  0  0  0  0  0
  118.0750  107.6935  107.2559 H   0  0  0  0  0  0  0  0  0  0  0  0
  118.9853  106.3405  107.9286 H   0  0  0  0  0  0  0  0  0  0  0  0
  120.9162  105.2798  106.4150 H   0  0  0  0  0  0  0  0  0  0  0  0
  121.2133  106.0591  104.8523 H   0  0  0  0  0  0  0  0  0  0  0  0
  122.2068  108.3909  108.2226 H   0  0  0  0  0  0  0  0  0  0  0  0
  121.5652  106.7821  108.5897 H   0  0  0  0  0  0  0  0  0  0  0  0
  120.0796  109.1269  107.2881 H   0  0  0  0  0  0  0  0  0  0  0  0
  1  2  1  0  0  0  0
  1  5  2  0  0  0  0
  2  7  2  0  0  0  0
  3  6  2  0  0  0  0
  3  7  1  0  0  0  0
  4 15  2  0  0  0  0
  4 16  1  0  0  0  0
  5  6  1  0  0  0  0
  5  8  1  0  0  0  0
  6 15  1  0  0  0  0
  7 21  1  0  0  0  0
  8 16  2  0  0  0  0
  8 17  1  0  0  0  0
  9 10  1  0  0  0  0
  9 11  1  0  0  0  0
 10 13  1  0  0  0  0
 11 17  1  0  0  0  0
 12 13  1  0  0  0  0
 12 17  1  0  0  0  0
 13 14  1  0  0  0  0
 14 18  1  0  0  0  0
 14 19  1  0  0  0  0
 14 20  1  0  0  0  0
  1 22  1  0  0  0  0
  2 23  1  0  0  0  0
  3 24  1  0  0  0  0
  4 25  1  0  0  0  0
  9 26  1  0  0  0  0
  9 27  1  0  0  0  0
 10 28  1  0  0  0  0
 10 29  1  0  0  0  0
 11 30  1  0  0  0  0
 11 31  1  0  0  0  0
 12 32  1  0  0  0  0
 12 33  1  0  0  0  0
 13 34  1  0  0  0  0
M  END
> <FRED Chemgauss4 score>
-7.096473

$$$$
C97832325	P155280059
  -OEChem-05182014473D

 26 26  0     1  0  0  0  0  0999 V2000
  121.6775  106.3149  104.7531 C   0  0  0  0  0  0  0  0  0  0  0  0
  123.3965  106.8149  105.8266 C   0  0  0  0  0  0  0  0  0  0  0  0
  125.2870  106.6673  107.5007 C   0  0  0  0  0  0  0  0  0  0  0  0
  117.6751  105.4862  106.1910 C   0  0  0  0  0  0  0  0  0  0  0  0
  121.0599  104.0695  105.7888 C   0  0  0  0  0  0  0  0  0  0  0  0
  119.5689  104.2557  105.5415 C   0  0  0  0  0  0  0  0  0  0  0  0
  124.6349  107.4818  106.3854 C   0  0  1  0  0  0  0  0  0  0  0  0
  122.6307  107.2856  104.8697 N   0  0  0  0  0  0  0  0  0  0  0  0
  122.9120  105.6178  106.2532 N   0  0  0  0  0  0  0  0  0  0  0  0
  121.8052  105.2731  105.5777 N   0  0  0  0  0  0  0  0  0  0  0  0
  125.5989  107.7617  105.3461 N   0  0  0  0  0  0  0  0  0  0  0  0
  119.0646  105.2723  106.3979 O   0  0  0  0  0  0  0  0  0  0  0  0
  120.8701  106.3885  104.0353 H   0  0  0  0  0  0  0  0  0  0  0  0
  125.5843  105.6755  107.1429 H   0  0  0  0  0  0  0  0  0  0  0  0
  126.1831  107.1760  107.8740 H   0  0  0  0  0  0  0  0  0  0  0  0
  124.6150  106.5308  108.3555 H   0  0  0  0  0  0  0  0  0  0  0  0
  117.3224  106.2717  106.8639 H   0  0  0  0  0  0  0  0  0  0  0  0
  117.1304  104.5578  106.3805 H   0  0  0  0  0  0  0  0  0  0  0  0
  117.5134  105.7965  105.1560 H   0  0  0  0  0  0  0  0  0  0  0  0
  121.4778  103.3018  105.1273 H   0  0  0  0  0  0  0  0  0  0  0  0
  121.2409  103.7564  106.8235 H   0  0  0  0  0  0  0  0  0  0  0  0
  119.4020  104.5747  104.5079 H   0  0  0  0  0  0  0  0  0  0  0  0
  119.0075  103.3332  105.7220 H   0  0  0  0  0  0  0  0  0  0  0  0
  124.3603  108.4591  106.8012 H   0  0  0  0  0  0  0  0  0  0  0  0
  126.5619  107.8899  105.6004 H   0  0  0  0  0  0  0  0  0  0  0  0
  125.2667  108.0221  104.4348 H   0  0  0  0  0  0  0  0  0  0  0  0
  1  8  2  0  0  0  0
  1 10  1  0  0  0  0
  2  7  1  0  0  0  0
  2  8  1  0  0  0  0
  2  9  2  0  0  0  0
  3  7  1  0  0  0  0
  4 12  1  0  0  0  0
  5  6  1  0  0  0  0
  5 10  1  0  0  0  0
  6 12  1  0  0  0  0
  7 11  1  0  0  0  0
  9 10  1  0  0  0  0
  1 13  1  0  0  0  0
  3 14  1  0  0  0  0
  3 15  1  0  0  0  0
  3 16  1  0  0  0  0
  4 17  1  0  0  0  0
  4 18  1  0  0  0  0
  4 19  1  0  0  0  0
  5 20  1  0  0  0  0
  5 21  1  0  0  0  0
  6 22  1  0  0  0  0
  6 23  1  0  0  0  0
  7 24  1  0  0  0  0
 11 25  1  0  0  0  0
 11 26  1  0  0  0  0
M  END
> <FRED Chemgauss4 score>
-7.076482

$$$$
C70005397	P107943213
  -OEChem-05182014473D

 23 24  0     1  0  0  0  0  0999 V2000
  122.7764  106.8174  105.8997 C   0  0  0  0  0  0  0  0  0  0  0  0
  124.7224  107.1806  106.6048 C   0  0  0  0  0  0  0  0  0  0  0  0
  121.4721  104.6568  106.2627 C   0  0  0  0  0  0  0  0  0  0  0  0
  120.0736  104.1065  106.0326 C   0  0  0  0  0  0  0  0  0  0  0  0
  120.8056  106.1517  104.4459 C   0  0  0  0  0  0  0  0  0  0  0  0
  121.4295  106.1302  105.8428 C   0  0  2  0  0  0  0  0  0  0  0  0
  125.9065  106.9787  107.4492 C   0  0  0  0  0  0  0  0  0  0  0  0
  123.2406  107.8108  105.1783 N   0  0  0  0  0  0  0  0  0  0  0  0
  124.5208  108.0497  105.6421 N   0  0  0  0  0  0  0  0  0  0  0  0
  126.9915  106.3079  106.7600 N   0  0  0  0  0  0  0  0  0  0  0  0
  123.6595  106.3605  106.8293 O   0  0  0  0  0  0  0  0  0  0  0  0
  119.5128  104.8755  104.4882 S   0  0  0  0  0  0  0  0  0  0  0  0
  121.7690  104.5421  107.3114 H   0  0  0  0  0  0  0  0  0  0  0  0
  122.2038  104.0985  105.6625 H   0  0  0  0  0  0  0  0  0  0  0  0
  120.0715  103.0160  105.9531 H   0  0  0  0  0  0  0  0  0  0  0  0
  119.3968  104.4026  106.8401 H   0  0  0  0  0  0  0  0  0  0  0  0
  120.3778  107.1295  104.2050 H   0  0  0  0  0  0  0  0  0  0  0  0
  121.5284  105.8900  103.6649 H   0  0  0  0  0  0  0  0  0  0  0  0
  120.7561  106.6830  106.5446 H   0  0  0  0  0  0  0  0  0  0  0  0
  126.3198  107.9342  107.8271 H   0  0  0  0  0  0  0  0  0  0  0  0
  125.6892  106.3718  108.3496 H   0  0  0  0  0  0  0  0  0  0  0  0
  127.6426  105.7704  107.2994 H   0  0  0  0  0  0  0  0  0  0  0  0
  127.1831  106.5586  105.8090 H   0  0  0  0  0  0  0  0  0  0  0  0
  1  6  1  0  0  0  0
  1  8  2  0  0  0  0
  1 11  1  0  0  0  0
  2  7  1  0  0  0  0
  2  9  2  0  0  0  0
  2 11  1  0  0  0  0
  3  4  1  0  0  0  0
  3  6  1  0  0  0  0
  4 12  1  0  0  0  0
  5  6  1  0  0  0  0
  5 12  1  0  0  0  0
  7 10  1  0  0  0  0
  8  9  1  0  0  0  0
  3 13  1  0  0  0  0
  3 14  1  0  0  0  0
  4 15  1  0  0  0  0
  4 16  1  0  0  0  0
  5 17  1  0  0  0  0
  5 18  1  0  0  0  0
  6 19  1  0  0  0  0
  7 20  1  0  0  0  0
  7 21  1  0  0  0  0
 10 22  1  0  0  0  0
 10 23  1  0  0  0  0
M  END
> <FRED Chemgauss4 score>
-7.076268

$$$$
C40729842	P61849313
  -OEChem-05182014473D

 30 30  0     1  0  0  0  0  0999 V2000
  121.6199  105.1869  106.1332 C   0  0  0  0  0  0  0  0  0  0  0  0
  121.6949  105.9872  104.9774 C   0  0  0  0  0  0  0  0  0  0  0  0
  122.3899  105.8477  107.0589 C   0  0  0  0  0  0  0  0  0  0  0  0
  120.8830  103.9240  106.3128 C   0  0  0  0  0  0  0  0  0  0  0  0
  121.0533  105.7517  103.6720 C   0  0  0  0  0  0  0  0  0  0  0  0
  122.7155  105.5277  108.4616 C   0  0  0  0  0  0  0  0  0  0  0  0
  123.7324  107.9915  106.9913 C   0  0  0  0  0  0  0  0  0  0  0  0
  125.7968  106.4967  106.9178 C   0  0  0  0  0  0  0  0  0  0  0  0
  125.1859  107.8458  106.5236 C   0  0  1  0  0  0  0  0  0  0  0  0
  122.4526  107.0734  105.1506 N   0  0  0  0  0  0  0  0  0  0  0  0
  122.8606  106.9605  106.4261 N   0  0  0  0  0  0  0  0  0  0  0  0
  127.1647  106.3528  106.4380 N   0  0  0  0  0  0  0  0  0  0  0  0
  125.2075  107.9383  105.0972 O   0  0  0  0  0  0  0  0  0  0  0  0
  121.5095  103.0544  106.0507 H   0  0  0  0  0  0  0  0  0  0  0  0
  120.5407  103.7857  107.3537 H   0  0  0  0  0  0  0  0  0  0  0  0
  119.9737  103.8796  105.6873 H   0  0  0  0  0  0  0  0  0  0  0  0
  120.0528  106.2147  103.6290 H   0  0  0  0  0  0  0  0  0  0  0  0
  121.6466  106.1628  102.8362 H   0  0  0  0  0  0  0  0  0  0  0  0
  120.9318  104.6754  103.4560 H   0  0  0  0  0  0  0  0  0  0  0  0
  123.6299  104.9152  108.5283 H   0  0  0  0  0  0  0  0  0  0  0  0
  122.8765  106.4360  109.0676 H   0  0  0  0  0  0  0  0  0  0  0  0
  121.9027  104.9706  108.9592 H   0  0  0  0  0  0  0  0  0  0  0  0
  123.3195  108.9642  106.6969 H   0  0  0  0  0  0  0  0  0  0  0  0
  123.6433  107.9094  108.0806 H   0  0  0  0  0  0  0  0  0  0  0  0
  125.7830  106.3907  108.0091 H   0  0  0  0  0  0  0  0  0  0  0  0
  125.1816  105.6785  106.5255 H   0  0  0  0  0  0  0  0  0  0  0  0
  125.8003  108.6664  106.9139 H   0  0  0  0  0  0  0  0  0  0  0  0
  127.5204  105.4309  106.2936 H   0  0  0  0  0  0  0  0  0  0  0  0
  127.7613  107.1533  106.4641 H   0  0  0  0  0  0  0  0  0  0  0  0
  124.8473  108.8096  104.8757 H   0  0  0  0  0  0  0  0  0  0  0  0
  1  2  1  0  0  0  0
  1  3  2  0  0  0  0
  1  4  1  0  0  0  0
  2  5  1  0  0  0  0
  2 10  2  0  0  0  0
  3  6  1  0  0  0  0
  3 11  1  0  0  0  0
  7  9  1  0  0  0  0
  7 11  1  0  0  0  0
  8  9  1  0  0  0  0
  8 12  1  0  0  0  0
  9 13  1  0  0  0  0
 10 11  1  0  0  0  0
  4 14  1  0  0  0  0
  4 15  1  0  0  0  0
  4 16  1  0  0  0  0
  5 17  1  0  0  0  0
  5 18  1  0  0  0  0
  5 19  1  0  0  0  0
  6 20  1  0  0  0  0
  6 21  1  0  0  0  0
  6 22  1  0  0  0  0
  7 23  1  0  0  0  0
  7 24  1  0  0  0  0
  8 25  1  0  0  0  0
  8 26  1  0  0  0  0
  9 27  1  0  0  0  0
 12 28  1  0  0  0  0
 12 29  1  0  0  0  0
 13 30  1  0  0  0  0
M  END
> <FRED Chemgauss4 score>
-7.073186

$$$$
C26895734	P39655131
  -OEChem-05182014473D

 23 23  0     1  0  0  0  0  0999 V2000
  121.3319  104.5572  104.9694 C   0  0  0  0  0  0  0  0  0  0  0  0
  122.0587  104.5407  106.1546 C   0  0  0  0  0  0  0  0  0  0  0  0
  121.3790  105.7055  104.1956 C   0  0  0  0  0  0  0  0  0  0  0  0
  122.7816  106.7564  105.6810 C   0  0  0  0  0  0  0  0  0  0  0  0
  122.8001  105.6573  106.5245 C   0  0  0  0  0  0  0  0  0  0  0  0
  124.6685  104.5653  107.8796 C   0  0  0  0  0  0  0  0  0  0  0  0
  125.7820  104.8658  108.8776 C   0  0  0  0  0  0  0  0  0  0  0  0
  123.6026  105.6705  107.8086 C   0  0  2  0  0  0  0  0  0  0  0  0
  122.0877  106.8095  104.5220 N   0  0  0  0  0  0  0  0  0  0  0  0
  122.7201  105.5910  108.9529 N   0  0  0  0  0  0  0  0  0  0  0  0
  126.4137  106.0835  108.5035 O   0  0  0  0  0  0  0  0  0  0  0  0
  120.7471  103.6981  104.6610 H   0  0  0  0  0  0  0  0  0  0  0  0
  122.0418  103.6543  106.7830 H   0  0  0  0  0  0  0  0  0  0  0  0
  120.8291  105.7685  103.2623 H   0  0  0  0  0  0  0  0  0  0  0  0
  123.3409  107.6564  105.9172 H   0  0  0  0  0  0  0  0  0  0  0  0
  124.1921  103.6170  108.1648 H   0  0  0  0  0  0  0  0  0  0  0  0
  125.1070  104.3702  106.8920 H   0  0  0  0  0  0  0  0  0  0  0  0
  125.3891  104.9831  109.8919 H   0  0  0  0  0  0  0  0  0  0  0  0
  126.5335  104.0700  108.8745 H   0  0  0  0  0  0  0  0  0  0  0  0
  124.1099  106.6382  107.9112 H   0  0  0  0  0  0  0  0  0  0  0  0
  121.8238  106.0386  108.9025 H   0  0  0  0  0  0  0  0  0  0  0  0
  123.0936  105.2748  109.8287 H   0  0  0  0  0  0  0  0  0  0  0  0
  127.1145  106.2465  109.1551 H   0  0  0  0  0  0  0  0  0  0  0  0
  1  2  1  0  0  0  0
  1  3  2  0  0  0  0
  2  5  2  0  0  0  0
  3  9  1  0  0  0  0
  4  5  1  0  0  0  0
  4  9  2  0  0  0  0
  5  8  1  0  0  0  0
  6  7  1  0  0  0  0
  6  8  1  0  0  0  0
  7 11  1  0  0  0  0
  8 10  1  0  0  0  0
  1 12  1  0  0  0  0
  2 13  1  0  0  0  0
  3 14  1  0  0  0  0
  4 15  1  0  0  0  0
  6 16  1  0  0  0  0
  6 17  1  0  0  0  0
  7 18  1  0  0  0  0
  7 19  1  0  0  0  0
  8 20  1  0  0  0  0
 10 21  1  0  0  0  0
 10 22  1  0  0  0  0
 11 23  1  0  0  0  0
M  END
> <FRED Chemgauss4 score>
-7.072210

$$$$
C82900115	P129596089
  -OEChem-05182014473D

 32 32  0     1  0  0  0  0  0999 V2000
  119.2069  104.0396  106.3555 C   0  0  0  0  0  0  0  0  0  0  0  0
  119.4238  105.5165  106.1390 C   0  0  0  0  0  0  0  0  0  0  0  0
  118.6656  103.6051  105.0126 C   0  0  0  0  0  0  0  0  0  0  0  0
  119.8657  105.5817  104.6846 C   0  0  1  0  0  0  0  0  0  0  0  0
  121.3781  105.5229  104.5208 C   0  0  0  0  0  0  0  0  0  0  0  0
  123.9021  107.6368  106.1751 C   0  0  0  0  0  0  0  0  0  0  0  0
  123.3356  106.4043  105.4770 C   0  0  0  0  0  0  0  0  0  0  0  0
  125.6265  106.3032  107.4818 C   0  0  0  0  0  0  0  0  0  0  0  0
  125.3851  107.4832  106.5378 C   0  0  1  0  0  0  0  0  0  0  0  0
  126.1974  107.3391  105.3503 N   0  0  0  0  0  0  0  0  0  0  0  0
  119.2951  104.4358  104.0280 O   0  0  0  0  0  0  0  0  0  0  0  0
  124.9133  106.4804  108.6992 O   0  0  0  0  0  0  0  0  0  0  0  0
  121.9603  106.6293  105.1964 O   0  0  0  0  0  0  0  0  0  0  0  0
  120.1115  103.5000  106.6476 H   0  0  0  0  0  0  0  0  0  0  0  0
  118.4497  103.8855  107.1333 H   0  0  0  0  0  0  0  0  0  0  0  0
  118.5282  106.1209  106.3373 H   0  0  0  0  0  0  0  0  0  0  0  0
  120.2216  105.8734  106.8091 H   0  0  0  0  0  0  0  0  0  0  0  0
  118.9346  102.5671  104.7936 H   0  0  0  0  0  0  0  0  0  0  0  0
  117.5799  103.7083  104.9435 H   0  0  0  0  0  0  0  0  0  0  0  0
  119.4773  106.4707  104.1975 H   0  0  0  0  0  0  0  0  0  0  0  0
  121.6517  105.5725  103.4626 H   0  0  0  0  0  0  0  0  0  0  0  0
  121.7754  104.5986  104.9507 H   0  0  0  0  0  0  0  0  0  0  0  0
  123.2998  107.8448  107.0691 H   0  0  0  0  0  0  0  0  0  0  0  0
  123.7682  108.5044  105.5162 H   0  0  0  0  0  0  0  0  0  0  0  0
  123.4163  105.5160  106.1110 H   0  0  0  0  0  0  0  0  0  0  0  0
  123.8562  106.2175  104.5324 H   0  0  0  0  0  0  0  0  0  0  0  0
  126.6920  106.2210  107.7208 H   0  0  0  0  0  0  0  0  0  0  0  0
  125.2989  105.3636  107.0240 H   0  0  0  0  0  0  0  0  0  0  0  0
  125.7343  108.3961  107.0345 H   0  0  0  0  0  0  0  0  0  0  0  0
  127.1002  106.9079  105.4314 H   0  0  0  0  0  0  0  0  0  0  0  0
  125.9388  107.8462  104.5233 H   0  0  0  0  0  0  0  0  0  0  0  0
  125.1057  105.7054  109.2511 H   0  0  0  0  0  0  0  0  0  0  0  0
  1  2  1  0  0  0  0
  1  3  1  0  0  0  0
  2  4  1  0  0  0  0
  3 11  1  0  0  0  0
  4  5  1  0  0  0  0
  4 11  1  0  0  0  0
  5 13  1  0  0  0  0
  6  7  1  0  0  0  0
  6  9  1  0  0  0  0
  7 13  1  0  0  0  0
  8  9  1  0  0  0  0
  8 12  1  0  0  0  0
  9 10  1  0  0  0  0
  1 14  1  0  0  0  0
  1 15  1  0  0  0  0
  2 16  1  0  0  0  0
  2 17  1  0  0  0  0
  3 18  1  0  0  0  0
  3 19  1  0  0  0  0
  4 20  1  0  0  0  0
  5 21  1  0  0  0  0
  5 22  1  0  0  0  0
  6 23  1  0  0  0  0
  6 24  1  0  0  0  0
  7 25  1  0  0  0  0
  7 26  1  0  0  0  0
  8 27  1  0  0  0  0
  8 28  1  0  0  0  0
  9 29  1  0  0  0  0
 10 30  1  0  0  0  0
 10 31  1  0  0  0  0
 12 32  1  0  0  0  0
M  END
> <FRED Chemgauss4 score>
-7.070921

$$$$
C85302973	P133481584
  -OEChem-05182014473D

 41 42  0     1  0  0  0  0  0999 V2000
  125.0639  104.8639  107.4342 C   0  0  0  0  0  0  0  0  0  0  0  0
  126.2372  105.2691  106.5864 C   0  0  0  0  0  0  0  0  0  0  0  0
  121.7363  105.1701  106.4221 C   0  0  0  0  0  0  0  0  0  0  0  0
  120.5173  107.1896  105.8987 C   0  0  0  0  0  0  0  0  0  0  0  0
  121.1740  104.4773  105.1801 C   0  0  0  0  0  0  0  0  0  0  0  0
  119.9285  106.5408  104.6454 C   0  0  0  0  0  0  0  0  0  0  0  0
  124.8369  105.5463  106.1137 C   0  0  0  0  0  0  0  0  0  0  0  0
  120.0903  104.3155  102.3035 C   0  0  0  0  0  0  0  0  0  0  0  0
  122.9018  107.0622  105.4319 C   0  0  0  0  0  0  0  0  0  0  0  0
  124.3942  107.6762  107.4475 C   0  0  0  0  0  0  0  0  0  0  0  0
  124.3069  106.9858  106.0691 C   0  0  1  0  0  0  0  0  0  0  0  0
  121.8136  106.6321  106.3065 N   0  0  0  0  0  0  0  0  0  0  0  0
  119.8475  105.0653  104.8393 N   0  0  0  0  0  0  0  0  0  0  0  0
  123.9673  109.0689  107.4674 N   0  0  0  0  0  0  0  0  0  0  0  0
  117.7780  104.9946  103.3131 O   0  0  0  0  0  0  0  0  0  0  0  0
  118.8468  102.8287  104.0560 O   0  0  0  0  0  0  0  0  0  0  0  0
  125.1914  107.7299  105.2115 O   0  0  0  0  0  0  0  0  0  0  0  0
  118.9469  104.2151  103.6564 S   0  0  0  0  0  0  0  0  0  0  0  0
  124.8439  103.8066  107.5166 H   0  0  0  0  0  0  0  0  0  0  0  0
  124.8724  105.4335  108.3352 H   0  0  0  0  0  0  0  0  0  0  0  0
  126.8326  106.1103  106.9193 H   0  0  0  0  0  0  0  0  0  0  0  0
  126.8026  104.4832  106.1010 H   0  0  0  0  0  0  0  0  0  0  0  0
  121.1261  104.8865  107.3076 H   0  0  0  0  0  0  0  0  0  0  0  0
  122.7489  104.7584  106.6136 H   0  0  0  0  0  0  0  0  0  0  0  0
  120.6262  108.2763  105.7024 H   0  0  0  0  0  0  0  0  0  0  0  0
  119.7842  107.1083  106.7312 H   0  0  0  0  0  0  0  0  0  0  0  0
  121.8575  104.5882  104.3299 H   0  0  0  0  0  0  0  0  0  0  0  0
  121.0541  103.4091  105.3914 H   0  0  0  0  0  0  0  0  0  0  0  0
  118.9225  106.9404  104.4764 H   0  0  0  0  0  0  0  0  0  0  0  0
  120.5434  106.7656  103.7658 H   0  0  0  0  0  0  0  0  0  0  0  0
  124.4540  104.9465  105.2969 H   0  0  0  0  0  0  0  0  0  0  0  0
  119.6527  103.8048  101.4443 H   0  0  0  0  0  0  0  0  0  0  0  0
  120.2625  105.3684  102.0756 H   0  0  0  0  0  0  0  0  0  0  0  0
  121.0211  103.8315  102.6028 H   0  0  0  0  0  0  0  0  0  0  0  0
  122.7105  108.0882  105.0932 H   0  0  0  0  0  0  0  0  0  0  0  0
  122.8795  106.4463  104.5243 H   0  0  0  0  0  0  0  0  0  0  0  0
  123.7973  107.1126  108.1760 H   0  0  0  0  0  0  0  0  0  0  0  0
  125.4272  107.6196  107.8133 H   0  0  0  0  0  0  0  0  0  0  0  0
  124.3515  109.6712  108.1651 H   0  0  0  0  0  0  0  0  0  0  0  0
  123.1673  109.3256  106.9274 H   0  0  0  0  0  0  0  0  0  0  0  0
  124.8439  108.6310  105.1949 H   0  0  0  0  0  0  0  0  0  0  0  0
  1  2  1  0  0  0  0
  1  7  1  0  0  0  0
  2  7  1  0  0  0  0
  3  5  1  0  0  0  0
  3 12  1  0  0  0  0
  4  6  1  0  0  0  0
  4 12  1  0  0  0  0
  5 13  1  0  0  0  0
  6 13  1  0  0  0  0
  7 11  1  0  0  0  0
  8 18  1  0  0  0  0
  9 11  1  0  0  0  0
  9 12  1  0  0  0  0
 10 11  1  0  0  0  0
 10 14  1  0  0  0  0
 11 17  1  0  0  0  0
 13 18  1  0  0  0  0
 15 18  2  0  0  0  0
 16 18  2  0  0  0  0
  1 19  1  0  0  0  0
  1 20  1  0  0  0  0
  2 21  1  0  0  0  0
  2 22  1  0  0  0  0
  3 23  1  0  0  0  0
  3 24  1  0  0  0  0
  4 25  1  0  0  0  0
  4 26  1  0  0  0  0
  5 27  1  0  0  0  0
  5 28  1  0  0  0  0
  6 29  1  0  0  0  0
  6 30  1  0  0  0  0
  7 31  1  0  0  0  0
  8 32  1  0  0  0  0
  8 33  1  0  0  0  0
  8 34  1  0  0  0  0
  9 35  1  0  0  0  0
  9 36  1  0  0  0  0
 10 37  1  0  0  0  0
 10 38  1  0  0  0  0
 14 39  1  0  0  0  0
 14 40  1  0  0  0  0
 17 41  1  0  0  0  0
M  END
> <FRED Chemgauss4 score>
-7.069748

$$$$
C87666364	P137137159
  -OEChem-05182014473D

 29 30  0     1  0  0  0  0  0999 V2000
  118.4431  104.6792  103.3843 C   0  0  0  0  0  0  0  0  0  0  0  0
  119.4209  104.8737  104.2776 C   0  0  0  0  0  0  0  0  0  0  0  0
  120.3073  105.2828  102.2155 C   0  0  0  0  0  0  0  0  0  0  0  0
  118.7578  104.2906   99.6516 C   0  0  0  0  0  0  0  0  0  0  0  0
  118.3600  105.7332   99.7713 C   0  0  0  0  0  0  0  0  0  0  0  0
  118.1556  104.7994  100.9328 C   0  0  0  0  0  0  0  0  0  0  0  0
  121.8267  105.5327  104.2570 C   0  0  0  0  0  0  0  0  0  0  0  0
  123.0517  106.9552  105.9800 C   0  0  0  0  0  0  0  0  0  0  0  0
  121.7209  106.6561  105.2894 C   0  0  1  0  0  0  0  0  0  0  0  0
  118.9341  104.9160  102.1202 N   0  0  0  0  0  0  0  0  0  0  0  0
  120.5702  105.2410  103.6149 N   0  0  0  0  0  0  0  0  0  0  0  0
  124.0391  107.3516  105.0002 N   0  0  0  0  0  0  0  0  0  0  0  0
  121.0768  105.5663  101.3099 O   0  0  0  0  0  0  0  0  0  0  0  0
  121.2573  107.8448  104.6490 O   0  0  0  0  0  0  0  0  0  0  0  0
  117.4195  104.3860  103.5527 H   0  0  0  0  0  0  0  0  0  0  0  0
  119.3893  104.7782  105.3506 H   0  0  0  0  0  0  0  0  0  0  0  0
  118.1559  103.6534   99.0152 H   0  0  0  0  0  0  0  0  0  0  0  0
  119.8154  104.0566   99.6494 H   0  0  0  0  0  0  0  0  0  0  0  0
  119.1501  106.4698   99.8501 H   0  0  0  0  0  0  0  0  0  0  0  0
  117.4914  106.0629   99.2146 H   0  0  0  0  0  0  0  0  0  0  0  0
  117.1336  104.5030  101.1424 H   0  0  0  0  0  0  0  0  0  0  0  0
  122.5436  105.7917  103.4716 H   0  0  0  0  0  0  0  0  0  0  0  0
  122.1544  104.6034  104.7339 H   0  0  0  0  0  0  0  0  0  0  0  0
  123.4292  106.0734  106.5081 H   0  0  0  0  0  0  0  0  0  0  0  0
  122.9337  107.7688  106.7030 H   0  0  0  0  0  0  0  0  0  0  0  0
  120.9689  106.3766  106.0375 H   0  0  0  0  0  0  0  0  0  0  0  0
  124.0490  106.8886  104.1098 H   0  0  0  0  0  0  0  0  0  0  0  0
  124.8093  107.9237  105.2949 H   0  0  0  0  0  0  0  0  0  0  0  0
  120.3887  107.6333  104.2748 H   0  0  0  0  0  0  0  0  0  0  0  0
  1  2  2  0  0  0  0
  1 10  1  0  0  0  0
  2 11  1  0  0  0  0
  3 10  1  0  0  0  0
  3 11  1  0  0  0  0
  3 13  2  0  0  0  0
  4  5  1  0  0  0  0
  4  6  1  0  0  0  0
  5  6  1  0  0  0  0
  6 10  1  0  0  0  0
  7  9  1  0  0  0  0
  7 11  1  0  0  0  0
  8  9  1  0  0  0  0
  8 12  1  0  0  0  0
  9 14  1  0  0  0  0
  1 15  1  0  0  0  0
  2 16  1  0  0  0  0
  4 17  1  0  0  0  0
  4 18  1  0  0  0  0
  5 19  1  0  0  0  0
  5 20  1  0  0  0  0
  6 21  1  0  0  0  0
  7 22  1  0  0  0  0
  7 23  1  0  0  0  0
  8 24  1  0  0  0  0
  8 25  1  0  0  0  0
  9 26  1  0  0  0  0
 12 27  1  0  0  0  0
 12 28  1  0  0  0  0
 14 29  1  0  0  0  0
M  END
> <FRED Chemgauss4 score>
-7.069690

$$$$
C86433852	P135331542
  -OEChem-05182014473D

 27 28  0     0  0  0  0  0  0999 V2000
  124.7562  106.8021  106.3185 C   0  0  0  0  0  0  0  0  0  0  0  0
  122.6970  107.0720  105.6646 C   0  0  0  0  0  0  0  0  0  0  0  0
  125.7230  105.9740  107.0551 C   0  0  0  0  0  0  0  0  0  0  0  0
  124.7763  105.0192  107.8350 C   0  0  0  0  0  0  0  0  0  0  0  0
  123.4361  105.0146  107.0691 C   0  0  0  0  0  0  0  0  0  0  0  0
  121.2613  106.8177  105.4761 C   0  0  0  0  0  0  0  0  0  0  0  0
  120.9528  105.4016  102.0861 C   0  0  0  0  0  0  0  0  0  0  0  0
  121.2881  105.4496  103.5655 C   0  0  0  0  0  0  0  0  0  0  0  0
  124.7335  107.9248  105.6492 N   0  0  0  0  0  0  0  0  0  0  0  0
  123.4099  108.0979  105.2284 N   0  0  0  0  0  0  0  0  0  0  0  0
  123.5157  106.2551  106.3358 N   0  0  0  0  0  0  0  0  0  0  0  0
  121.3333  104.0817  101.5331 N   0  0  0  0  0  0  0  0  0  0  0  0
  120.9548  106.7273  104.0828 O   0  0  0  0  0  0  0  0  0  0  0  0
  126.3552  105.4101  106.3622 H   0  0  0  0  0  0  0  0  0  0  0  0
  126.3528  106.5547  107.7336 H   0  0  0  0  0  0  0  0  0  0  0  0
  125.1970  104.0156  107.9505 H   0  0  0  0  0  0  0  0  0  0  0  0
  124.6123  105.4230  108.8429 H   0  0  0  0  0  0  0  0  0  0  0  0
  123.3762  104.1980  106.3443 H   0  0  0  0  0  0  0  0  0  0  0  0
  122.5673  105.0269  107.7310 H   0  0  0  0  0  0  0  0  0  0  0  0
  120.9333  105.8751  105.9540 H   0  0  0  0  0  0  0  0  0  0  0  0
  120.6343  107.6201  105.9088 H   0  0  0  0  0  0  0  0  0  0  0  0
  119.8813  105.5482  101.9170 H   0  0  0  0  0  0  0  0  0  0  0  0
  121.5097  106.1719  101.5441 H   0  0  0  0  0  0  0  0  0  0  0  0
  122.3618  105.2956  103.7116 H   0  0  0  0  0  0  0  0  0  0  0  0
  120.7384  104.6878  104.1278 H   0  0  0  0  0  0  0  0  0  0  0  0
  121.5241  104.0389  100.5652 H   0  0  0  0  0  0  0  0  0  0  0  0
  121.1787  103.2933  102.1074 H   0  0  0  0  0  0  0  0  0  0  0  0
  1  3  1  0  0  0  0
  1  9  2  0  0  0  0
  1 11  1  0  0  0  0
  2  6  1  0  0  0  0
  2 10  2  0  0  0  0
  2 11  1  0  0  0  0
  3  4  1  0  0  0  0
  4  5  1  0  0  0  0
  5 11  1  0  0  0  0
  6 13  1  0  0  0  0
  7  8  1  0  0  0  0
  7 12  1  0  0  0  0
  8 13  1  0  0  0  0
  9 10  1  0  0  0  0
  3 14  1  0  0  0  0
  3 15  1  0  0  0  0
  4 16  1  0  0  0  0
  4 17  1  0  0  0  0
  5 18  1  0  0  0  0
  5 19  1  0  0  0  0
  6 20  1  0  0  0  0
  6 21  1  0  0  0  0
  7 22  1  0  0  0  0
  7 23  1  0  0  0  0
  8 24  1  0  0  0  0
  8 25  1  0  0  0  0
 12 26  1  0  0  0  0
 12 27  1  0  0  0  0
M  END
> <FRED Chemgauss4 score>
-7.068757

$$$$
C85227045	P133358857
  -OEChem-05182014473D

 25 26  0     1  0  0  0  0  0999 V2000
  120.9734  105.7322  104.4245 C   0  0  0  0  0  0  0  0  0  0  0  0
  120.9246  104.4959  106.4869 C   0  0  0  0  0  0  0  0  0  0  0  0
  119.7391  105.1781  104.1258 C   0  0  0  0  0  0  0  0  0  0  0  0
  119.6924  103.9973  106.0960 C   0  0  0  0  0  0  0  0  0  0  0  0
  121.5707  105.3794  105.6295 C   0  0  0  0  0  0  0  0  0  0  0  0
  122.8495  105.9251  105.9869 C   0  0  0  0  0  0  0  0  0  0  0  0
  124.6773  106.1362  106.9326 C   0  0  0  0  0  0  0  0  0  0  0  0
  125.6530  106.1777  109.2544 C   0  0  0  0  0  0  0  0  0  0  0  0
  125.9072  106.0640  107.7326 C   0  0  2  0  0  0  0  0  0  0  0  0
  119.0808  104.3167  104.9334 N   0  0  0  0  0  0  0  0  0  0  0  0
  123.6455  105.3307  106.9224 N   0  0  0  0  0  0  0  0  0  0  0  0
  123.3374  107.0386  105.4320 N   0  0  0  0  0  0  0  0  0  0  0  0
  126.8907  106.1061  109.9979 N   0  0  0  0  0  0  0  0  0  0  0  0
  124.5750  107.1826  106.0717 O   0  0  0  0  0  0  0  0  0  0  0  0
  126.8093  107.1208  107.3473 O   0  0  0  0  0  0  0  0  0  0  0  0
  121.4465  106.4186  103.7296 H   0  0  0  0  0  0  0  0  0  0  0  0
  121.3588  104.1968  107.4355 H   0  0  0  0  0  0  0  0  0  0  0  0
  119.2307  105.4211  103.1985 H   0  0  0  0  0  0  0  0  0  0  0  0
  119.1472  103.3051  106.7292 H   0  0  0  0  0  0  0  0  0  0  0  0
  125.0004  105.3625  109.5853 H   0  0  0  0  0  0  0  0  0  0  0  0
  125.1593  107.1258  109.4942 H   0  0  0  0  0  0  0  0  0  0  0  0
  126.4684  105.1230  107.5418 H   0  0  0  0  0  0  0  0  0  0  0  0
  127.6087  105.4791  109.6829 H   0  0  0  0  0  0  0  0  0  0  0  0
  126.9308  106.5206  110.9115 H   0  0  0  0  0  0  0  0  0  0  0  0
  126.9941  106.9758  106.4111 H   0  0  0  0  0  0  0  0  0  0  0  0
  1  3  1  0  0  0  0
  1  5  2  0  0  0  0
  2  4  2  0  0  0  0
  2  5  1  0  0  0  0
  3 10  2  0  0  0  0
  4 10  1  0  0  0  0
  5  6  1  0  0  0  0
  6 11  1  0  0  0  0
  6 12  2  0  0  0  0
  7  9  1  0  0  0  0
  7 11  2  0  0  0  0
  7 14  1  0  0  0  0
  8  9  1  0  0  0  0
  8 13  1  0  0  0  0
  9 15  1  0  0  0  0
 12 14  1  0  0  0  0
  1 16  1  0  0  0  0
  2 17  1  0  0  0  0
  3 18  1  0  0  0  0
  4 19  1  0  0  0  0
  8 20  1  0  0  0  0
  8 21  1  0  0  0  0
  9 22  1  0  0  0  0
 13 23  1  0  0  0  0
 13 24  1  0  0  0  0
 15 25  1  0  0  0  0
M  END
> <FRED Chemgauss4 score>
-7.065273

$$$$
C04097150	P05160868
  -OEChem-05182014473D

 24 24  0     1  0  0  0  0  0999 V2000
  124.2715  108.0591  107.2230 C   0  0  2  0  0  0  0  0  0  0  0  0
  123.7917  107.1756  108.3771 C   0  0  1  0  0  0  0  0  0  0  0  0
  124.7058  107.2005  106.0377 C   0  0  1  0  0  0  0  0  0  0  0  0
  122.7444  106.1519  107.9228 C   0  0  1  0  0  0  0  0  0  0  0  0
  123.5965  106.2259  105.6382 C   0  0  1  0  0  0  0  0  0  0  0  0
  121.3557  106.7588  107.7424 C   0  0  0  0  0  0  0  0  0  0  0  0
  123.1709  105.4383  106.7521 O   0  0  0  0  0  0  0  0  0  0  0  0
  125.3710  108.8612  107.6485 O   0  0  0  0  0  0  0  0  0  0  0  0
  124.9056  106.4608  108.9267 O   0  0  0  0  0  0  0  0  0  0  0  0
  125.0333  108.0249  104.9232 O   0  0  0  0  0  0  0  0  0  0  0  0
  122.5201  106.9282  105.0222 O   0  0  0  0  0  0  0  0  0  0  0  0
  120.9312  107.2901  108.9843 O   0  0  0  0  0  0  0  0  0  0  0  0
  123.4568  108.7484  106.9349 H   0  0  0  0  0  0  0  0  0  0  0  0
  123.3770  107.8006  109.1582 H   0  0  0  0  0  0  0  0  0  0  0  0
  125.6148  106.6198  106.2895 H   0  0  0  0  0  0  0  0  0  0  0  0
  122.6312  105.3795  108.7597 H   0  0  0  0  0  0  0  0  0  0  0  0
  123.9976  105.5204  104.8598 H   0  0  0  0  0  0  0  0  0  0  0  0
  120.6529  105.9904  107.4201 H   0  0  0  0  0  0  0  0  0  0  0  0
  121.3920  107.5580  107.0020 H   0  0  0  0  0  0  0  0  0  0  0  0
  125.0458  109.4023  108.3834 H   0  0  0  0  0  0  0  0  0  0  0  0
  124.5578  105.9165  109.6510 H   0  0  0  0  0  0  0  0  0  0  0  0
  125.2989  107.4262  104.2093 H   0  0  0  0  0  0  0  0  0  0  0  0
  121.8518  106.2639  104.7922 H   0  0  0  0  0  0  0  0  0  0  0  0
  120.0469  107.6700  108.8450 H   0  0  0  0  0  0  0  0  0  0  0  0
  1  2  1  0  0  0  0
  1  3  1  0  0  0  0
  1  8  1  0  0  0  0
  2  4  1  0  0  0  0
  2  9  1  0  0  0  0
  3  5  1  0  0  0  0
  3 10  1  0  0  0  0
  4  6  1  0  0  0  0
  4  7  1  0  0  0  0
  5  7  1  0  0  0  0
  5 11  1  0  0  0  0
  6 12  1  0  0  0  0
  1 13  1  0  0  0  0
  2 14  1  0  0  0  0
  3 15  1  0  0  0  0
  4 16  1  0  0  0  0
  5 17  1  0  0  0  0
  6 18  1  0  0  0  0
  6 19  1  0  0  0  0
  8 20  1  0  0  0  0
  9 21  1  0  0  0  0
 10 22  1  0  0  0  0
 11 23  1  0  0  0  0
 12 24  1  0  0  0  0
M  END
> <FRED Chemgauss4 score>
-7.061852

$$$$
C01081240	P08266848
  -OEChem-05182014473D

 27 27  0     1  0  0  0  0  0999 V2000
  123.3415  106.1044  105.7504 C   0  0  2  0  0  0  0  0  0  0  0  0
  123.0462  105.4175  107.0835 C   0  0  1  0  0  0  0  0  0  0  0  0
  124.4235  107.1640  105.9579 C   0  0  2  0  0  0  0  0  0  0  0  0
  122.7647  106.4144  108.2194 C   0  0  2  0  0  0  0  0  0  0  0  0
  124.0552  108.1194  107.0962 C   0  0  1  0  0  0  0  0  0  0  0  0
  121.3100  105.7887  104.6043 C   0  0  0  0  0  0  0  0  0  0  0  0
  121.3854  107.0723  108.2053 C   0  0  0  0  0  0  0  0  0  0  0  0
  123.8030  107.3959  108.3016 O   0  0  0  0  0  0  0  0  0  0  0  0
  121.9803  104.4919  106.9234 O   0  0  0  0  0  0  0  0  0  0  0  0
  124.6158  107.9073  104.7582 O   0  0  0  0  0  0  0  0  0  0  0  0
  125.1617  109.0009  107.2966 O   0  0  0  0  0  0  0  0  0  0  0  0
  121.2899  107.9454  109.3164 O   0  0  0  0  0  0  0  0  0  0  0  0
  122.1641  106.7292  105.2399 O   0  0  0  0  0  0  0  0  0  0  0  0
  123.6786  105.3776  105.0366 H   0  0  0  0  0  0  0  0  0  0  0  0
  123.9406  104.7817  107.3536 H   0  0  0  0  0  0  0  0  0  0  0  0
  125.3818  106.6565  106.1730 H   0  0  0  0  0  0  0  0  0  0  0  0
  122.8209  105.8202  109.1963 H   0  0  0  0  0  0  0  0  0  0  0  0
  123.1911  108.6913  106.8566 H   0  0  0  0  0  0  0  0  0  0  0  0
  120.4211  106.2999  104.2265 H   0  0  0  0  0  0  0  0  0  0  0  0
  121.0217  105.0150  105.3203 H   0  0  0  0  0  0  0  0  0  0  0  0
  121.8455  105.3292  103.7702 H   0  0  0  0  0  0  0  0  0  0  0  0
  120.6081  106.3111  108.2783 H   0  0  0  0  0  0  0  0  0  0  0  0
  121.2539  107.6442  107.2862 H   0  0  0  0  0  0  0  0  0  0  0  0
  121.8351  104.0875  107.7923 H   0  0  0  0  0  0  0  0  0  0  0  0
  124.8866  107.2695  104.0803 H   0  0  0  0  0  0  0  0  0  0  0  0
  124.9128  109.5982  108.0192 H   0  0  0  0  0  0  0  0  0  0  0  0
  120.4066  108.3505  109.2856 H   0  0  0  0  0  0  0  0  0  0  0  0
  1  2  1  0  0  0  0
  1  3  1  0  0  0  0
  1 13  1  0  0  0  0
  2  4  1  0  0  0  0
  2  9  1  0  0  0  0
  3  5  1  0  0  0  0
  3 10  1  0  0  0  0
  4  7  1  0  0  0  0
  4  8  1  0  0  0  0
  5  8  1  0  0  0  0
  5 11  1  0  0  0  0
  6 13  1  0  0  0  0
  7 12  1  0  0  0  0
  1 14  1  0  0  0  0
  2 15  1  0  0  0  0
  3 16  1  0  0  0  0
  4 17  1  0  0  0  0
  5 18  1  0  0  0  0
  6 19  1  0  0  0  0
  6 20  1  0  0  0  0
  6 21  1  0  0  0  0
  7 22  1  0  0  0  0
  7 23  1  0  0  0  0
  9 24  1  0  0  0  0
 10 25  1  0  0  0  0
 11 26  1  0  0  0  0
 12 27  1  0  0  0  0
M  END
> <FRED Chemgauss4 score>
-7.057774

$$$$
C80627122	P125899765
  -OEChem-05182014473D

 22 22  0     0  0  0  0  0  0999 V2000
  127.1152  105.9810  108.4924 C   0  0  0  0  0  0  0  0  0  0  0  0
  125.5543  105.4054  107.2318 C   0  0  0  0  0  0  0  0  0  0  0  0
  122.9931  107.0190  105.8614 C   0  0  0  0  0  0  0  0  0  0  0  0
  120.5326  106.4564  105.5460 C   0  0  0  0  0  0  0  0  0  0  0  0
  124.6388  105.1620  106.0670 C   0  0  0  0  0  0  0  0  0  0  0  0
  121.5533  107.3580  106.2000 C   0  0  0  0  0  0  0  0  0  0  0  0
  126.7008  106.0436  107.1928 N   0  0  0  0  0  0  0  0  0  0  0  0
  125.3068  104.9861  108.5017 N   0  0  0  0  0  0  0  0  0  0  0  0
  126.2972  105.3442  109.3331 N   0  0  0  0  0  0  0  0  0  0  0  0
  119.7237  105.7684  106.4104 N   0  0  0  0  0  0  0  0  0  0  0  0
  123.3313  105.7401  106.2768 N   0  0  0  0  0  0  0  0  0  0  0  0
  123.7428  107.7983  105.2790 O   0  0  0  0  0  0  0  0  0  0  0  0
  120.4114  106.2915  103.8872 S   0  0  0  0  0  0  0  0  0  0  0  0
  128.0481  106.4196  108.8217 H   0  0  0  0  0  0  0  0  0  0  0  0
  125.0559  105.5947  105.1511 H   0  0  0  0  0  0  0  0  0  0  0  0
  124.5061  104.0897  105.8889 H   0  0  0  0  0  0  0  0  0  0  0  0
  121.4493  107.2884  107.2902 H   0  0  0  0  0  0  0  0  0  0  0  0
  121.3600  108.4003  105.9174 H   0  0  0  0  0  0  0  0  0  0  0  0
  126.2964  105.1223  110.3249 H   0  0  0  0  0  0  0  0  0  0  0  0
  119.8216  105.8746  107.4147 H   0  0  0  0  0  0  0  0  0  0  0  0
  119.0002  105.1336  106.0885 H   0  0  0  0  0  0  0  0  0  0  0  0
  122.6435  105.1802  106.7722 H   0  0  0  0  0  0  0  0  0  0  0  0
  1  7  2  0  0  0  0
  1  9  1  0  0  0  0
  2  5  1  0  0  0  0
  2  7  1  0  0  0  0
  2  8  2  0  0  0  0
  3  6  1  0  0  0  0
  3 11  1  0  0  0  0
  3 12  2  0  0  0  0
  4  6  1  0  0  0  0
  4 10  1  0  0  0  0
  4 13  2  0  0  0  0
  5 11  1  0  0  0  0
  8  9  1  0  0  0  0
  1 14  1  0  0  0  0
  5 15  1  0  0  0  0
  5 16  1  0  0  0  0
  6 17  1  0  0  0  0
  6 18  1  0  0  0  0
  9 19  1  0  0  0  0
 10 20  1  0  0  0  0
 10 21  1  0  0  0  0
 11 22  1  0  0  0  0
M  END
> <FRED Chemgauss4 score>
-7.057573

$$$$
C88037184	P137697140
  -OEChem-05182014473D

 25 26  0     1  0  0  0  0  0999 V2000
  121.0535  104.2026  106.1834 C   0  0  0  0  0  0  0  0  0  0  0  0
  119.8795  104.2130  105.4298 C   0  0  0  0  0  0  0  0  0  0  0  0
  121.9955  105.2043  105.9161 C   0  0  0  0  0  0  0  0  0  0  0  0
  119.7056  105.2014  104.4662 C   0  0  0  0  0  0  0  0  0  0  0  0
  121.6933  106.1288  104.9258 C   0  0  0  0  0  0  0  0  0  0  0  0
  123.6619  106.5335  105.8248 C   0  0  0  0  0  0  0  0  0  0  0  0
  118.4410  105.1972  103.6677 C   0  0  0  0  0  0  0  0  0  0  0  0
  126.0830  106.3058  106.5285 C   0  0  0  0  0  0  0  0  0  0  0  0
  124.9456  107.2266  106.0405 C   0  0  1  0  0  0  0  0  0  0  0  0
  123.2257  105.4702  106.4665 N   0  0  0  0  0  0  0  0  0  0  0  0
  120.5845  106.1897  104.1701 N   0  0  0  0  0  0  0  0  0  0  0  0
  122.7694  106.9694  104.8824 N   0  0  0  0  0  0  0  0  0  0  0  0
  125.4205  107.9326  104.8546 N   0  0  0  0  0  0  0  0  0  0  0  0
  121.2240  103.4483  106.9435 H   0  0  0  0  0  0  0  0  0  0  0  0
  119.1204  103.4563  105.6016 H   0  0  0  0  0  0  0  0  0  0  0  0
  117.6766  105.8019  104.1676 H   0  0  0  0  0  0  0  0  0  0  0  0
  118.6078  105.6024  102.6628 H   0  0  0  0  0  0  0  0  0  0  0  0
  118.0569  104.1779  103.5431 H   0  0  0  0  0  0  0  0  0  0  0  0
  126.2424  105.4876  105.8176 H   0  0  0  0  0  0  0  0  0  0  0  0
  127.0284  106.8489  106.6383 H   0  0  0  0  0  0  0  0  0  0  0  0
  125.8499  105.8650  107.5043 H   0  0  0  0  0  0  0  0  0  0  0  0
  124.8438  108.0244  106.8058 H   0  0  0  0  0  0  0  0  0  0  0  0
  122.8828  107.7643  104.2674 H   0  0  0  0  0  0  0  0  0  0  0  0
  126.3980  108.1136  104.7755 H   0  0  0  0  0  0  0  0  0  0  0  0
  124.7457  108.3833  104.2746 H   0  0  0  0  0  0  0  0  0  0  0  0
  1  2  2  0  0  0  0
  1  3  1  0  0  0  0
  2  4  1  0  0  0  0
  3  5  2  0  0  0  0
  3 10  1  0  0  0  0
  4  7  1  0  0  0  0
  4 11  2  0  0  0  0
  5 11  1  0  0  0  0
  5 12  1  0  0  0  0
  6  9  1  0  0  0  0
  6 10  2  0  0  0  0
  6 12  1  0  0  0  0
  8  9  1  0  0  0  0
  9 13  1  0  0  0  0
  1 14  1  0  0  0  0
  2 15  1  0  0  0  0
  7 16  1  0  0  0  0
  7 17  1  0  0  0  0
  7 18  1  0  0  0  0
  8 19  1  0  0  0  0
  8 20  1  0  0  0  0
  8 21  1  0  0  0  0
  9 22  1  0  0  0  0
 12 23  1  0  0  0  0
 13 24  1  0  0  0  0
 13 25  1  0  0  0  0
M  END
> <FRED Chemgauss4 score>
-7.049406

$$$$
C85963592	P134595762
  -OEChem-05182014473D

 39 40  0     1  0  0  0  0  0999 V2000
  126.1786  105.8003  108.2172 C   0  0  0  0  0  0  0  0  0  0  0  0
  124.7714  104.0228  107.3818 C   0  0  0  0  0  0  0  0  0  0  0  0
  125.3888  106.7381  107.5522 C   0  0  0  0  0  0  0  0  0  0  0  0
  124.2903  106.3183  106.8020 C   0  0  0  0  0  0  0  0  0  0  0  0
  125.8700  104.4426  108.1320 C   0  0  0  0  0  0  0  0  0  0  0  0
  123.9816  104.9607  106.7168 C   0  0  0  0  0  0  0  0  0  0  0  0
  118.6162  109.0519  109.9065 C   0  0  0  0  0  0  0  0  0  0  0  0
  117.6856  108.5874  108.7906 C   0  0  0  0  0  0  0  0  0  0  0  0
  119.9917  108.3954  109.8094 C   0  0  0  0  0  0  0  0  0  0  0  0
  118.3116  108.7969  107.4119 C   0  0  0  0  0  0  0  0  0  0  0  0
  120.6262  108.6148  108.4268 C   0  0  2  0  0  0  0  0  0  0  0  0
  119.6897  108.1394  107.3013 C   0  0  1  0  0  0  0  0  0  0  0  0
  121.9899  107.9251  108.3572 C   0  0  0  0  0  0  0  0  0  0  0  0
  125.7264  108.1062  107.6562 N   0  0  0  0  0  0  0  0  0  0  0  0
  122.7571  108.4847  107.2969 N   0  0  0  0  0  0  0  0  0  0  0  0
  124.1792  108.3318  105.1456 O   0  0  0  0  0  0  0  0  0  0  0  0
  122.1879  106.8120  105.3669 O   0  0  0  0  0  0  0  0  0  0  0  0
  119.5417  106.7216  107.3607 O   0  0  0  0  0  0  0  0  0  0  0  0
  123.3005  107.5223  105.9680 S   0  0  0  0  0  0  0  0  0  0  0  0
  126.8443  103.2854  108.9528 Cl  0  0  0  0  0  0  0  0  0  0  0  0
  122.6341  104.3818  105.8025 Cl  0  0  0  0  0  0  0  0  0  0  0  0
  127.0351  106.1295  108.8018 H   0  0  0  0  0  0  0  0  0  0  0  0
  124.5337  102.9630  107.3173 H   0  0  0  0  0  0  0  0  0  0  0  0
  118.7292  110.1418  109.8555 H   0  0  0  0  0  0  0  0  0  0  0  0
  118.1680  108.8239  110.8802 H   0  0  0  0  0  0  0  0  0  0  0  0
  117.4467  107.5264  108.9319 H   0  0  0  0  0  0  0  0  0  0  0  0
  116.7386  109.1357  108.8503 H   0  0  0  0  0  0  0  0  0  0  0  0
  120.6429  108.8092  110.5890 H   0  0  0  0  0  0  0  0  0  0  0  0
  119.8962  107.3218  110.0155 H   0  0  0  0  0  0  0  0  0  0  0  0
  117.6369  108.3796  106.6549 H   0  0  0  0  0  0  0  0  0  0  0  0
  118.4024  109.8720  107.2150 H   0  0  0  0  0  0  0  0  0  0  0  0
  120.7919  109.6888  108.2930 H   0  0  0  0  0  0  0  0  0  0  0  0
  120.1279  108.3830  106.3263 H   0  0  0  0  0  0  0  0  0  0  0  0
  121.8343  106.8712  108.1721 H   0  0  0  0  0  0  0  0  0  0  0  0
  122.5066  108.0770  109.2944 H   0  0  0  0  0  0  0  0  0  0  0  0
  126.4914  108.3742  108.2396 H   0  0  0  0  0  0  0  0  0  0  0  0
  125.1375  108.7856  107.2214 H   0  0  0  0  0  0  0  0  0  0  0  0
  122.6604  109.5102  107.1008 H   0  0  0  0  0  0  0  0  0  0  0  0
  118.9765  106.4726  106.6136 H   0  0  0  0  0  0  0  0  0  0  0  0
  1  3  2  0  0  0  0
  1  5  1  0  0  0  0
  2  5  2  0  0  0  0
  2  6  1  0  0  0  0
  3  4  1  0  0  0  0
  3 14  1  0  0  0  0
  4  6  2  0  0  0  0
  4 19  1  0  0  0  0
  5 20  1  0  0  0  0
  6 21  1  0  0  0  0
  7  8  1  0  0  0  0
  7  9  1  0  0  0  0
  8 10  1  0  0  0  0
  9 11  1  0  0  0  0
 10 12  1  0  0  0  0
 11 12  1  0  0  0  0
 11 13  1  0  0  0  0
 12 18  1  0  0  0  0
 13 15  1  0  0  0  0
 15 19  1  0  0  0  0
 16 19  2  0  0  0  0
 17 19  2  0  0  0  0
  1 22  1  0  0  0  0
  2 23  1  0  0  0  0
  7 24  1  0  0  0  0
  7 25  1  0  0  0  0
  8 26  1  0  0  0  0
  8 27  1  0  0  0  0
  9 28  1  0  0  0  0
  9 29  1  0  0  0  0
 10 30  1  0  0  0  0
 10 31  1  0  0  0  0
 11 32  1  0  0  0  0
 12 33  1  0  0  0  0
 13 34  1  0  0  0  0
 13 35  1  0  0  0  0
 14 36  1  0  0  0  0
 14 37  1  0  0  0  0
 15 38  1  0  0  0  0
 18 39  1  0  0  0  0
M  END
> <FRED Chemgauss4 score>
-7.045547

$$$$
C88028385	P137679006
  -OEChem-05182014473D

 28 29  0     1  0  0  0  0  0999 V2000
  124.6362  104.1112  107.3506 C   0  0  0  0  0  0  0  0  0  0  0  0
  121.1817  108.0081  109.1686 C   0  0  0  0  0  0  0  0  0  0  0  0
  121.9557  108.9281  109.8357 C   0  0  0  0  0  0  0  0  0  0  0  0
  123.3640  103.6751  107.0525 C   0  0  0  0  0  0  0  0  0  0  0  0
  124.8608  105.4477  106.9105 C   0  0  0  0  0  0  0  0  0  0  0  0
  123.7515  105.9821  106.2926 C   0  0  0  0  0  0  0  0  0  0  0  0
  122.8003  108.4471  107.8579 C   0  0  0  0  0  0  0  0  0  0  0  0
  127.0946  105.4647  107.7263 C   0  0  0  0  0  0  0  0  0  0  0  0
  123.7703  108.5070  106.6999 C   0  0  0  0  0  0  0  0  0  0  0  0
  123.5739  107.3617  105.6817 C   0  0  2  0  0  0  0  0  0  0  0  0
  121.7130  107.7126  107.9382 N   0  0  0  0  0  0  0  0  0  0  0  0
  122.9890  109.1994  108.9838 N   0  0  0  0  0  0  0  0  0  0  0  0
  122.2573  107.4830  105.0409 N   0  0  0  0  0  0  0  0  0  0  0  0
  126.0090  106.1299  107.0658 O   0  0  0  0  0  0  0  0  0  0  0  0
  122.4464  104.8745  106.2451 S   0  0  0  0  0  0  0  0  0  0  0  0
  125.3685  103.4979  107.8599 H   0  0  0  0  0  0  0  0  0  0  0  0
  120.2698  107.5424  109.5123 H   0  0  0  0  0  0  0  0  0  0  0  0
  121.8696  109.3990  110.8041 H   0  0  0  0  0  0  0  0  0  0  0  0
  122.9299  102.7094  107.2693 H   0  0  0  0  0  0  0  0  0  0  0  0
  127.9554  106.1357  107.7801 H   0  0  0  0  0  0  0  0  0  0  0  0
  127.3587  104.5595  107.1738 H   0  0  0  0  0  0  0  0  0  0  0  0
  126.7828  105.1939  108.7378 H   0  0  0  0  0  0  0  0  0  0  0  0
  124.7867  108.4651  107.1160 H   0  0  0  0  0  0  0  0  0  0  0  0
  123.6979  109.4864  106.2088 H   0  0  0  0  0  0  0  0  0  0  0  0
  124.3140  107.4817  104.8802 H   0  0  0  0  0  0  0  0  0  0  0  0
  123.7514  109.8418  109.1549 H   0  0  0  0  0  0  0  0  0  0  0  0
  121.8791  106.6729  104.6094 H   0  0  0  0  0  0  0  0  0  0  0  0
  121.9021  108.3977  104.8890 H   0  0  0  0  0  0  0  0  0  0  0  0
  1  4  2  0  0  0  0
  1  5  1  0  0  0  0
  2  3  2  0  0  0  0
  2 11  1  0  0  0  0
  3 12  1  0  0  0  0
  4 15  1  0  0  0  0
  5  6  2  0  0  0  0
  5 14  1  0  0  0  0
  6 10  1  0  0  0  0
  6 15  1  0  0  0  0
  7  9  1  0  0  0  0
  7 11  2  0  0  0  0
  7 12  1  0  0  0  0
  8 14  1  0  0  0  0
  9 10  1  0  0  0  0
 10 13  1  0  0  0  0
  1 16  1  0  0  0  0
  2 17  1  0  0  0  0
  3 18  1  0  0  0  0
  4 19  1  0  0  0  0
  8 20  1  0  0  0  0
  8 21  1  0  0  0  0
  8 22  1  0  0  0  0
  9 23  1  0  0  0  0
  9 24  1  0  0  0  0
 10 25  1  0  0  0  0
 12 26  1  0  0  0  0
 13 27  1  0  0  0  0
 13 28  1  0  0  0  0
M  END
> <FRED Chemgauss4 score>
-7.039287

$$$$
C37044345	P55071484
  -OEChem-05182014473D

 35 36  0     1  0  0  0  0  0999 V2000
  122.7477  106.2495  105.3620 C   0  0  0  0  0  0  0  0  0  0  0  0
  118.0820  103.5416  104.9046 C   0  0  0  0  0  0  0  0  0  0  0  0
  118.3761  104.1074  106.2885 C   0  0  0  0  0  0  0  0  0  0  0  0
  118.7293  104.3834  103.8096 C   0  0  0  0  0  0  0  0  0  0  0  0
  119.8754  104.2522  106.5219 C   0  0  0  0  0  0  0  0  0  0  0  0
  124.4369  105.8990  107.2031 C   0  0  0  0  0  0  0  0  0  0  0  0
  124.6950  108.3438  106.2598 C   0  0  0  0  0  0  0  0  0  0  0  0
  124.1978  106.0928  105.7112 C   0  0  2  0  0  0  0  0  0  0  0  0
  120.2437  104.5402  104.0214 C   0  0  2  0  0  0  0  0  0  0  0  0
  120.5482  105.0919  105.4304 C   0  0  2  0  0  0  0  0  0  0  0  0
  120.8265  105.4356  102.9231 C   0  0  0  0  0  0  0  0  0  0  0  0
  124.9103  107.2956  105.2585 N   0  0  0  0  0  0  0  0  0  0  0  0
  121.9708  105.1519  105.6797 N   0  0  0  0  0  0  0  0  0  0  0  0
  122.3601  107.2901  104.8436 O   0  0  0  0  0  0  0  0  0  0  0  0
  120.5545  104.9141  101.7191 F   0  0  0  0  0  0  0  0  0  0  0  0
  120.2891  106.6605  103.0020 F   0  0  0  0  0  0  0  0  0  0  0  0
  122.1551  105.5293  103.0701 F   0  0  0  0  0  0  0  0  0  0  0  0
  124.5586  107.5709  107.8881 S   0  0  0  0  0  0  0  0  0  0  0  0
  118.4536  102.5114  104.8423 H   0  0  0  0  0  0  0  0  0  0  0  0
  116.9985  103.5010  104.7458 H   0  0  0  0  0  0  0  0  0  0  0  0
  117.8923  105.0861  106.3956 H   0  0  0  0  0  0  0  0  0  0  0  0
  117.9452  103.4522  107.0540 H   0  0  0  0  0  0  0  0  0  0  0  0
  118.5353  103.9169  102.8362 H   0  0  0  0  0  0  0  0  0  0  0  0
  118.2530  105.3722  103.7872 H   0  0  0  0  0  0  0  0  0  0  0  0
  120.0493  104.7082  107.5044 H   0  0  0  0  0  0  0  0  0  0  0  0
  120.3345  103.2553  106.5601 H   0  0  0  0  0  0  0  0  0  0  0  0
  123.6103  105.3655  107.6973 H   0  0  0  0  0  0  0  0  0  0  0  0
  125.3616  105.3355  107.3945 H   0  0  0  0  0  0  0  0  0  0  0  0
  125.5442  109.0401  106.2610 H   0  0  0  0  0  0  0  0  0  0  0  0
  123.7910  108.9212  106.0278 H   0  0  0  0  0  0  0  0  0  0  0  0
  124.5722  105.2095  105.1343 H   0  0  0  0  0  0  0  0  0  0  0  0
  120.7086  103.5494  103.9221 H   0  0  0  0  0  0  0  0  0  0  0  0
  120.1830  106.1242  105.5020 H   0  0  0  0  0  0  0  0  0  0  0  0
  124.4891  107.6124  104.3819 H   0  0  0  0  0  0  0  0  0  0  0  0
  122.4208  104.3491  106.1088 H   0  0  0  0  0  0  0  0  0  0  0  0
  1  8  1  0  0  0  0
  1 13  1  0  0  0  0
  1 14  2  0  0  0  0
  2  3  1  0  0  0  0
  2  4  1  0  0  0  0
  3  5  1  0  0  0  0
  4  9  1  0  0  0  0
  5 10  1  0  0  0  0
  6  8  1  0  0  0  0
  6 18  1  0  0  0  0
  7 12  1  0  0  0  0
  7 18  1  0  0  0  0
  8 12  1  0  0  0  0
  9 10  1  0  0  0  0
  9 11  1  0  0  0  0
 10 13  1  0  0  0  0
 11 15  1  0  0  0  0
 11 16  1  0  0  0  0
 11 17  1  0  0  0  0
  2 19  1  0  0  0  0
  2 20  1  0  0  0  0
  3 21  1  0  0  0  0
  3 22  1  0  0  0  0
  4 23  1  0  0  0  0
  4 24  1  0  0  0  0
  5 25  1  0  0  0  0
  5 26  1  0  0  0  0
  6 27  1  0  0  0  0
  6 28  1  0  0  0  0
  7 29  1  0  0  0  0
  7 30  1  0  0  0  0
  8 31  1  0  0  0  0
  9 32  1  0  0  0  0
 10 33  1  0  0  0  0
 12 34  1  0  0  0  0
 13 35  1  0  0  0  0
M  END
> <FRED Chemgauss4 score>
-7.036450

$$$$
C04544517	P06219504
  -OEChem-05182014473D

 23 22  0     1  0  0  0  0  0999 V2000
  123.3018  107.9022  106.3055 C   0  0  0  0  0  0  0  0  0  0  0  0
  125.6142  104.1745  106.9018 C   0  0  0  0  0  0  0  0  0  0  0  0
  124.6374  107.3066  105.9031 C   0  0  2  0  0  0  0  0  0  0  0  0
  124.5383  104.7985  107.7826 C   0  0  1  0  0  0  0  0  0  0  0  0
  125.5270  107.1257  107.1377 C   0  0  2  0  0  0  0  0  0  0  0  0
  124.9119  106.2228  108.2298 C   0  0  1  0  0  0  0  0  0  0  0  0
  122.2163  107.3677  106.1006 O   0  0  0  0  0  0  0  0  0  0  0  0
  125.2519  108.1846  104.9778 O   0  0  0  0  0  0  0  0  0  0  0  0
  123.3218  104.8235  107.0386 O   0  0  0  0  0  0  0  0  0  0  0  0
  125.8148  108.4173  107.6758 O   0  0  0  0  0  0  0  0  0  0  0  0
  123.7395  106.8710  108.7331 O   0  0  0  0  0  0  0  0  0  0  0  0
  125.4223  102.8254  106.8813 F   0  0  0  0  0  0  0  0  0  0  0  0
  123.3505  108.8963  106.7824 H   0  0  0  0  0  0  0  0  0  0  0  0
  125.5547  104.5234  105.8667 H   0  0  0  0  0  0  0  0  0  0  0  0
  126.6178  104.3576  107.2954 H   0  0  0  0  0  0  0  0  0  0  0  0
  124.4342  106.3466  105.4157 H   0  0  0  0  0  0  0  0  0  0  0  0
  124.3727  104.1586  108.6557 H   0  0  0  0  0  0  0  0  0  0  0  0
  126.4905  106.6944  106.8360 H   0  0  0  0  0  0  0  0  0  0  0  0
  125.6114  106.1488  109.0714 H   0  0  0  0  0  0  0  0  0  0  0  0
  124.6544  108.2584  104.2142 H   0  0  0  0  0  0  0  0  0  0  0  0
  122.6539  105.2231  107.6166 H   0  0  0  0  0  0  0  0  0  0  0  0
  126.3763  108.2708  108.4516 H   0  0  0  0  0  0  0  0  0  0  0  0
  123.4340  106.3356  109.4796 H   0  0  0  0  0  0  0  0  0  0  0  0
  1  3  1  0  0  0  0
  1  7  2  0  0  0  0
  2  4  1  0  0  0  0
  2 12  1  0  0  0  0
  3  5  1  0  0  0  0
  3  8  1  0  0  0  0
  4  6  1  0  0  0  0
  4  9  1  0  0  0  0
  5  6  1  0  0  0  0
  5 10  1  0  0  0  0
  6 11  1  0  0  0  0
  1 13  1  0  0  0  0
  2 14  1  0  0  0  0
  2 15  1  0  0  0  0
  3 16  1  0  0  0  0
  4 17  1  0  0  0  0
  5 18  1  0  0  0  0
  6 19  1  0  0  0  0
  8 20  1  0  0  0  0
  9 21  1  0  0  0  0
 10 22  1  0  0  0  0
 11 23  1  0  0  0  0
M  END
> <FRED Chemgauss4 score>
-7.036146

$$$$
C70394015	P108532505
  -OEChem-05182014473D

 39 40  0     1  0  0  0  0  0999 V2000
  117.8855  104.1104  105.9138 C   0  0  0  0  0  0  0  0  0  0  0  0
  118.1412  103.4507  104.7118 C   0  0  0  0  0  0  0  0  0  0  0  0
  118.7621  105.0954  106.3690 C   0  0  0  0  0  0  0  0  0  0  0  0
  120.1503  104.7606  104.4201 C   0  0  0  0  0  0  0  0  0  0  0  0
  119.2736  103.7757  103.9649 C   0  0  0  0  0  0  0  0  0  0  0  0
  119.8945  105.4204  105.6222 C   0  0  0  0  0  0  0  0  0  0  0  0
  126.1047  106.3510  106.9427 C   0  0  0  0  0  0  0  0  0  0  0  0
  123.4043  103.6651  107.3923 C   0  0  0  0  0  0  0  0  0  0  0  0
  124.7266  104.3970  107.6041 C   0  0  0  0  0  0  0  0  0  0  0  0
  122.2195  104.6189  107.4961 C   0  0  0  0  0  0  0  0  0  0  0  0
  123.6365  106.5106  106.7584 C   0  0  0  0  0  0  0  0  0  0  0  0
  124.8491  105.5860  106.6489 C   0  0  1  0  0  0  0  0  0  0  0  0
  121.3558  105.0858  103.6001 C   0  0  0  0  0  0  0  0  0  0  0  0
  122.3867  105.7311  106.5157 N   0  0  2  0  0  0  0  0  0  0  0  0
  126.1562  106.8639  108.2173 N   0  0  0  0  0  0  0  0  0  0  0  0
  121.0099  105.5387  102.2777 N   0  0  0  0  0  0  0  0  0  0  0  0
  126.9999  106.4805  106.1113 O   0  0  0  0  0  0  0  0  0  0  0  0
  121.2453  107.5935  105.1463 O   0  0  0  0  0  0  0  0  0  0  0  0
  120.4633  107.1365  107.4973 O   0  0  0  0  0  0  0  0  0  0  0  0
  119.5103  103.1348  102.8116 F   0  0  0  0  0  0  0  0  0  0  0  0
  120.9821  106.6710  106.2294 S   0  0  0  0  0  0  0  0  0  0  0  0
  117.0029  103.8581  106.4945 H   0  0  0  0  0  0  0  0  0  0  0  0
  117.4590  102.6834  104.3574 H   0  0  0  0  0  0  0  0  0  0  0  0
  118.5531  105.6010  107.3080 H   0  0  0  0  0  0  0  0  0  0  0  0
  123.4037  103.1818  106.4091 H   0  0  0  0  0  0  0  0  0  0  0  0
  123.3012  102.8694  108.1399 H   0  0  0  0  0  0  0  0  0  0  0  0
  124.8002  104.7241  108.6416 H   0  0  0  0  0  0  0  0  0  0  0  0
  125.5486  103.7043  107.4147 H   0  0  0  0  0  0  0  0  0  0  0  0
  121.2772  104.0925  107.3027 H   0  0  0  0  0  0  0  0  0  0  0  0
  122.1821  105.0293  108.5116 H   0  0  0  0  0  0  0  0  0  0  0  0
  123.5959  106.9506  107.7572 H   0  0  0  0  0  0  0  0  0  0  0  0
  123.7074  107.3138  106.0215 H   0  0  0  0  0  0  0  0  0  0  0  0
  124.9358  105.2248  105.6331 H   0  0  0  0  0  0  0  0  0  0  0  0
  121.9539  105.8748  104.0751 H   0  0  0  0  0  0  0  0  0  0  0  0
  122.0114  104.2124  103.4879 H   0  0  0  0  0  0  0  0  0  0  0  0
  125.3744  106.6955  108.8419 H   0  0  0  0  0  0  0  0  0  0  0  0
  126.9447  107.4041  108.5585 H   0  0  0  0  0  0  0  0  0  0  0  0
  121.6727  105.4172  101.5298 H   0  0  0  0  0  0  0  0  0  0  0  0
  120.2137  106.1435  102.1603 H   0  0  0  0  0  0  0  0  0  0  0  0
  1  2  1  0  0  0  0
  1  3  2  0  0  0  0
  2  5  2  0  0  0  0
  3  6  1  0  0  0  0
  4  5  1  0  0  0  0
  4  6  2  0  0  0  0
  4 13  1  0  0  0  0
  5 20  1  0  0  0  0
  6 21  1  0  0  0  0
  7 12  1  0  0  0  0
  7 15  1  0  0  0  0
  7 17  2  0  0  0  0
  8  9  1  0  0  0  0
  8 10  1  0  0  0  0
  9 12  1  0  0  0  0
 10 14  1  0  0  0  0
 11 12  1  0  0  0  0
 11 14  1  0  0  0  0
 13 16  1  0  0  0  0
 14 21  1  0  0  0  0
 18 21  2  0  0  0  0
 19 21  2  0  0  0  0
  1 22  1  0  0  0  0
  2 23  1  0  0  0  0
  3 24  1  0  0  0  0
  8 25  1  0  0  0  0
  8 26  1  0  0  0  0
  9 27  1  0  0  0  0
  9 28  1  0  0  0  0
 10 29  1  0  0  0  0
 10 30  1  0  0  0  0
 11 31  1  0  0  0  0
 11 32  1  0  0  0  0
 12 33  1  0  0  0  0
 13 34  1  0  0  0  0
 13 35  1  0  0  0  0
 15 36  1  0  0  0  0
 15 37  1  0  0  0  0
 16 38  1  0  0  0  0
 16 39  1  0  0  0  0
M  END
> <FRED Chemgauss4 score>
-7.036082

$$$$
C67725038	P103995721
  -OEChem-05182014473D

 47 48  0     1  0  0  0  0  0999 V2000
  120.5987  106.7685  108.2722 C   0  0  0  0  0  0  0  0  0  0  0  0
  122.0020  106.6972  108.3576 C   0  0  0  0  0  0  0  0  0  0  0  0
  120.3390  108.0849  107.9787 C   0  0  0  0  0  0  0  0  0  0  0  0
  122.8223  105.5096  108.6506 C   0  0  0  0  0  0  0  0  0  0  0  0
  122.8565  106.0465  105.5750 C   0  0  0  0  0  0  0  0  0  0  0  0
  125.1431  105.1723  105.7786 C   0  0  0  0  0  0  0  0  0  0  0  0
  124.6555  103.9652  107.7782 C   0  0  0  0  0  0  0  0  0  0  0  0
  124.0349  105.9243  106.5179 C   0  0  2  0  0  0  0  0  0  0  0  0
  125.8196  104.3461  106.8713 C   0  0  2  0  0  0  0  0  0  0  0  0
  118.1564  108.8197  109.0035 C   0  0  0  0  0  0  0  0  0  0  0  0
  118.2794  108.2953  106.5408 C   0  0  0  0  0  0  0  0  0  0  0  0
  119.7197  104.1215  105.5760 C   0  0  0  0  0  0  0  0  0  0  0  0
  121.1392  104.2219  103.4973 C   0  0  0  0  0  0  0  0  0  0  0  0
  119.0792  108.8139  107.7605 C   0  0  0  0  0  0  0  0  0  0  0  0
  120.7877  104.8947  104.8161 C   0  0  0  0  0  0  0  0  0  0  0  0
  122.5926  107.8746  108.1361 N   0  0  0  0  0  0  0  0  0  0  0  0
  121.5552  108.6981  107.9085 N   0  0  0  0  0  0  0  0  0  0  0  0
  123.7444  105.1072  107.6929 N   0  0  0  0  0  0  0  0  0  0  0  0
  126.8080  105.1186  107.5854 N   0  0  0  0  0  0  0  0  0  0  0  0
  121.9790  104.9805  105.6299 N   0  0  0  0  0  0  0  0  0  0  0  0
  122.6370  104.9504  109.7302 O   0  0  0  0  0  0  0  0  0  0  0  0
  122.7569  107.0349  104.8574 O   0  0  0  0  0  0  0  0  0  0  0  0
  119.8748  105.9771  108.4049 H   0  0  0  0  0  0  0  0  0  0  0  0
  124.7327  104.4969  105.0165 H   0  0  0  0  0  0  0  0  0  0  0  0
  125.8260  105.8552  105.2613 H   0  0  0  0  0  0  0  0  0  0  0  0
  124.1198  103.0959  107.3795 H   0  0  0  0  0  0  0  0  0  0  0  0
  124.9540  103.7483  108.8085 H   0  0  0  0  0  0  0  0  0  0  0  0
  124.3641  106.9339  106.8315 H   0  0  0  0  0  0  0  0  0  0  0  0
  126.3037  103.4449  106.4489 H   0  0  0  0  0  0  0  0  0  0  0  0
  117.8952  107.8010  109.3100 H   0  0  0  0  0  0  0  0  0  0  0  0
  117.2220  109.3616  108.8211 H   0  0  0  0  0  0  0  0  0  0  0  0
  118.6646  109.3018  109.8461 H   0  0  0  0  0  0  0  0  0  0  0  0
  118.0390  107.2344  106.6728 H   0  0  0  0  0  0  0  0  0  0  0  0
  118.8407  108.3979  105.6057 H   0  0  0  0  0  0  0  0  0  0  0  0
  117.3359  108.8394  106.4229 H   0  0  0  0  0  0  0  0  0  0  0  0
  120.0504  103.0980  105.7802 H   0  0  0  0  0  0  0  0  0  0  0  0
  119.4831  104.6010  106.5325 H   0  0  0  0  0  0  0  0  0  0  0  0
  118.7917  104.0687  104.9961 H   0  0  0  0  0  0  0  0  0  0  0  0
  121.4944  103.1993  103.6658 H   0  0  0  0  0  0  0  0  0  0  0  0
  121.9287  104.7735  102.9765 H   0  0  0  0  0  0  0  0  0  0  0  0
  120.2693  104.1628  102.8336 H   0  0  0  0  0  0  0  0  0  0  0  0
  119.2771  109.8876  107.5416 H   0  0  0  0  0  0  0  0  0  0  0  0
  120.4357  105.9140  104.6232 H   0  0  0  0  0  0  0  0  0  0  0  0
  121.7518  109.6715  107.7107 H   0  0  0  0  0  0  0  0  0  0  0  0
  127.3825  105.7401  107.0608 H   0  0  0  0  0  0  0  0  0  0  0  0
  127.0156  104.8573  108.5236 H   0  0  0  0  0  0  0  0  0  0  0  0
  122.1810  104.2208  106.2730 H   0  0  0  0  0  0  0  0  0  0  0  0
  1  2  1  0  0  0  0
  1  3  2  0  0  0  0
  2  4  1  0  0  0  0
  2 16  2  0  0  0  0
  3 14  1  0  0  0  0
  3 17  1  0  0  0  0
  4 18  1  0  0  0  0
  4 21  2  0  0  0  0
  5  8  1  0  0  0  0
  5 20  1  0  0  0  0
  5 22  2  0  0  0  0
  6  8  1  0  0  0  0
  6  9  1  0  0  0  0
  7  9  1  0  0  0  0
  7 18  1  0  0  0  0
  8 18  1  0  0  0  0
  9 19  1  0  0  0  0
 10 14  1  0  0  0  0
 11 14  1  0  0  0  0
 12 15  1  0  0  0  0
 13 15  1  0  0  0  0
 15 20  1  0  0  0  0
 16 17  1  0  0  0  0
  1 23  1  0  0  0  0
  6 24  1  0  0  0  0
  6 25  1  0  0  0  0
  7 26  1  0  0  0  0
  7 27  1  0  0  0  0
  8 28  1  0  0  0  0
  9 29  1  0  0  0  0
 10 30  1  0  0  0  0
 10 31  1  0  0  0  0
 10 32  1  0  0  0  0
 11 33  1  0  0  0  0
 11 34  1  0  0  0  0
 11 35  1  0  0  0  0
 12 36  1  0  0  0  0
 12 37  1  0  0  0  0
 12 38  1  0  0  0  0
 13 39  1  0  0  0  0
 13 40  1  0  0  0  0
 13 41  1  0  0  0  0
 14 42  1  0  0  0  0
 15 43  1  0  0  0  0
 17 44  1  0  0  0  0
 19 45  1  0  0  0  0
 19 46  1  0  0  0  0
 20 47  1  0  0  0  0
M  END
> <FRED Chemgauss4 score>
-7.034845

$$$$
C92954709	P145532580
  -OEChem-05182014473D

 44 45  0     1  0  0  0  0  0999 V2000
  117.3145  104.7540  102.4805 C   0  0  0  0  0  0  0  0  0  0  0  0
  120.6959  105.3043  101.4576 C   0  0  0  0  0  0  0  0  0  0  0  0
  121.5057  104.9965  102.7168 C   0  0  0  0  0  0  0  0  0  0  0  0
  116.5583  106.1991  104.3526 C   0  0  0  0  0  0  0  0  0  0  0  0
  119.4815  104.3881  101.3450 C   0  0  0  0  0  0  0  0  0  0  0  0
  119.3978  104.1239  103.7992 C   0  0  0  0  0  0  0  0  0  0  0  0
  115.4059  106.1639  105.3338 C   0  0  0  0  0  0  0  0  0  0  0  0
  116.5568  104.7954  103.7686 C   0  0  1  0  0  0  0  0  0  0  0  0
  120.6163  105.0426  103.9688 C   0  0  1  0  0  0  0  0  0  0  0  0
  115.0719  104.5080  103.5654 C   0  0  1  0  0  0  0  0  0  0  0  0
  114.7126  103.0353  103.6494 C   0  0  0  0  0  0  0  0  0  0  0  0
  121.4138  104.6612  105.2133 C   0  0  0  0  0  0  0  0  0  0  0  0
  122.7262  105.2843  105.1809 N   0  5  0  0  0  0  0  0  0  0  0  0
  118.6718  104.4450  102.5631 N   0  0  0  0  0  0  0  0  0  0  0  0
  122.9340  106.6179  107.3453 N   0  0  0  0  0  0  0  0  0  0  0  0
  114.3978  105.2605  104.6861 N   0  3  0  0  0  0  0  0  0  0  0  0
  116.7215  104.9915  101.4250 O   0  0  0  0  0  0  0  0  0  0  0  0
  123.7996  107.6320  105.1989 O   0  0  0  0  0  0  0  0  0  0  0  0
  121.3650  107.4457  105.5464 O   0  0  0  0  0  0  0  0  0  0  0  0
  122.6763  106.8094  105.6397 S   0  0  0  0  0  0  0  0  0  0  0  0
  120.3633  106.3492  101.4907 H   0  0  0  0  0  0  0  0  0  0  0  0
  121.3298  105.1935  100.5710 H   0  0  0  0  0  0  0  0  0  0  0  0
  121.9638  104.0040  102.6186 H   0  0  0  0  0  0  0  0  0  0  0  0
  122.3247  105.7194  102.8097 H   0  0  0  0  0  0  0  0  0  0  0  0
  116.3817  106.9584  103.5785 H   0  0  0  0  0  0  0  0  0  0  0  0
  117.5071  106.4466  104.8418 H   0  0  0  0  0  0  0  0  0  0  0  0
  118.8888  104.6668  100.4681 H   0  0  0  0  0  0  0  0  0  0  0  0
  119.7971  103.3468  101.2099 H   0  0  0  0  0  0  0  0  0  0  0  0
  119.7102  103.0749  103.7227 H   0  0  0  0  0  0  0  0  0  0  0  0
  118.7538  104.2012  104.6775 H   0  0  0  0  0  0  0  0  0  0  0  0
  115.6878  105.6954  106.2819 H   0  0  0  0  0  0  0  0  0  0  0  0
  114.9419  107.1377  105.5083 H   0  0  0  0  0  0  0  0  0  0  0  0
  117.0188  104.0880  104.4657 H   0  0  0  0  0  0  0  0  0  0  0  0
  120.2572  106.0731  104.0945 H   0  0  0  0  0  0  0  0  0  0  0  0
  114.6881  104.9413  102.6316 H   0  0  0  0  0  0  0  0  0  0  0  0
  115.0943  102.6053  104.5776 H   0  0  0  0  0  0  0  0  0  0  0  0
  115.1468  102.4916  102.8079 H   0  0  0  0  0  0  0  0  0  0  0  0
  113.6283  102.9087  103.6254 H   0  0  0  0  0  0  0  0  0  0  0  0
  121.4940  103.5707  105.2553 H   0  0  0  0  0  0  0  0  0  0  0  0
  120.8495  104.9725  106.0978 H   0  0  0  0  0  0  0  0  0  0  0  0
  123.8243  106.9806  107.7098 H   0  0  0  0  0  0  0  0  0  0  0  0
  122.1367  106.8529  107.9504 H   0  0  0  0  0  0  0  0  0  0  0  0
  113.9948  104.6241  105.3878 H   0  0  0  0  0  0  0  0  0  0  0  0
  113.6125  105.8107  104.3121 H   0  0  0  0  0  0  0  0  0  0  0  0
  1  8  1  0  0  0  0
  1 14  1  0  0  0  0
  1 17  2  0  0  0  0
  2  3  1  0  0  0  0
  2  5  1  0  0  0  0
  3  9  1  0  0  0  0
  4  7  1  0  0  0  0
  4  8  1  0  0  0  0
  5 14  1  0  0  0  0
  6  9  1  0  0  0  0
  6 14  1  0  0  0  0
  7 16  1  0  0  0  0
  8 10  1  0  0  0  0
  9 12  1  0  0  0  0
 10 11  1  0  0  0  0
 10 16  1  0  0  0  0
 12 13  1  0  0  0  0
 13 20  1  0  0  0  0
 15 20  1  0  0  0  0
 18 20  2  0  0  0  0
 19 20  2  0  0  0  0
  2 21  1  0  0  0  0
  2 22  1  0  0  0  0
  3 23  1  0  0  0  0
  3 24  1  0  0  0  0
  4 25  1  0  0  0  0
  4 26  1  0  0  0  0
  5 27  1  0  0  0  0
  5 28  1  0  0  0  0
  6 29  1  0  0  0  0
  6 30  1  0  0  0  0
  7 31  1  0  0  0  0
  7 32  1  0  0  0  0
  8 33  1  0  0  0  0
  9 34  1  0  0  0  0
 10 35  1  0  0  0  0
 11 36  1  0  0  0  0
 11 37  1  0  0  0  0
 11 38  1  0  0  0  0
 12 39  1  0  0  0  0
 12 40  1  0  0  0  0
 15 41  1  0  0  0  0
 15 42  1  0  0  0  0
 16 43  1  0  0  0  0
 16 44  1  0  0  0  0
M  CHG  2  13  -1  16   1
M  END
> <FRED Chemgauss4 score>
-7.032995

$$$$
C55166662	P83101249
  -OEChem-05182014473D

 26 26  0     0  0  0  0  0  0999 V2000
  123.4418  107.4009  106.3447 C   0  0  0  0  0  0  0  0  0  0  0  0
  125.4852  107.8138  106.2390 C   0  0  0  0  0  0  0  0  0  0  0  0
  122.0689  107.0084  105.9344 C   0  0  0  0  0  0  0  0  0  0  0  0
  118.0147  103.1272  106.6242 C   0  0  0  0  0  0  0  0  0  0  0  0
  119.9413  105.9636  106.6676 C   0  0  0  0  0  0  0  0  0  0  0  0
  119.8899  104.8989  105.5887 C   0  0  0  0  0  0  0  0  0  0  0  0
  124.4939  107.4183  105.4744 N   0  0  0  0  0  0  0  0  0  0  0  0
  123.7197  107.7607  107.5996 N   0  0  0  0  0  0  0  0  0  0  0  0
  125.0327  108.0197  107.5049 N   0  0  0  0  0  0  0  0  0  0  0  0
  126.7877  108.0262  105.9586 N   0  0  0  0  0  0  0  0  0  0  0  0
  121.2817  106.4191  106.9168 N   0  0  0  0  0  0  0  0  0  0  0  0
  121.7117  107.1987  104.7748 O   0  0  0  0  0  0  0  0  0  0  0  0
  117.3251  105.4001  105.5330 O   0  0  0  0  0  0  0  0  0  0  0  0
  118.2413  103.5682  104.0578 O   0  0  0  0  0  0  0  0  0  0  0  0
  118.2512  104.3028  105.3113 S   0  0  0  0  0  0  0  0  0  0  0  0
  117.0140  102.7025  106.5300 H   0  0  0  0  0  0  0  0  0  0  0  0
  118.7716  102.3472  106.5285 H   0  0  0  0  0  0  0  0  0  0  0  0
  118.1208  103.6487  107.5766 H   0  0  0  0  0  0  0  0  0  0  0  0
  119.3401  106.8376  106.3985 H   0  0  0  0  0  0  0  0  0  0  0  0
  119.5616  105.5611  107.6117 H   0  0  0  0  0  0  0  0  0  0  0  0
  120.4859  104.0298  105.8827 H   0  0  0  0  0  0  0  0  0  0  0  0
  120.2611  105.2736  104.6300 H   0  0  0  0  0  0  0  0  0  0  0  0
  125.5397  108.3251  108.3271 H   0  0  0  0  0  0  0  0  0  0  0  0
  127.1863  107.8388  105.0263 H   0  0  0  0  0  0  0  0  0  0  0  0
  127.4685  108.2959  106.6847 H   0  0  0  0  0  0  0  0  0  0  0  0
  121.6746  106.2393  107.8389 H   0  0  0  0  0  0  0  0  0  0  0  0
  1  3  1  0  0  0  0
  1  7  1  0  0  0  0
  1  8  2  0  0  0  0
  2  7  2  0  0  0  0
  2  9  1  0  0  0  0
  2 10  1  0  0  0  0
  3 11  1  0  0  0  0
  3 12  2  0  0  0  0
  4 15  1  0  0  0  0
  5  6  1  0  0  0  0
  5 11  1  0  0  0  0
  6 15  1  0  0  0  0
  8  9  1  0  0  0  0
 13 15  2  0  0  0  0
 14 15  2  0  0  0  0
  4 16  1  0  0  0  0
  4 17  1  0  0  0  0
  4 18  1  0  0  0  0
  5 19  1  0  0  0  0
  5 20  1  0  0  0  0
  6 21  1  0  0  0  0
  6 22  1  0  0  0  0
  9 23  1  0  0  0  0
 10 24  1  0  0  0  0
 10 25  1  0  0  0  0
 11 26  1  0  0  0  0
M  END
> <FRED Chemgauss4 score>
-7.025889

$$$$
C87339114	P136639590
  -OEChem-05182014473D

 24 24  0     0  0  0  0  0  0999 V2000
  121.2108  105.2393  103.6005 C   0  0  0  0  0  0  0  0  0  0  0  0
  119.0411  103.9433  106.0314 C   0  0  0  0  0  0  0  0  0  0  0  0
  120.1809  104.0020  106.7982 C   0  0  0  0  0  0  0  0  0  0  0  0
  120.5507  104.7207  104.7480 C   0  0  0  0  0  0  0  0  0  0  0  0
  122.9416  106.1927  106.1258 C   0  0  0  0  0  0  0  0  0  0  0  0
  122.5323  104.7486  106.3223 C   0  0  0  0  0  0  0  0  0  0  0  0
  124.5110  107.8877  107.0481 C   0  0  0  0  0  0  0  0  0  0  0  0
  125.7068  107.9480  106.1154 C   0  0  0  0  0  0  0  0  0  0  0  0
  121.7496  105.6626  102.6639 N   0  0  0  0  0  0  0  0  0  0  0  0
  119.2780  104.3918  104.7561 N   0  0  0  0  0  0  0  0  0  0  0  0
  121.1395  104.5015  105.9623 N   0  0  0  0  0  0  0  0  0  0  0  0
  123.9386  106.5617  107.0171 N   0  0  0  0  0  0  0  0  0  0  0  0
  122.4406  106.9291  105.2803 O   0  0  0  0  0  0  0  0  0  0  0  0
  125.2951  107.6092  104.7973 O   0  0  0  0  0  0  0  0  0  0  0  0
  118.0619  103.6008  106.3328 H   0  0  0  0  0  0  0  0  0  0  0  0
  120.3841  103.7410  107.8274 H   0  0  0  0  0  0  0  0  0  0  0  0
  122.6684  104.4644  107.3718 H   0  0  0  0  0  0  0  0  0  0  0  0
  123.1626  104.0965  105.7072 H   0  0  0  0  0  0  0  0  0  0  0  0
  124.8005  108.1122  108.0797 H   0  0  0  0  0  0  0  0  0  0  0  0
  123.7427  108.5984  106.7289 H   0  0  0  0  0  0  0  0  0  0  0  0
  126.4641  107.2231  106.4297 H   0  0  0  0  0  0  0  0  0  0  0  0
  126.1543  108.9471  106.0987 H   0  0  0  0  0  0  0  0  0  0  0  0
  124.2652  105.8890  107.7045 H   0  0  0  0  0  0  0  0  0  0  0  0
  126.0855  107.6598  104.2360 H   0  0  0  0  0  0  0  0  0  0  0  0
  1  4  1  0  0  0  0
  1  9  3  0  0  0  0
  2  3  2  0  0  0  0
  2 10  1  0  0  0  0
  3 11  1  0  0  0  0
  4 10  2  0  0  0  0
  4 11  1  0  0  0  0
  5  6  1  0  0  0  0
  5 12  1  0  0  0  0
  5 13  2  0  0  0  0
  6 11  1  0  0  0  0
  7  8  1  0  0  0  0
  7 12  1  0  0  0  0
  8 14  1  0  0  0  0
  2 15  1  0  0  0  0
  3 16  1  0  0  0  0
  6 17  1  0  0  0  0
  6 18  1  0  0  0  0
  7 19  1  0  0  0  0
  7 20  1  0  0  0  0
  8 21  1  0  0  0  0
  8 22  1  0  0  0  0
 12 23  1  0  0  0  0
 14 24  1  0  0  0  0
M  END
> <FRED Chemgauss4 score>
-7.020611

$$$$
C63143169	P96955688
  -OEChem-05182014473D

 36 36  0     1  0  0  0  0  0999 V2000
  120.2834  104.5022  102.5158 C   0  0  0  0  0  0  0  0  0  0  0  0
  118.0917  104.0566  105.2097 C   0  0  0  0  0  0  0  0  0  0  0  0
  118.2346  104.7748  103.8714 C   0  0  0  0  0  0  0  0  0  0  0  0
  119.4768  103.4929  105.4852 C   0  0  0  0  0  0  0  0  0  0  0  0
  119.7098  105.1658  103.7559 C   0  0  1  0  0  0  0  0  0  0  0  0
  120.4170  104.5864  104.9828 C   0  0  1  0  0  0  0  0  0  0  0  0
  124.6074  104.5214  109.5814 C   0  0  0  0  0  0  0  0  0  0  0  0
  124.5261  105.8105  107.1197 C   0  0  0  0  0  0  0  0  0  0  0  0
  123.1109  105.3065  106.9307 C   0  0  0  0  0  0  0  0  0  0  0  0
  120.2031  103.1373  102.4845 N   0  0  0  0  0  0  0  0  0  0  0  0
  120.6177  105.5992  105.9931 N   0  0  0  0  0  0  0  0  0  0  0  0
  125.5270  103.4121  107.4004 O   0  0  0  0  0  0  0  0  0  0  0  0
  126.7702  105.3748  108.3872 O   0  0  0  0  0  0  0  0  0  0  0  0
  121.9556  107.6524  106.8196 O   0  0  0  0  0  0  0  0  0  0  0  0
  122.6085  106.5077  104.6702 O   0  0  0  0  0  0  0  0  0  0  0  0
  120.9692  105.3882  101.2771 S   0  0  0  0  0  0  0  0  0  0  0  0
  125.5217  104.7036  108.0669 S   0  0  0  0  0  0  0  0  0  0  0  0
  122.0924  106.4480  106.0243 S   0  0  0  0  0  0  0  0  0  0  0  0
  117.8049  104.7708  105.9903 H   0  0  0  0  0  0  0  0  0  0  0  0
  117.3265  103.2752  105.1777 H   0  0  0  0  0  0  0  0  0  0  0  0
  117.9208  104.1138  103.0546 H   0  0  0  0  0  0  0  0  0  0  0  0
  117.5843  105.6559  103.8403 H   0  0  0  0  0  0  0  0  0  0  0  0
  119.6169  103.2542  106.5441 H   0  0  0  0  0  0  0  0  0  0  0  0
  119.6244  102.5752  104.9033 H   0  0  0  0  0  0  0  0  0  0  0  0
  119.8419  106.2258  103.6407 H   0  0  0  0  0  0  0  0  0  0  0  0
  121.4063  104.1481  104.7326 H   0  0  0  0  0  0  0  0  0  0  0  0
  125.1573  103.8438  110.2363 H   0  0  0  0  0  0  0  0  0  0  0  0
  124.5086  105.5044  110.0443 H   0  0  0  0  0  0  0  0  0  0  0  0
  123.6253  104.1101  109.3432 H   0  0  0  0  0  0  0  0  0  0  0  0
  125.0372  105.9665  106.1652 H   0  0  0  0  0  0  0  0  0  0  0  0
  124.5189  106.7553  107.6719 H   0  0  0  0  0  0  0  0  0  0  0  0
  122.6250  105.1765  107.9025 H   0  0  0  0  0  0  0  0  0  0  0  0
  123.0822  104.3535  106.3947 H   0  0  0  0  0  0  0  0  0  0  0  0
  119.7837  102.6214  103.2508 H   0  0  0  0  0  0  0  0  0  0  0  0
  120.5537  102.5879  101.7064 H   0  0  0  0  0  0  0  0  0  0  0  0
  120.1840  105.3683  106.8913 H   0  0  0  0  0  0  0  0  0  0  0  0
  1  5  1  0  0  0  0
  1 10  1  0  0  0  0
  1 16  2  0  0  0  0
  2  3  1  0  0  0  0
  2  4  1  0  0  0  0
  3  5  1  0  0  0  0
  4  6  1  0  0  0  0
  5  6  1  0  0  0  0
  6 11  1  0  0  0  0
  7 17  1  0  0  0  0
  8  9  1  0  0  0  0
  8 17  1  0  0  0  0
  9 18  1  0  0  0  0
 11 18  1  0  0  0  0
 12 17  2  0  0  0  0
 13 17  2  0  0  0  0
 14 18  2  0  0  0  0
 15 18  2  0  0  0  0
  2 19  1  0  0  0  0
  2 20  1  0  0  0  0
  3 21  1  0  0  0  0
  3 22  1  0  0  0  0
  4 23  1  0  0  0  0
  4 24  1  0  0  0  0
  5 25  1  0  0  0  0
  6 26  1  0  0  0  0
  7 27  1  0  0  0  0
  7 28  1  0  0  0  0
  7 29  1  0  0  0  0
  8 30  1  0  0  0  0
  8 31  1  0  0  0  0
  9 32  1  0  0  0  0
  9 33  1  0  0  0  0
 10 34  1  0  0  0  0
 10 35  1  0  0  0  0
 11 36  1  0  0  0  0
M  END
> <FRED Chemgauss4 score>
-7.019466

$$$$
C83440903	P130531180
  -OEChem-05182014473D

 29 29  0     1  0  0  0  0  0999 V2000
  121.5447  106.1495  105.1021 C   0  0  0  0  0  0  0  0  0  0  0  0
  123.4945  106.6676  105.6376 C   0  0  0  0  0  0  0  0  0  0  0  0
  125.1165  107.8444  107.1792 C   0  0  0  0  0  0  0  0  0  0  0  0
  116.2994  105.1939  103.1957 C   0  0  0  0  0  0  0  0  0  0  0  0
  120.2246  106.1602  104.3736 C   0  0  0  0  0  0  0  0  0  0  0  0
  119.9195  104.8004  103.7450 C   0  0  0  0  0  0  0  0  0  0  0  0
  118.6090  104.8222  102.9706 C   0  0  0  0  0  0  0  0  0  0  0  0
  124.8398  107.2464  105.7831 C   0  0  2  0  0  0  0  0  0  0  0  0
  122.5576  107.0080  104.7834 N   0  0  0  0  0  0  0  0  0  0  0  0
  121.7960  105.2992  106.0998 N   0  0  0  0  0  0  0  0  0  0  0  0
  123.0492  105.6516  106.4244 N   0  0  0  0  0  0  0  0  0  0  0  0
  125.1341  108.2568  104.7701 N   0  0  0  0  0  0  0  0  0  0  0  0
  117.5568  105.1745  103.8581 O   0  0  0  0  0  0  0  0  0  0  0  0
  124.3763  108.6168  107.4153 H   0  0  0  0  0  0  0  0  0  0  0  0
  125.0752  107.0830  107.9662 H   0  0  0  0  0  0  0  0  0  0  0  0
  126.1105  108.3031  107.2271 H   0  0  0  0  0  0  0  0  0  0  0  0
  115.5163  105.4679  103.9069 H   0  0  0  0  0  0  0  0  0  0  0  0
  116.0938  104.2071  102.7733 H   0  0  0  0  0  0  0  0  0  0  0  0
  116.3327  105.9326  102.3914 H   0  0  0  0  0  0  0  0  0  0  0  0
  120.2366  106.9348  103.5958 H   0  0  0  0  0  0  0  0  0  0  0  0
  119.4206  106.4375  105.0676 H   0  0  0  0  0  0  0  0  0  0  0  0
  119.8718  104.0211  104.5169 H   0  0  0  0  0  0  0  0  0  0  0  0
  120.7328  104.4957  103.0732 H   0  0  0  0  0  0  0  0  0  0  0  0
  118.6447  105.5603  102.1630 H   0  0  0  0  0  0  0  0  0  0  0  0
  118.3905  103.8376  102.5450 H   0  0  0  0  0  0  0  0  0  0  0  0
  125.6267  106.4785  105.6211 H   0  0  0  0  0  0  0  0  0  0  0  0
  123.5218  105.1631  107.1760 H   0  0  0  0  0  0  0  0  0  0  0  0
  124.7871  108.1102  103.8472 H   0  0  0  0  0  0  0  0  0  0  0  0
  125.8296  108.9400  104.9779 H   0  0  0  0  0  0  0  0  0  0  0  0
  1  5  1  0  0  0  0
  1  9  1  0  0  0  0
  1 10  2  0  0  0  0
  2  8  1  0  0  0  0
  2  9  2  0  0  0  0
  2 11  1  0  0  0  0
  3  8  1  0  0  0  0
  4 13  1  0  0  0  0
  5  6  1  0  0  0  0
  6  7  1  0  0  0  0
  7 13  1  0  0  0  0
  8 12  1  0  0  0  0
 10 11  1  0  0  0  0
  3 14  1  0  0  0  0
  3 15  1  0  0  0  0
  3 16  1  0  0  0  0
  4 17  1  0  0  0  0
  4 18  1  0  0  0  0
  4 19  1  0  0  0  0
  5 20  1  0  0  0  0
  5 21  1  0  0  0  0
  6 22  1  0  0  0  0
  6 23  1  0  0  0  0
  7 24  1  0  0  0  0
  7 25  1  0  0  0  0
  8 26  1  0  0  0  0
 11 27  1  0  0  0  0
 12 28  1  0  0  0  0
 12 29  1  0  0  0  0
M  END
> <FRED Chemgauss4 score>
-7.017319

$$$$
C04334611	P61785085
  -OEChem-05182014473D

 23 23  0     1  0  0  0  0  0999 V2000
  124.1738  107.9760  106.1519 C   0  0  0  0  0  0  0  0  0  0  0  0
  122.9538  107.0533  105.9848 C   0  0  1  0  0  0  0  0  0  0  0  0
  125.4201  107.2340  106.6618 C   0  0  2  0  0  0  0  0  0  0  0  0
  123.3565  105.5754  105.9623 C   0  0  1  0  0  0  0  0  0  0  0  0
  125.0861  106.2024  107.7418 C   0  0  2  0  0  0  0  0  0  0  0  0
  124.0980  105.1477  107.2327 C   0  0  0  0  0  0  0  0  0  0  0  0
  124.5137  108.5363  104.8801 O   0  0  0  0  0  0  0  0  0  0  0  0
  122.0417  107.2862  107.0624 O   0  0  0  0  0  0  0  0  0  0  0  0
  126.3400  108.1970  107.1767 O   0  0  0  0  0  0  0  0  0  0  0  0
  122.1848  104.7768  105.8078 O   0  0  0  0  0  0  0  0  0  0  0  0
  124.5153  106.8757  108.8654 O   0  0  0  0  0  0  0  0  0  0  0  0
  124.8074  104.0196  106.9260 F   0  0  0  0  0  0  0  0  0  0  0  0
  123.9321  108.7878  106.8316 H   0  0  0  0  0  0  0  0  0  0  0  0
  122.4205  107.2939  105.0574 H   0  0  0  0  0  0  0  0  0  0  0  0
  125.9286  106.7296  105.8273 H   0  0  0  0  0  0  0  0  0  0  0  0
  123.9939  105.3792  105.0936 H   0  0  0  0  0  0  0  0  0  0  0  0
  125.9966  105.7109  108.0880 H   0  0  0  0  0  0  0  0  0  0  0  0
  123.3911  104.8413  108.0248 H   0  0  0  0  0  0  0  0  0  0  0  0
  123.7374  109.0350  104.5810 H   0  0  0  0  0  0  0  0  0  0  0  0
  121.7854  108.2190  107.0071 H   0  0  0  0  0  0  0  0  0  0  0  0
  127.1113  107.7000  107.4888 H   0  0  0  0  0  0  0  0  0  0  0  0
  121.7795  105.0416  104.9678 H   0  0  0  0  0  0  0  0  0  0  0  0
  124.3181  106.1928  109.5248 H   0  0  0  0  0  0  0  0  0  0  0  0
  1  2  1  0  0  0  0
  1  3  1  0  0  0  0
  1  7  1  0  0  0  0
  2  4  1  0  0  0  0
  2  8  1  0  0  0  0
  3  5  1  0  0  0  0
  3  9  1  0  0  0  0
  4  6  1  0  0  0  0
  4 10  1  0  0  0  0
  5  6  1  0  0  0  0
  5 11  1  0  0  0  0
  6 12  1  0  0  0  0
  1 13  1  0  0  0  0
  2 14  1  0  0  0  0
  3 15  1  0  0  0  0
  4 16  1  0  0  0  0
  5 17  1  0  0  0  0
  6 18  1  0  0  0  0
  7 19  1  0  0  0  0
  8 20  1  0  0  0  0
  9 21  1  0  0  0  0
 10 22  1  0  0  0  0
 11 23  1  0  0  0  0
M  END
> <FRED Chemgauss4 score>
-7.009883

$$$$
C85790865	P134349332
  -OEChem-05182014473D

 34 34  0     1  0  0  0  0  0999 V2000
  117.1699  105.6891  104.3878 C   0  0  0  0  0  0  0  0  0  0  0  0
  119.2669  105.3703  103.2482 C   0  0  0  0  0  0  0  0  0  0  0  0
  117.8833  106.5890  105.3921 C   0  0  0  0  0  0  0  0  0  0  0  0
  119.9385  106.2857  104.2789 C   0  0  2  0  0  0  0  0  0  0  0  0
  117.1926  104.8890  102.1125 C   0  0  0  0  0  0  0  0  0  0  0  0
  121.3856  105.8755  104.5156 C   0  0  0  0  0  0  0  0  0  0  0  0
  123.3473  106.5216  105.7401 C   0  0  0  0  0  0  0  0  0  0  0  0
  125.3824  107.4206  106.9897 C   0  0  0  0  0  0  0  0  0  0  0  0
  124.3292  107.6799  105.9168 C   0  0  1  0  0  0  0  0  0  0  0  0
  117.8552  105.7506  103.0896 N   0  0  1  0  0  0  0  0  0  0  0  0
  122.1144  106.9643  105.0778 N   0  0  0  0  0  0  0  0  0  0  0  0
  119.2488  106.1954  105.5307 O   0  0  0  0  0  0  0  0  0  0  0  0
  125.9509  108.6649  107.3866 O   0  0  0  0  0  0  0  0  0  0  0  0
  124.9993  107.9354  104.6818 O   0  0  0  0  0  0  0  0  0  0  0  0
  117.1595  104.6580  104.7645 H   0  0  0  0  0  0  0  0  0  0  0  0
  116.1313  106.0239  104.2856 H   0  0  0  0  0  0  0  0  0  0  0  0
  119.7893  105.4632  102.2886 H   0  0  0  0  0  0  0  0  0  0  0  0
  119.3402  104.3236  103.5730 H   0  0  0  0  0  0  0  0  0  0  0  0
  117.8342  107.6443  105.0968 H   0  0  0  0  0  0  0  0  0  0  0  0
  117.4100  106.4984  106.3749 H   0  0  0  0  0  0  0  0  0  0  0  0
  119.9209  107.3291  103.9386 H   0  0  0  0  0  0  0  0  0  0  0  0
  117.7108  104.9430  101.1516 H   0  0  0  0  0  0  0  0  0  0  0  0
  116.1555  105.2055  101.9714 H   0  0  0  0  0  0  0  0  0  0  0  0
  117.1985  103.8517  102.4578 H   0  0  0  0  0  0  0  0  0  0  0  0
  121.8327  105.5999  103.5679 H   0  0  0  0  0  0  0  0  0  0  0  0
  121.4110  105.0386  105.2026 H   0  0  0  0  0  0  0  0  0  0  0  0
  123.8019  105.7362  105.1270 H   0  0  0  0  0  0  0  0  0  0  0  0
  123.0964  106.0854  106.7126 H   0  0  0  0  0  0  0  0  0  0  0  0
  126.1877  106.7871  106.6054 H   0  0  0  0  0  0  0  0  0  0  0  0
  124.9437  106.9590  107.8801 H   0  0  0  0  0  0  0  0  0  0  0  0
  123.7730  108.5913  106.1662 H   0  0  0  0  0  0  0  0  0  0  0  0
  121.5446  107.4657  105.7746 H   0  0  0  0  0  0  0  0  0  0  0  0
  126.6129  108.4627  108.0662 H   0  0  0  0  0  0  0  0  0  0  0  0
  124.3106  108.1613  104.0388 H   0  0  0  0  0  0  0  0  0  0  0  0
  1  3  1  0  0  0  0
  1 10  1  0  0  0  0
  2  4  1  0  0  0  0
  2 10  1  0  0  0  0
  3 12  1  0  0  0  0
  4  6  1  0  0  0  0
  4 12  1  0  0  0  0
  5 10  1  0  0  0  0
  6 11  1  0  0  0  0
  7  9  1  0  0  0  0
  7 11  1  0  0  0  0
  8  9  1  0  0  0  0
  8 13  1  0  0  0  0
  9 14  1  0  0  0  0
  1 15  1  0  0  0  0
  1 16  1  0  0  0  0
  2 17  1  0  0  0  0
  2 18  1  0  0  0  0
  3 19  1  0  0  0  0
  3 20  1  0  0  0  0
  4 21  1  0  0  0  0
  5 22  1  0  0  0  0
  5 23  1  0  0  0  0
  5 24  1  0  0  0  0
  6 25  1  0  0  0  0
  6 26  1  0  0  0  0
  7 27  1  0  0  0  0
  7 28  1  0  0  0  0
  8 29  1  0  0  0  0
  8 30  1  0  0  0  0
  9 31  1  0  0  0  0
 11 32  1  0  0  0  0
 13 33  1  0  0  0  0
 14 34  1  0  0  0  0
M  END
> <FRED Chemgauss4 score>
-7.008955

$$$$
C04403143	P05907347
  -OEChem-05182014473D

 30 30  0     1  0  0  0  0  0999 V2000
  125.9426  105.9855  107.1319 C   0  0  0  0  0  0  0  0  0  0  0  0
  125.7394  105.7401  108.6050 C   0  0  2  0  0  0  0  0  0  0  0  0
  124.2756  106.0906  108.7759 C   0  0  2  0  0  0  0  0  0  0  0  0
  123.7030  105.5872  107.4605 C   0  0  1  0  0  0  0  0  0  0  0  0
  119.5171  105.4124  104.5313 C   0  0  0  0  0  0  0  0  0  0  0  0
  122.4055  106.2450  107.0109 C   0  0  2  0  0  0  0  0  0  0  0  0
  120.5907  106.2944  105.1675 C   0  0  1  0  0  0  0  0  0  0  0  0
  121.6614  105.4762  105.9054 C   0  0  2  0  0  0  0  0  0  0  0  0
  127.0011  106.2416  106.5813 O   0  0  0  0  0  0  0  0  0  0  0  0
  124.7347  105.8652  106.4929 O   0  0  0  0  0  0  0  0  0  0  0  0
  126.5824  106.5028  109.4256 O   0  0  0  0  0  0  0  0  0  0  0  0
  124.1359  107.5026  108.9003 O   0  0  0  0  0  0  0  0  0  0  0  0
  118.5713  105.0480  105.5319 O   0  0  0  0  0  0  0  0  0  0  0  0
  122.7214  107.5506  106.5160 O   0  0  0  0  0  0  0  0  0  0  0  0
  121.2177  107.0605  104.1372 O   0  0  0  0  0  0  0  0  0  0  0  0
  121.0301  104.3412  106.5102 O   0  0  0  0  0  0  0  0  0  0  0  0
  125.9084  104.6736  108.7949 H   0  0  0  0  0  0  0  0  0  0  0  0
  123.8264  105.6237  109.6574 H   0  0  0  0  0  0  0  0  0  0  0  0
  123.5719  104.4983  107.4879 H   0  0  0  0  0  0  0  0  0  0  0  0
  118.9847  105.9498  103.7407 H   0  0  0  0  0  0  0  0  0  0  0  0
  119.9439  104.4889  104.1272 H   0  0  0  0  0  0  0  0  0  0  0  0
  121.7498  106.3986  107.8750 H   0  0  0  0  0  0  0  0  0  0  0  0
  120.1186  107.0057  105.8543 H   0  0  0  0  0  0  0  0  0  0  0  0
  122.3792  105.0794  105.1768 H   0  0  0  0  0  0  0  0  0  0  0  0
  127.5051  106.2733  109.2025 H   0  0  0  0  0  0  0  0  0  0  0  0
  123.1880  107.6789  109.0070 H   0  0  0  0  0  0  0  0  0  0  0  0
  117.9073  104.4913  105.0959 H   0  0  0  0  0  0  0  0  0  0  0  0
  121.8818  107.9443  106.2382 H   0  0  0  0  0  0  0  0  0  0  0  0
  120.5184  107.5924  103.7291 H   0  0  0  0  0  0  0  0  0  0  0  0
  121.7418  103.8137  106.8996 H   0  0  0  0  0  0  0  0  0  0  0  0
  1  2  1  0  0  0  0
  1  9  2  0  0  0  0
  1 10  1  0  0  0  0
  2  3  1  0  0  0  0
  2 11  1  0  0  0  0
  3  4  1  0  0  0  0
  3 12  1  0  0  0  0
  4  6  1  0  0  0  0
  4 10  1  0  0  0  0
  5  7  1  0  0  0  0
  5 13  1  0  0  0  0
  6  8  1  0  0  0  0
  6 14  1  0  0  0  0
  7  8  1  0  0  0  0
  7 15  1  0  0  0  0
  8 16  1  0  0  0  0
  2 17  1  0  0  0  0
  3 18  1  0  0  0  0
  4 19  1  0  0  0  0
  5 20  1  0  0  0  0
  5 21  1  0  0  0  0
  6 22  1  0  0  0  0
  7 23  1  0  0  0  0
  8 24  1  0  0  0  0
 11 25  1  0  0  0  0
 12 26  1  0  0  0  0
 13 27  1  0  0  0  0
 14 28  1  0  0  0  0
 15 29  1  0  0  0  0
 16 30  1  0  0  0  0
M  END
> <FRED Chemgauss4 score>
-7.003890

$$$$
C36872464	P54806293
  -OEChem-05182014473D

 29 30  0     1  0  0  0  0  0999 V2000
  119.3978  104.4524  102.0306 C   0  0  0  0  0  0  0  0  0  0  0  0
  120.5321  104.6281  102.8152 C   0  0  0  0  0  0  0  0  0  0  0  0
  118.1707  104.7870  102.5804 C   0  0  0  0  0  0  0  0  0  0  0  0
  119.1344  105.4306  104.5641 C   0  0  0  0  0  0  0  0  0  0  0  0
  122.0734  104.3701  105.7894 C   0  0  0  0  0  0  0  0  0  0  0  0
  120.4066  105.1260  104.1074 C   0  0  0  0  0  0  0  0  0  0  0  0
  121.5541  105.3172  104.9386 C   0  0  0  0  0  0  0  0  0  0  0  0
  123.2357  106.2412  105.8601 C   0  0  0  0  0  0  0  0  0  0  0  0
  124.8281  109.4478  107.3786 C   0  0  0  0  0  0  0  0  0  0  0  0
  123.7462  108.4705  106.9354 C   0  0  0  0  0  0  0  0  0  0  0  0
  124.3271  107.1971  106.2971 C   0  0  2  0  0  0  0  0  0  0  0  0
  118.0092  105.2733  103.8314 N   0  0  0  0  0  0  0  0  0  0  0  0
  122.2823  106.4795  104.9870 N   0  0  0  0  0  0  0  0  0  0  0  0
  123.1504  104.9764  106.3723 N   0  0  0  0  0  0  0  0  0  0  0  0
  125.2003  107.5164  105.1898 N   0  0  0  0  0  0  0  0  0  0  0  0
  119.4719  104.0652  101.0208 H   0  0  0  0  0  0  0  0  0  0  0  0
  121.5064  104.3729  102.4061 H   0  0  0  0  0  0  0  0  0  0  0  0
  117.2562  104.6679  102.0090 H   0  0  0  0  0  0  0  0  0  0  0  0
  118.9682  105.8225  105.5637 H   0  0  0  0  0  0  0  0  0  0  0  0
  121.7905  103.3544  106.0293 H   0  0  0  0  0  0  0  0  0  0  0  0
  125.4744  109.7242  106.5396 H   0  0  0  0  0  0  0  0  0  0  0  0
  124.3712  110.3626  107.7694 H   0  0  0  0  0  0  0  0  0  0  0  0
  125.4525  109.0207  108.1694 H   0  0  0  0  0  0  0  0  0  0  0  0
  123.1233  108.2206  107.8034 H   0  0  0  0  0  0  0  0  0  0  0  0
  123.0950  108.9810  106.2144 H   0  0  0  0  0  0  0  0  0  0  0  0
  124.9647  106.6971  107.0369 H   0  0  0  0  0  0  0  0  0  0  0  0
  123.7695  104.5629  107.0570 H   0  0  0  0  0  0  0  0  0  0  0  0
  125.3900  106.8084  104.5039 H   0  0  0  0  0  0  0  0  0  0  0  0
  125.7527  108.3533  105.2355 H   0  0  0  0  0  0  0  0  0  0  0  0
  1  2  2  0  0  0  0
  1  3  1  0  0  0  0
  2  6  1  0  0  0  0
  3 12  2  0  0  0  0
  4  6  2  0  0  0  0
  4 12  1  0  0  0  0
  5  7  2  0  0  0  0
  5 14  1  0  0  0  0
  6  7  1  0  0  0  0
  7 13  1  0  0  0  0
  8 11  1  0  0  0  0
  8 13  2  0  0  0  0
  8 14  1  0  0  0  0
  9 10  1  0  0  0  0
 10 11  1  0  0  0  0
 11 15  1  0  0  0  0
  1 16  1  0  0  0  0
  2 17  1  0  0  0  0
  3 18  1  0  0  0  0
  4 19  1  0  0  0  0
  5 20  1  0  0  0  0
  9 21  1  0  0  0  0
  9 22  1  0  0  0  0
  9 23  1  0  0  0  0
 10 24  1  0  0  0  0
 10 25  1  0  0  0  0
 11 26  1  0  0  0  0
 14 27  1  0  0  0  0
 15 28  1  0  0  0  0
 15 29  1  0  0  0  0
M  END
> <FRED Chemgauss4 score>
-6.996750

$$$$
C84405529	P132100048
  -OEChem-05182014473D

 27 27  0     1  0  0  0  0  0999 V2000
  118.5499  104.5964  103.3788 C   0  0  0  0  0  0  0  0  0  0  0  0
  125.1102  106.9637  106.4021 C   0  0  0  0  0  0  0  0  0  0  0  0
  122.7847  106.6167  105.5268 C   0  0  0  0  0  0  0  0  0  0  0  0
  125.0010  105.6785  107.1874 C   0  0  0  0  0  0  0  0  0  0  0  0
  123.5618  105.3783  107.5646 C   0  0  0  0  0  0  0  0  0  0  0  0
  122.7124  105.3152  106.3058 C   0  0  1  0  0  0  0  0  0  0  0  0
  118.4012  103.7169  104.5464 C   0  0  0  0  0  0  0  0  0  0  0  0
  119.1482  104.2815  105.7568 C   0  0  0  0  0  0  0  0  0  0  0  0
  120.6327  104.4978  105.4816 C   0  0  0  0  0  0  0  0  0  0  0  0
  118.6659  105.2899  102.4558 N   0  0  0  0  0  0  0  0  0  0  0  0
  123.9949  107.2997  105.6407 N   0  0  0  0  0  0  0  0  0  0  0  0
  121.3331  105.0594  106.6265 N   0  0  0  0  0  0  0  0  0  0  0  0
  126.1439  107.6318  106.4051 O   0  0  0  0  0  0  0  0  0  0  0  0
  121.8773  107.0037  104.7906 O   0  0  0  0  0  0  0  0  0  0  0  0
  125.4223  104.8707  106.5785 H   0  0  0  0  0  0  0  0  0  0  0  0
  125.6068  105.7734  108.0950 H   0  0  0  0  0  0  0  0  0  0  0  0
  123.5163  104.4283  108.1102 H   0  0  0  0  0  0  0  0  0  0  0  0
  123.1927  106.1615  108.2405 H   0  0  0  0  0  0  0  0  0  0  0  0
  123.0838  104.5216  105.6382 H   0  0  0  0  0  0  0  0  0  0  0  0
  117.3363  103.6025  104.7777 H   0  0  0  0  0  0  0  0  0  0  0  0
  118.7876  102.7204  104.3031 H   0  0  0  0  0  0  0  0  0  0  0  0
  119.0238  103.6097  106.6160 H   0  0  0  0  0  0  0  0  0  0  0  0
  118.7024  105.2432  106.0417 H   0  0  0  0  0  0  0  0  0  0  0  0
  121.1278  103.5597  105.2120 H   0  0  0  0  0  0  0  0  0  0  0  0
  120.7608  105.2008  104.6524 H   0  0  0  0  0  0  0  0  0  0  0  0
  124.0690  108.1595  105.1036 H   0  0  0  0  0  0  0  0  0  0  0  0
  121.2904  104.4039  107.4044 H   0  0  0  0  0  0  0  0  0  0  0  0
  1  7  1  0  0  0  0
  1 10  3  0  0  0  0
  2  4  1  0  0  0  0
  2 11  1  0  0  0  0
  2 13  2  0  0  0  0
  3  6  1  0  0  0  0
  3 11  1  0  0  0  0
  3 14  2  0  0  0  0
  4  5  1  0  0  0  0
  5  6  1  0  0  0  0
  6 12  1  0  0  0  0
  7  8  1  0  0  0  0
  8  9  1  0  0  0  0
  9 12  1  0  0  0  0
  4 15  1  0  0  0  0
  4 16  1  0  0  0  0
  5 17  1  0  0  0  0
  5 18  1  0  0  0  0
  6 19  1  0  0  0  0
  7 20  1  0  0  0  0
  7 21  1  0  0  0  0
  8 22  1  0  0  0  0
  8 23  1  0  0  0  0
  9 24  1  0  0  0  0
  9 25  1  0  0  0  0
 11 26  1  0  0  0  0
 12 27  1  0  0  0  0
M  END
> <FRED Chemgauss4 score>
-6.995678

$$$$
C51003953	P128525420
  -OEChem-05182014473D

 24 24  0     0  0  0  0  0  0999 V2000
  121.6713  106.4057  106.4212 C   0  0  0  0  0  0  0  0  0  0  0  0
  122.3988  105.4813  107.1331 C   0  0  0  0  0  0  0  0  0  0  0  0
  123.6799  106.6252  105.7521 C   0  0  0  0  0  0  0  0  0  0  0  0
  124.9109  107.0573  105.0594 C   0  0  0  0  0  0  0  0  0  0  0  0
  125.0545  104.9372  108.6669 C   0  0  0  0  0  0  0  0  0  0  0  0
  124.8358  104.8691  107.1559 C   0  0  0  0  0  0  0  0  0  0  0  0
  125.3456  106.3447  109.1726 C   0  0  0  0  0  0  0  0  0  0  0  0
  122.4745  107.1143  105.5631 N   0  0  0  0  0  0  0  0  0  0  0  0
  123.6836  105.6335  106.6933 N   0  0  0  0  0  0  0  0  0  0  0  0
  125.7673  107.8733  105.8918 N   0  0  0  0  0  0  0  0  0  0  0  0
  126.5370  106.8140  108.5548 O   0  0  0  0  0  0  0  0  0  0  0  0
  120.6099  106.5969  106.4829 H   0  0  0  0  0  0  0  0  0  0  0  0
  122.1229  104.7561  107.8858 H   0  0  0  0  0  0  0  0  0  0  0  0
  125.5169  106.1970  104.7246 H   0  0  0  0  0  0  0  0  0  0  0  0
  124.6938  107.6487  104.1528 H   0  0  0  0  0  0  0  0  0  0  0  0
  125.8968  104.2860  108.9331 H   0  0  0  0  0  0  0  0  0  0  0  0
  124.1880  104.5313  109.2041 H   0  0  0  0  0  0  0  0  0  0  0  0
  125.7237  105.2207  106.6175 H   0  0  0  0  0  0  0  0  0  0  0  0
  124.6696  103.8291  106.8489 H   0  0  0  0  0  0  0  0  0  0  0  0
  125.4964  106.3551  110.2562 H   0  0  0  0  0  0  0  0  0  0  0  0
  124.5297  107.0282  108.9174 H   0  0  0  0  0  0  0  0  0  0  0  0
  126.3836  108.5317  105.4516 H   0  0  0  0  0  0  0  0  0  0  0  0
  125.8773  107.6275  106.8587 H   0  0  0  0  0  0  0  0  0  0  0  0
  126.6950  107.7091  108.8959 H   0  0  0  0  0  0  0  0  0  0  0  0
  1  2  2  0  0  0  0
  1  8  1  0  0  0  0
  2  9  1  0  0  0  0
  3  4  1  0  0  0  0
  3  8  2  0  0  0  0
  3  9  1  0  0  0  0
  4 10  1  0  0  0  0
  5  6  1  0  0  0  0
  5  7  1  0  0  0  0
  6  9  1  0  0  0  0
  7 11  1  0  0  0  0
  1 12  1  0  0  0  0
  2 13  1  0  0  0  0
  4 14  1  0  0  0  0
  4 15  1  0  0  0  0
  5 16  1  0  0  0  0
  5 17  1  0  0  0  0
  6 18  1  0  0  0  0
  6 19  1  0  0  0  0
  7 20  1  0  0  0  0
  7 21  1  0  0  0  0
 10 22  1  0  0  0  0
 10 23  1  0  0  0  0
 11 24  1  0  0  0  0
M  END
> <FRED Chemgauss4 score>
-6.990457

$$$$
C58195219	P87824751
  -OEChem-05182014473D

 40 42  0     1  0  0  0  0  0999 V2000
  117.0507  107.6787  106.8220 C   0  0  0  0  0  0  0  0  0  0  0  0
  116.2129  106.8652  104.7071 C   0  0  0  0  0  0  0  0  0  0  0  0
  115.7594  107.6416  107.3479 C   0  0  0  0  0  0  0  0  0  0  0  0
  114.9215  106.8280  105.2330 C   0  0  0  0  0  0  0  0  0  0  0  0
  124.3018  106.3346  107.9635 C   0  0  0  0  0  0  0  0  0  0  0  0
  125.2523  105.5210  108.5302 C   0  0  0  0  0  0  0  0  0  0  0  0
  117.2775  107.2906  105.5016 C   0  0  0  0  0  0  0  0  0  0  0  0
  114.6947  107.2162  106.5534 C   0  0  0  0  0  0  0  0  0  0  0  0
  124.8051  106.6233  106.6809 C   0  0  0  0  0  0  0  0  0  0  0  0
  118.6388  107.3298  104.9472 C   0  0  0  0  0  0  0  0  0  0  0  0
  121.7601  106.9125  105.3897 C   0  0  0  0  0  0  0  0  0  0  0  0
  120.3237  104.1464  105.8372 C   0  0  0  0  0  0  0  0  0  0  0  0
  121.1470  104.6422  104.6514 C   0  0  0  0  0  0  0  0  0  0  0  0
  119.0242  104.9247  105.7023 C   0  0  0  0  0  0  0  0  0  0  0  0
  120.7737  106.1175  104.5548 C   0  0  1  0  0  0  0  0  0  0  0  0
  124.1708  107.4762  105.6205 C   0  0  0  0  0  0  0  0  0  0  0  0
  125.9839  106.0406  106.4464 N   0  0  0  0  0  0  0  0  0  0  0  0
  126.2292  105.3777  107.5894 N   0  0  0  0  0  0  0  0  0  0  0  0
  119.4150  106.1877  105.0789 N   0  0  0  0  0  0  0  0  0  0  0  0
  123.0716  106.8008  104.9689 N   0  0  0  0  0  0  0  0  0  0  0  0
  119.0004  108.3776  104.4157 O   0  0  0  0  0  0  0  0  0  0  0  0
  121.3539  107.5736  106.3382 O   0  0  0  0  0  0  0  0  0  0  0  0
  112.9451  107.1658  107.2660 Br  0  0  0  0  0  0  0  0  0  0  0  0
  117.8731  108.0119  107.4500 H   0  0  0  0  0  0  0  0  0  0  0  0
  116.3783  106.5605  103.6768 H   0  0  0  0  0  0  0  0  0  0  0  0
  115.5997  107.9474  108.3787 H   0  0  0  0  0  0  0  0  0  0  0  0
  114.1029  106.4940  104.6006 H   0  0  0  0  0  0  0  0  0  0  0  0
  123.3799  106.6678  108.4174 H   0  0  0  0  0  0  0  0  0  0  0  0
  125.3199  105.0425  109.4966 H   0  0  0  0  0  0  0  0  0  0  0  0
  120.1678  103.0641  105.8239 H   0  0  0  0  0  0  0  0  0  0  0  0
  120.8243  104.4061  106.7774 H   0  0  0  0  0  0  0  0  0  0  0  0
  122.2184  104.4682  104.7898 H   0  0  0  0  0  0  0  0  0  0  0  0
  120.8267  104.1177  103.7429 H   0  0  0  0  0  0  0  0  0  0  0  0
  118.3229  104.4190  105.0293 H   0  0  0  0  0  0  0  0  0  0  0  0
  118.5341  105.0996  106.6645 H   0  0  0  0  0  0  0  0  0  0  0  0
  120.8302  106.4838  103.5166 H   0  0  0  0  0  0  0  0  0  0  0  0
  123.7866  108.4068  106.0523 H   0  0  0  0  0  0  0  0  0  0  0  0
  124.8987  107.7514  104.8500 H   0  0  0  0  0  0  0  0  0  0  0  0
  127.0865  104.8439  107.6599 H   0  0  0  0  0  0  0  0  0  0  0  0
  123.2728  106.2162  104.1633 H   0  0  0  0  0  0  0  0  0  0  0  0
  1  3  1  0  0  0  0
  1  7  2  0  0  0  0
  2  4  2  0  0  0  0
  2  7  1  0  0  0  0
  3  8  2  0  0  0  0
  4  8  1  0  0  0  0
  5  6  2  0  0  0  0
  5  9  1  0  0  0  0
  6 18  1  0  0  0  0
  7 10  1  0  0  0  0
  8 23  1  0  0  0  0
  9 16  1  0  0  0  0
  9 17  2  0  0  0  0
 10 19  1  0  0  0  0
 10 21  2  0  0  0  0
 11 15  1  0  0  0  0
 11 20  1  0  0  0  0
 11 22  2  0  0  0  0
 12 13  1  0  0  0  0
 12 14  1  0  0  0  0
 13 15  1  0  0  0  0
 14 19  1  0  0  0  0
 15 19  1  0  0  0  0
 16 20  1  0  0  0  0
 17 18  1  0  0  0  0
  1 24  1  0  0  0  0
  2 25  1  0  0  0  0
  3 26  1  0  0  0  0
  4 27  1  0  0  0  0
  5 28  1  0  0  0  0
  6 29  1  0  0  0  0
 12 30  1  0  0  0  0
 12 31  1  0  0  0  0
 13 32  1  0  0  0  0
 13 33  1  0  0  0  0
 14 34  1  0  0  0  0
 14 35  1  0  0  0  0
 15 36  1  0  0  0  0
 16 37  1  0  0  0  0
 16 38  1  0  0  0  0
 18 39  1  0  0  0  0
 20 40  1  0  0  0  0
M  END
> <FRED Chemgauss4 score>
-6.989256

$$$$
C87427527	P136769775
  -OEChem-05182014473D

 36 37  0     0  0  0  0  0  0999 V2000
  125.4199  104.4842  108.2535 C   0  0  0  0  0  0  0  0  0  0  0  0
  124.2604  104.1638  107.5474 C   0  0  0  0  0  0  0  0  0  0  0  0
  126.0706  105.6945  108.0136 C   0  0  0  0  0  0  0  0  0  0  0  0
  124.4025  106.2639  106.3613 C   0  0  0  0  0  0  0  0  0  0  0  0
  123.7518  105.0536  106.6012 C   0  0  0  0  0  0  0  0  0  0  0  0
  125.5619  106.5843  107.0675 C   0  0  0  0  0  0  0  0  0  0  0  0
  119.5924  107.0478  105.6714 C   0  0  0  0  0  0  0  0  0  0  0  0
  118.4879  106.4449  105.1033 C   0  0  0  0  0  0  0  0  0  0  0  0
  121.0113  106.6606  105.7159 C   0  0  0  0  0  0  0  0  0  0  0  0
  121.1904  105.3173  108.7456 C   0  0  0  0  0  0  0  0  0  0  0  0
  118.4749  105.1734  104.3524 C   0  0  0  0  0  0  0  0  0  0  0  0
  122.5126  104.7104  105.8460 C   0  0  0  0  0  0  0  0  0  0  0  0
  120.6230  104.8327  107.4314 C   0  0  0  0  0  0  0  0  0  0  0  0
  117.2877  107.1170  105.2727 N   0  0  0  0  0  0  0  0  0  0  0  0
  117.4498  108.2331  105.9654 N   0  0  0  0  0  0  0  0  0  0  0  0
  126.2198  107.8082  106.8253 N   0  0  0  0  0  0  0  0  0  0  0  0
  121.6527  104.2825  109.5300 N   0  0  0  0  0  0  0  0  0  0  0  0
  121.3632  105.4398  106.3185 N   0  0  0  0  0  0  0  0  0  0  0  0
  121.8060  107.4442  105.1977 O   0  0  0  0  0  0  0  0  0  0  0  0
  121.2735  106.5012  109.0613 O   0  0  0  0  0  0  0  0  0  0  0  0
  119.0413  108.4897  106.4211 S   0  0  0  0  0  0  0  0  0  0  0  0
  125.8159  103.7913  108.9904 H   0  0  0  0  0  0  0  0  0  0  0  0
  123.7598  103.2185  107.7408 H   0  0  0  0  0  0  0  0  0  0  0  0
  126.9733  105.9342  108.5698 H   0  0  0  0  0  0  0  0  0  0  0  0
  124.0044  106.9566  105.6234 H   0  0  0  0  0  0  0  0  0  0  0  0
  118.3025  104.3175  105.0248 H   0  0  0  0  0  0  0  0  0  0  0  0
  117.6871  105.1577  103.5803 H   0  0  0  0  0  0  0  0  0  0  0  0
  119.4259  104.9974  103.8216 H   0  0  0  0  0  0  0  0  0  0  0  0
  122.6267  104.9322  104.7756 H   0  0  0  0  0  0  0  0  0  0  0  0
  122.2761  103.6403  105.9244 H   0  0  0  0  0  0  0  0  0  0  0  0
  119.5713  105.1145  107.3324 H   0  0  0  0  0  0  0  0  0  0  0  0
  120.7259  103.7460  107.3672 H   0  0  0  0  0  0  0  0  0  0  0  0
  127.0226  108.0470  107.3715 H   0  0  0  0  0  0  0  0  0  0  0  0
  125.8191  108.4575  106.1790 H   0  0  0  0  0  0  0  0  0  0  0  0
  121.5949  103.3209  109.2115 H   0  0  0  0  0  0  0  0  0  0  0  0
  122.0655  104.4358  110.4445 H   0  0  0  0  0  0  0  0  0  0  0  0
  1  2  2  0  0  0  0
  1  3  1  0  0  0  0
  2  5  1  0  0  0  0
  3  6  2  0  0  0  0
  4  5  2  0  0  0  0
  4  6  1  0  0  0  0
  5 12  1  0  0  0  0
  6 16  1  0  0  0  0
  7  8  2  0  0  0  0
  7  9  1  0  0  0  0
  7 21  1  0  0  0  0
  8 11  1  0  0  0  0
  8 14  1  0  0  0  0
  9 18  1  0  0  0  0
  9 19  2  0  0  0  0
 10 13  1  0  0  0  0
 10 17  1  0  0  0  0
 10 20  2  0  0  0  0
 12 18  1  0  0  0  0
 13 18  1  0  0  0  0
 14 15  2  0  0  0  0
 15 21  1  0  0  0  0
  1 22  1  0  0  0  0
  2 23  1  0  0  0  0
  3 24  1  0  0  0  0
  4 25  1  0  0  0  0
 11 26  1  0  0  0  0
 11 27  1  0  0  0  0
 11 28  1  0  0  0  0
 12 29  1  0  0  0  0
 12 30  1  0  0  0  0
 13 31  1  0  0  0  0
 13 32  1  0  0  0  0
 16 33  1  0  0  0  0
 16 34  1  0  0  0  0
 17 35  1  0  0  0  0
 17 36  1  0  0  0  0
M  END
> <FRED Chemgauss4 score>
-6.989005

$$$$
C85419065	P133674711
  -OEChem-05182014473D

 24 24  0     1  0  0  0  0  0999 V2000
  125.5800  105.6095  108.3947 C   0  0  0  0  0  0  0  0  0  0  0  0
  123.5282  105.9796  106.2242 C   0  0  0  0  0  0  0  0  0  0  0  0
  124.6194  106.7834  106.4392 C   0  0  0  0  0  0  0  0  0  0  0  0
  121.4439  105.0737  104.0512 C   0  0  0  0  0  0  0  0  0  0  0  0
  121.4340  106.3712  104.8587 C   0  0  0  0  0  0  0  0  0  0  0  0
  120.0689  104.6768  103.5283 C   0  0  0  0  0  0  0  0  0  0  0  0
  125.8214  106.5161  107.2394 C   0  0  2  0  0  0  0  0  0  0  0  0
  125.3616  104.9032  109.2893 N   0  0  0  0  0  0  0  0  0  0  0  0
  124.4597  107.9641  105.7683 N   0  0  0  0  0  0  0  0  0  0  0  0
  123.2915  107.9202  105.1372 N   0  0  0  0  0  0  0  0  0  0  0  0
  122.7345  106.7296  105.4119 N   0  0  0  0  0  0  0  0  0  0  0  0
  126.9263  105.9779  106.4500 N   0  0  0  0  0  0  0  0  0  0  0  0
  120.1954  103.4758  102.7779 O   0  0  0  0  0  0  0  0  0  0  0  0
  123.2602  104.9879  106.5602 H   0  0  0  0  0  0  0  0  0  0  0  0
  121.8267  104.2640  104.6855 H   0  0  0  0  0  0  0  0  0  0  0  0
  122.1447  105.1444  103.2099 H   0  0  0  0  0  0  0  0  0  0  0  0
  121.0750  107.2077  104.2477 H   0  0  0  0  0  0  0  0  0  0  0  0
  120.7441  106.2784  105.7065 H   0  0  0  0  0  0  0  0  0  0  0  0
  119.6552  105.4476  102.8712 H   0  0  0  0  0  0  0  0  0  0  0  0
  119.3732  104.4984  104.3543 H   0  0  0  0  0  0  0  0  0  0  0  0
  126.2464  107.4529  107.6623 H   0  0  0  0  0  0  0  0  0  0  0  0
  127.6219  105.4420  106.9217 H   0  0  0  0  0  0  0  0  0  0  0  0
  127.0564  106.3286  105.5260 H   0  0  0  0  0  0  0  0  0  0  0  0
  119.3065  103.2500  102.4597 H   0  0  0  0  0  0  0  0  0  0  0  0
  1  7  1  0  0  0  0
  1  8  3  0  0  0  0
  2  3  2  0  0  0  0
  2 11  1  0  0  0  0
  3  7  1  0  0  0  0
  3  9  1  0  0  0  0
  4  5  1  0  0  0  0
  4  6  1  0  0  0  0
  5 11  1  0  0  0  0
  6 13  1  0  0  0  0
  7 12  1  0  0  0  0
  9 10  2  0  0  0  0
 10 11  1  0  0  0  0
  2 14  1  0  0  0  0
  4 15  1  0  0  0  0
  4 16  1  0  0  0  0
  5 17  1  0  0  0  0
  5 18  1  0  0  0  0
  6 19  1  0  0  0  0
  6 20  1  0  0  0  0
  7 21  1  0  0  0  0
 12 22  1  0  0  0  0
 12 23  1  0  0  0  0
 13 24  1  0  0  0  0
M  END
> <FRED Chemgauss4 score>
-6.987112

$$$$
C67786338	P104082259
  -OEChem-05182014473D

 43 44  0     1  0  0  0  0  0999 V2000
  119.6415  105.8507  105.8045 C   0  0  0  0  0  0  0  0  0  0  0  0
  120.5804  105.2377  105.0015 C   0  0  0  0  0  0  0  0  0  0  0  0
  119.8701  103.4695  106.0873 C   0  0  0  0  0  0  0  0  0  0  0  0
  125.4386  106.9010  106.6178 C   0  0  0  0  0  0  0  0  0  0  0  0
  123.0188  107.7438  108.0657 C   0  0  0  0  0  0  0  0  0  0  0  0
  123.4062  108.4476  106.7797 C   0  0  0  0  0  0  0  0  0  0  0  0
  124.2755  107.3297  108.8075 C   0  0  0  0  0  0  0  0  0  0  0  0
  124.2478  107.5339  105.8919 C   0  0  2  0  0  0  0  0  0  0  0  0
  125.7903  102.6470  107.1087 C   0  0  0  0  0  0  0  0  0  0  0  0
  121.4482  105.9236  103.9864 C   0  0  0  0  0  0  0  0  0  0  0  0
  123.4164  106.4066  105.2723 C   0  0  0  0  0  0  0  0  0  0  0  0
  126.3085  105.9260  108.7055 C   0  0  0  0  0  0  0  0  0  0  0  0
  126.0544  104.4325  108.6137 C   0  0  0  0  0  0  0  0  0  0  0  0
  120.7132  103.8723  105.1627 N   0  0  0  0  0  0  0  0  0  0  0  0
  125.2686  106.6441  107.9809 N   0  0  0  0  0  0  0  0  0  0  0  0
  119.7397  102.1789  106.4950 N   0  0  0  0  0  0  0  0  0  0  0  0
  122.2939  106.9591  104.5959 N   0  0  0  0  0  0  0  0  0  0  0  0
  126.4480  106.5822  105.9826 O   0  0  0  0  0  0  0  0  0  0  0  0
  124.7623  108.3055  104.8090 O   0  0  0  0  0  0  0  0  0  0  0  0
  126.0320  104.0404  107.2471 O   0  0  0  0  0  0  0  0  0  0  0  0
  118.8868  104.6794  106.8044 S   0  0  0  0  0  0  0  0  0  0  0  0
  119.3666  106.8951  105.8497 H   0  0  0  0  0  0  0  0  0  0  0  0
  122.4183  108.4092  108.6960 H   0  0  0  0  0  0  0  0  0  0  0  0
  122.3985  106.8661  107.8543 H   0  0  0  0  0  0  0  0  0  0  0  0
  122.5096  108.7838  106.2446 H   0  0  0  0  0  0  0  0  0  0  0  0
  123.9691  109.3613  107.0142 H   0  0  0  0  0  0  0  0  0  0  0  0
  124.7701  108.2150  109.2251 H   0  0  0  0  0  0  0  0  0  0  0  0
  124.0022  106.6740  109.6419 H   0  0  0  0  0  0  0  0  0  0  0  0
  125.7799  102.3818  106.0487 H   0  0  0  0  0  0  0  0  0  0  0  0
  124.8309  102.3954  107.5677 H   0  0  0  0  0  0  0  0  0  0  0  0
  126.5884  102.0961  107.6119 H   0  0  0  0  0  0  0  0  0  0  0  0
  122.1049  105.2016  103.4888 H   0  0  0  0  0  0  0  0  0  0  0  0
  120.8419  106.4011  103.2095 H   0  0  0  0  0  0  0  0  0  0  0  0
  123.0778  105.7565  106.0657 H   0  0  0  0  0  0  0  0  0  0  0  0
  124.0337  105.8676  104.5693 H   0  0  0  0  0  0  0  0  0  0  0  0
  126.2995  106.2669  109.7457 H   0  0  0  0  0  0  0  0  0  0  0  0
  127.2735  106.1766  108.2547 H   0  0  0  0  0  0  0  0  0  0  0  0
  125.0805  104.1906  109.0506 H   0  0  0  0  0  0  0  0  0  0  0  0
  126.8303  103.8595  109.1318 H   0  0  0  0  0  0  0  0  0  0  0  0
  120.2744  101.4198  106.0592 H   0  0  0  0  0  0  0  0  0  0  0  0
  119.0353  101.9015  107.1869 H   0  0  0  0  0  0  0  0  0  0  0  0
  122.5932  107.5993  103.8446 H   0  0  0  0  0  0  0  0  0  0  0  0
  125.2455  107.6892  104.2377 H   0  0  0  0  0  0  0  0  0  0  0  0
  1  2  2  0  0  0  0
  1 21  1  0  0  0  0
  2 10  1  0  0  0  0
  2 14  1  0  0  0  0
  3 14  2  0  0  0  0
  3 16  1  0  0  0  0
  3 21  1  0  0  0  0
  4  8  1  0  0  0  0
  4 15  1  0  0  0  0
  4 18  2  0  0  0  0
  5  6  1  0  0  0  0
  5  7  1  0  0  0  0
  6  8  1  0  0  0  0
  7 15  1  0  0  0  0
  8 11  1  0  0  0  0
  8 19  1  0  0  0  0
  9 20  1  0  0  0  0
 10 17  1  0  0  0  0
 11 17  1  0  0  0  0
 12 13  1  0  0  0  0
 12 15  1  0  0  0  0
 13 20  1  0  0  0  0
  1 22  1  0  0  0  0
  5 23  1  0  0  0  0
  5 24  1  0  0  0  0
  6 25  1  0  0  0  0
  6 26  1  0  0  0  0
  7 27  1  0  0  0  0
  7 28  1  0  0  0  0
  9 29  1  0  0  0  0
  9 30  1  0  0  0  0
  9 31  1  0  0  0  0
 10 32  1  0  0  0  0
 10 33  1  0  0  0  0
 11 34  1  0  0  0  0
 11 35  1  0  0  0  0
 12 36  1  0  0  0  0
 12 37  1  0  0  0  0
 13 38  1  0  0  0  0
 13 39  1  0  0  0  0
 16 40  1  0  0  0  0
 16 41  1  0  0  0  0
 17 42  1  0  0  0  0
 19 43  1  0  0  0  0
M  END
> <FRED Chemgauss4 score>
-6.986117

$$$$
C41058632	P62326118
  -OEChem-05182014473D

 31 31  0     1  0  0  0  0  0999 V2000
  121.9370  108.1211  107.4798 C   0  0  0  0  0  0  0  0  0  0  0  0
  124.0044  107.9270  107.2667 C   0  0  0  0  0  0  0  0  0  0  0  0
  118.6816  107.3285  105.5617 C   0  0  0  0  0  0  0  0  0  0  0  0
  125.5780  105.5773  108.4674 C   0  0  0  0  0  0  0  0  0  0  0  0
  124.8607  105.2143  106.1055 C   0  0  0  0  0  0  0  0  0  0  0  0
  120.5016  107.9137  107.2556 C   0  0  0  0  0  0  0  0  0  0  0  0
  120.1642  107.5824  105.7843 C   0  0  0  0  0  0  0  0  0  0  0  0
  125.4285  107.5714  106.8784 C   0  0  1  0  0  0  0  0  0  0  0  0
  125.7529  106.0627  107.0227 C   0  0  0  0  0  0  0  0  0  0  0  0
  122.8884  107.4586  106.7583 N   0  0  0  0  0  0  0  0  0  0  0  0
  122.3942  108.9701  108.4027 N   0  0  0  0  0  0  0  0  0  0  0  0
  123.7190  108.8270  108.2457 N   0  0  0  0  0  0  0  0  0  0  0  0
  125.6443  108.0400  105.5262 N   0  0  0  0  0  0  0  0  0  0  0  0
  118.3259  106.5061  106.1905 H   0  0  0  0  0  0  0  0  0  0  0  0
  118.0916  108.2205  105.7949 H   0  0  0  0  0  0  0  0  0  0  0  0
  118.4955  107.0617  104.5166 H   0  0  0  0  0  0  0  0  0  0  0  0
  124.5526  105.7380  108.8176 H   0  0  0  0  0  0  0  0  0  0  0  0
  125.7971  104.5068  108.5462 H   0  0  0  0  0  0  0  0  0  0  0  0
  126.2574  106.0959  109.1507 H   0  0  0  0  0  0  0  0  0  0  0  0
  123.8010  105.3510  106.3465 H   0  0  0  0  0  0  0  0  0  0  0  0
  125.0964  104.1498  106.2112 H   0  0  0  0  0  0  0  0  0  0  0  0
  125.0076  105.4760  105.0529 H   0  0  0  0  0  0  0  0  0  0  0  0
  120.1003  107.0950  107.8921 H   0  0  0  0  0  0  0  0  0  0  0  0
  119.9062  108.8051  107.5513 H   0  0  0  0  0  0  0  0  0  0  0  0
  120.4871  108.4099  105.1409 H   0  0  0  0  0  0  0  0  0  0  0  0
  120.7309  106.6974  105.4705 H   0  0  0  0  0  0  0  0  0  0  0  0
  126.1338  108.1412  107.4974 H   0  0  0  0  0  0  0  0  0  0  0  0
  126.7938  105.8774  106.7267 H   0  0  0  0  0  0  0  0  0  0  0  0
  124.3477  109.3651  108.8304 H   0  0  0  0  0  0  0  0  0  0  0  0
  126.3931  107.6407  104.9913 H   0  0  0  0  0  0  0  0  0  0  0  0
  125.1844  108.8802  105.2280 H   0  0  0  0  0  0  0  0  0  0  0  0
  1  6  1  0  0  0  0
  1 10  1  0  0  0  0
  1 11  2  0  0  0  0
  2  8  1  0  0  0  0
  2 10  2  0  0  0  0
  2 12  1  0  0  0  0
  3  7  1  0  0  0  0
  4  9  1  0  0  0  0
  5  9  1  0  0  0  0
  6  7  1  0  0  0  0
  8  9  1  0  0  0  0
  8 13  1  0  0  0  0
 11 12  1  0  0  0  0
  3 14  1  0  0  0  0
  3 15  1  0  0  0  0
  3 16  1  0  0  0  0
  4 17  1  0  0  0  0
  4 18  1  0  0  0  0
  4 19  1  0  0  0  0
  5 20  1  0  0  0  0
  5 21  1  0  0  0  0
  5 22  1  0  0  0  0
  6 23  1  0  0  0  0
  6 24  1  0  0  0  0
  7 25  1  0  0  0  0
  7 26  1  0  0  0  0
  8 27  1  0  0  0  0
  9 28  1  0  0  0  0
 12 29  1  0  0  0  0
 13 30  1  0  0  0  0
 13 31  1  0  0  0  0
M  END
> <FRED Chemgauss4 score>
-6.985689

$$$$
C83281337	P130183447
  -OEChem-05182014473D

 30 31  0     1  0  0  0  0  0999 V2000
  122.1783  106.2571  105.2937 C   0  0  0  0  0  0  0  0  0  0  0  0
  123.4142  106.2976  107.0923 C   0  0  0  0  0  0  0  0  0  0  0  0
  121.1473  105.7868  104.3335 C   0  0  0  0  0  0  0  0  0  0  0  0
  120.8055  104.3089  104.5521 C   0  0  0  0  0  0  0  0  0  0  0  0
  120.6093  104.0017  106.0402 C   0  0  0  0  0  0  0  0  0  0  0  0
  121.8781  104.3163  106.8356 C   0  0  0  0  0  0  0  0  0  0  0  0
  124.7534  104.5326  108.3692 C   0  0  0  0  0  0  0  0  0  0  0  0
  125.5315  104.2971  107.0788 C   0  0  0  0  0  0  0  0  0  0  0  0
  124.0101  105.8971  108.3792 C   0  0  1  0  0  0  0  0  0  0  0  0
  122.9228  107.3421  105.2432 N   0  0  0  0  0  0  0  0  0  0  0  0
  123.7065  107.3661  106.3832 N   0  0  0  0  0  0  0  0  0  0  0  0
  122.4610  105.5809  106.4475 N   0  0  0  0  0  0  0  0  0  0  0  0
  124.9440  106.8994  108.8894 N   0  0  0  0  0  0  0  0  0  0  0  0
  126.5100  105.3197  106.9427 O   0  0  0  0  0  0  0  0  0  0  0  0
  120.2437  106.3938  104.4666 H   0  0  0  0  0  0  0  0  0  0  0  0
  121.4924  105.9383  103.3053 H   0  0  0  0  0  0  0  0  0  0  0  0
  119.8986  104.0539  103.9922 H   0  0  0  0  0  0  0  0  0  0  0  0
  121.6143  103.6805  104.1576 H   0  0  0  0  0  0  0  0  0  0  0  0
  119.7754  104.6031  106.4241 H   0  0  0  0  0  0  0  0  0  0  0  0
  120.3377  102.9496  106.1781 H   0  0  0  0  0  0  0  0  0  0  0  0
  121.6557  104.3501  107.9070 H   0  0  0  0  0  0  0  0  0  0  0  0
  122.6414  103.5506  106.6561 H   0  0  0  0  0  0  0  0  0  0  0  0
  125.4522  104.4638  109.2145 H   0  0  0  0  0  0  0  0  0  0  0  0
  124.0466  103.7068  108.5246 H   0  0  0  0  0  0  0  0  0  0  0  0
  126.0466  103.3320  107.0927 H   0  0  0  0  0  0  0  0  0  0  0  0
  124.8666  104.3356  106.2101 H   0  0  0  0  0  0  0  0  0  0  0  0
  123.2404  105.8291  109.1781 H   0  0  0  0  0  0  0  0  0  0  0  0
  125.6473  106.6007  109.5286 H   0  0  0  0  0  0  0  0  0  0  0  0
  124.7232  107.8602  108.7454 H   0  0  0  0  0  0  0  0  0  0  0  0
  126.9863  105.1426  106.1157 H   0  0  0  0  0  0  0  0  0  0  0  0
  1  3  1  0  0  0  0
  1 10  2  0  0  0  0
  1 12  1  0  0  0  0
  2  9  1  0  0  0  0
  2 11  2  0  0  0  0
  2 12  1  0  0  0  0
  3  4  1  0  0  0  0
  4  5  1  0  0  0  0
  5  6  1  0  0  0  0
  6 12  1  0  0  0  0
  7  8  1  0  0  0  0
  7  9  1  0  0  0  0
  8 14  1  0  0  0  0
  9 13  1  0  0  0  0
 10 11  1  0  0  0  0
  3 15  1  0  0  0  0
  3 16  1  0  0  0  0
  4 17  1  0  0  0  0
  4 18  1  0  0  0  0
  5 19  1  0  0  0  0
  5 20  1  0  0  0  0
  6 21  1  0  0  0  0
  6 22  1  0  0  0  0
  7 23  1  0  0  0  0
  7 24  1  0  0  0  0
  8 25  1  0  0  0  0
  8 26  1  0  0  0  0
  9 27  1  0  0  0  0
 13 28  1  0  0  0  0
 13 29  1  0  0  0  0
 14 30  1  0  0  0  0
M  END
> <FRED Chemgauss4 score>
-6.980416

$$$$
C86695381	P135727229
  -OEChem-05182014473D

 27 28  0     0  0  0  0  0  0999 V2000
  120.7117  104.7739  102.1819 C   0  0  0  0  0  0  0  0  0  0  0  0
  118.9074  104.4701  103.7596 C   0  0  0  0  0  0  0  0  0  0  0  0
  118.4181  104.9255  101.4379 C   0  0  0  0  0  0  0  0  0  0  0  0
  121.0243  106.9822  106.9707 C   0  0  0  0  0  0  0  0  0  0  0  0
  120.5056  105.8286  106.4316 C   0  0  0  0  0  0  0  0  0  0  0  0
  120.2733  104.5209  103.4817 C   0  0  0  0  0  0  0  0  0  0  0  0
  119.7841  104.9763  101.1600 C   0  0  0  0  0  0  0  0  0  0  0  0
  117.9797  104.6724  102.7377 C   0  0  0  0  0  0  0  0  0  0  0  0
  122.3793  106.4148  105.4305 C   0  0  0  0  0  0  0  0  0  0  0  0
  121.2656  104.3039  104.5739 C   0  0  0  0  0  0  0  0  0  0  0  0
  123.5090  106.3479  104.4811 C   0  0  0  0  0  0  0  0  0  0  0  0
  122.1905  107.3420  106.3430 N   0  0  0  0  0  0  0  0  0  0  0  0
  121.3843  105.4772  105.4458 N   0  0  0  0  0  0  0  0  0  0  0  0
  124.6015  107.2233  104.8449 N   0  0  0  0  0  0  0  0  0  0  0  0
  120.2049  105.2194   99.9120 F   0  0  0  0  0  0  0  0  0  0  0  0
  116.1286  104.6041  103.1130 Br  0  0  0  0  0  0  0  0  0  0  0  0
  121.7740  104.8150  101.9561 H   0  0  0  0  0  0  0  0  0  0  0  0
  118.5733  104.2729  104.7757 H   0  0  0  0  0  0  0  0  0  0  0  0
  117.7086  105.0852  100.6301 H   0  0  0  0  0  0  0  0  0  0  0  0
  120.6172  107.5720  107.7790 H   0  0  0  0  0  0  0  0  0  0  0  0
  119.6205  105.2500  106.6562 H   0  0  0  0  0  0  0  0  0  0  0  0
  120.9958  103.4439  105.2072 H   0  0  0  0  0  0  0  0  0  0  0  0
  122.2690  104.0811  104.1772 H   0  0  0  0  0  0  0  0  0  0  0  0
  123.9267  105.3281  104.4115 H   0  0  0  0  0  0  0  0  0  0  0  0
  123.2091  106.6253  103.4555 H   0  0  0  0  0  0  0  0  0  0  0  0
  125.2075  107.5655  104.1219 H   0  0  0  0  0  0  0  0  0  0  0  0
  124.8530  107.3049  105.8131 H   0  0  0  0  0  0  0  0  0  0  0  0
  1  6  1  0  0  0  0
  1  7  2  0  0  0  0
  2  6  2  0  0  0  0
  2  8  1  0  0  0  0
  3  7  1  0  0  0  0
  3  8  2  0  0  0  0
  4  5  2  0  0  0  0
  4 12  1  0  0  0  0
  5 13  1  0  0  0  0
  6 10  1  0  0  0  0
  7 15  1  0  0  0  0
  8 16  1  0  0  0  0
  9 11  1  0  0  0  0
  9 12  2  0  0  0  0
  9 13  1  0  0  0  0
 10 13  1  0  0  0  0
 11 14  1  0  0  0  0
  1 17  1  0  0  0  0
  2 18  1  0  0  0  0
  3 19  1  0  0  0  0
  4 20  1  0  0  0  0
  5 21  1  0  0  0  0
 10 22  1  0  0  0  0
 10 23  1  0  0  0  0
 11 24  1  0  0  0  0
 11 25  1  0  0  0  0
 14 26  1  0  0  0  0
 14 27  1  0  0  0  0
M  END
> <FRED Chemgauss4 score>
-6.978837

$$$$
C49351888	P73718031
  -OEChem-05182014473D

 38 38  0     1  0  0  0  0  0999 V2000
  123.9203  104.0110  107.9895 C   0  0  0  0  0  0  0  0  0  0  0  0
  122.9431  104.8668  107.3629 C   0  0  0  0  0  0  0  0  0  0  0  0
  125.2202  104.2087  107.7496 C   0  0  0  0  0  0  0  0  0  0  0  0
  123.3107  105.8621  106.5408 C   0  0  0  0  0  0  0  0  0  0  0  0
  124.7711  106.0891  106.2680 C   0  0  0  0  0  0  0  0  0  0  0  0
  122.2075  106.6588  105.9734 C   0  0  0  0  0  0  0  0  0  0  0  0
  118.9977  106.5112  105.6920 C   0  0  0  0  0  0  0  0  0  0  0  0
  119.2111  107.9721  107.7189 C   0  0  0  0  0  0  0  0  0  0  0  0
  119.6519  102.8639  105.0627 C   0  0  0  0  0  0  0  0  0  0  0  0
  117.4631  103.9028  105.7095 C   0  0  0  0  0  0  0  0  0  0  0  0
  118.5419  104.5018  103.5264 C   0  0  0  0  0  0  0  0  0  0  0  0
  119.9091  107.4484  106.4734 C   0  0  1  0  0  0  0  0  0  0  0  0
  118.7974  104.1348  104.9928 C   0  0  0  0  0  0  0  0  0  0  0  0
  125.6348  105.2157  106.9148 N   0  0  0  0  0  0  0  0  0  0  0  0
  121.1071  106.7252  106.8100 N   0  0  0  0  0  0  0  0  0  0  0  0
  119.4992  105.2181  105.6408 N   0  0  0  0  0  0  0  0  0  0  0  0
  122.3185  107.1834  104.8707 O   0  0  0  0  0  0  0  0  0  0  0  0
  117.9277  106.8687  105.2039 O   0  0  0  0  0  0  0  0  0  0  0  0
  125.4146  107.2802  105.2714 S   0  0  0  0  0  0  0  0  0  0  0  0
  123.5793  103.2194  108.6459 H   0  0  0  0  0  0  0  0  0  0  0  0
  121.9026  104.6609  107.5954 H   0  0  0  0  0  0  0  0  0  0  0  0
  125.9995  103.5998  108.1899 H   0  0  0  0  0  0  0  0  0  0  0  0
  118.8994  107.1506  108.3742 H   0  0  0  0  0  0  0  0  0  0  0  0
  119.8715  108.6252  108.2989 H   0  0  0  0  0  0  0  0  0  0  0  0
  118.3150  108.5430  107.4525 H   0  0  0  0  0  0  0  0  0  0  0  0
  120.6137  103.0048  104.5559 H   0  0  0  0  0  0  0  0  0  0  0  0
  119.8571  102.5778  106.1002 H   0  0  0  0  0  0  0  0  0  0  0  0
  119.1483  102.0220  104.5735 H   0  0  0  0  0  0  0  0  0  0  0  0
  116.8335  104.7995  105.6729 H   0  0  0  0  0  0  0  0  0  0  0  0
  117.6194  103.6601  106.7671 H   0  0  0  0  0  0  0  0  0  0  0  0
  116.9032  103.0788  105.2535 H   0  0  0  0  0  0  0  0  0  0  0  0
  117.9318  105.4090  103.4468 H   0  0  0  0  0  0  0  0  0  0  0  0
  119.4807  104.6782  102.9900 H   0  0  0  0  0  0  0  0  0  0  0  0
  118.0022  103.7019  103.0062 H   0  0  0  0  0  0  0  0  0  0  0  0
  120.2129  108.2825  105.8316 H   0  0  0  0  0  0  0  0  0  0  0  0
  126.6347  105.3189  106.7680 H   0  0  0  0  0  0  0  0  0  0  0  0
  121.1469  106.2402  107.7050 H   0  0  0  0  0  0  0  0  0  0  0  0
  120.4130  105.0204  106.0379 H   0  0  0  0  0  0  0  0  0  0  0  0
  1  2  1  0  0  0  0
  1  3  2  0  0  0  0
  2  4  2  0  0  0  0
  3 14  1  0  0  0  0
  4  5  1  0  0  0  0
  4  6  1  0  0  0  0
  5 14  1  0  0  0  0
  5 19  2  0  0  0  0
  6 15  1  0  0  0  0
  6 17  2  0  0  0  0
  7 12  1  0  0  0  0
  7 16  1  0  0  0  0
  7 18  2  0  0  0  0
  8 12  1  0  0  0  0
  9 13  1  0  0  0  0
 10 13  1  0  0  0  0
 11 13  1  0  0  0  0
 12 15  1  0  0  0  0
 13 16  1  0  0  0  0
  1 20  1  0  0  0  0
  2 21  1  0  0  0  0
  3 22  1  0  0  0  0
  8 23  1  0  0  0  0
  8 24  1  0  0  0  0
  8 25  1  0  0  0  0
  9 26  1  0  0  0  0
  9 27  1  0  0  0  0
  9 28  1  0  0  0  0
 10 29  1  0  0  0  0
 10 30  1  0  0  0  0
 10 31  1  0  0  0  0
 11 32  1  0  0  0  0
 11 33  1  0  0  0  0
 11 34  1  0  0  0  0
 12 35  1  0  0  0  0
 14 36  1  0  0  0  0
 15 37  1  0  0  0  0
 16 38  1  0  0  0  0
M  END
> <FRED Chemgauss4 score>
-6.978196

$$$$
C00143779	P09002034
  -OEChem-05182014473D

 33 34  0     0  0  0  0  0  0999 V2000
  124.1746  104.8351  106.5471 C   0  0  0  0  0  0  0  0  0  0  0  0
  124.7414  105.3525  109.2292 C   0  0  0  0  0  0  0  0  0  0  0  0
  123.5688  105.9130  107.1926 C   0  0  0  0  0  0  0  0  0  0  0  0
  125.0638  104.0158  107.2427 C   0  0  0  0  0  0  0  0  0  0  0  0
  123.8522  106.1718  108.5336 C   0  0  0  0  0  0  0  0  0  0  0  0
  125.3472  104.2745  108.5837 C   0  0  0  0  0  0  0  0  0  0  0  0
  120.9947  103.4732  104.7442 C   0  0  0  0  0  0  0  0  0  0  0  0
  120.9333  105.2163  102.9320 C   0  0  0  0  0  0  0  0  0  0  0  0
  121.1626  104.5823  105.7793 C   0  0  0  0  0  0  0  0  0  0  0  0
  121.1018  106.2994  103.9942 C   0  0  0  0  0  0  0  0  0  0  0  0
  120.2656  103.9461  103.4783 C   0  0  0  0  0  0  0  0  0  0  0  0
  118.7690  104.1505  103.7255 C   0  0  0  0  0  0  0  0  0  0  0  0
  121.8549  105.7483  105.1578 N   0  0  0  0  0  0  0  0  0  0  0  0
  121.3832  107.3251  107.1418 O   0  0  0  0  0  0  0  0  0  0  0  0
  123.2358  107.8909  105.5308 O   0  0  0  0  0  0  0  0  0  0  0  0
  122.4548  106.9157  106.2603 S   0  0  0  0  0  0  0  0  0  0  0  0
  125.7817  102.6960  106.3880 Cl  0  0  0  0  0  0  0  0  0  0  0  0
  123.1267  107.4915  109.3788 Cl  0  0  0  0  0  0  0  0  0  0  0  0
  126.4394  103.2960  109.4993 Cl  0  0  0  0  0  0  0  0  0  0  0  0
  123.9519  104.6370  105.5009 H   0  0  0  0  0  0  0  0  0  0  0  0
  124.9616  105.5545  110.2755 H   0  0  0  0  0  0  0  0  0  0  0  0
  121.9868  103.0729  104.4774 H   0  0  0  0  0  0  0  0  0  0  0  0
  120.4381  102.6354  105.1996 H   0  0  0  0  0  0  0  0  0  0  0  0
  120.3330  105.6183  102.0972 H   0  0  0  0  0  0  0  0  0  0  0  0
  121.9204  104.9674  102.5082 H   0  0  0  0  0  0  0  0  0  0  0  0
  120.1726  104.8921  106.1318 H   0  0  0  0  0  0  0  0  0  0  0  0
  121.7395  104.2246  106.6401 H   0  0  0  0  0  0  0  0  0  0  0  0
  121.6357  107.1646  103.5841 H   0  0  0  0  0  0  0  0  0  0  0  0
  120.1109  106.6299  104.3244 H   0  0  0  0  0  0  0  0  0  0  0  0
  120.3703  103.1508  102.7100 H   0  0  0  0  0  0  0  0  0  0  0  0
  118.6207  104.9256  104.4759 H   0  0  0  0  0  0  0  0  0  0  0  0
  118.3227  103.2224  104.0793 H   0  0  0  0  0  0  0  0  0  0  0  0
  118.2793  104.4516  102.8006 H   0  0  0  0  0  0  0  0  0  0  0  0
  1  3  1  0  0  0  0
  1  4  2  0  0  0  0
  2  5  1  0  0  0  0
  2  6  2  0  0  0  0
  3  5  2  0  0  0  0
  3 16  1  0  0  0  0
  4  6  1  0  0  0  0
  4 17  1  0  0  0  0
  5 18  1  0  0  0  0
  6 19  1  0  0  0  0
  7  9  1  0  0  0  0
  7 11  1  0  0  0  0
  8 10  1  0  0  0  0
  8 11  1  0  0  0  0
  9 13  1  0  0  0  0
 10 13  1  0  0  0  0
 11 12  1  0  0  0  0
 13 16  1  0  0  0  0
 14 16  2  0  0  0  0
 15 16  2  0  0  0  0
  1 20  1  0  0  0  0
  2 21  1  0  0  0  0
  7 22  1  0  0  0  0
  7 23  1  0  0  0  0
  8 24  1  0  0  0  0
  8 25  1  0  0  0  0
  9 26  1  0  0  0  0
  9 27  1  0  0  0  0
 10 28  1  0  0  0  0
 10 29  1  0  0  0  0
 11 30  1  0  0  0  0
 12 31  1  0  0  0  0
 12 32  1  0  0  0  0
 12 33  1  0  0  0  0
M  END
> <FRED Chemgauss4 score>
-6.967789

$$$$
C65742667	P101141789
  -OEChem-05182014473D

 27 27  0     1  0  0  0  0  0999 V2000
  124.5910  107.2667  106.1645 C   0  0  2  0  0  0  0  0  0  0  0  0
  123.6512  106.0861  105.9198 C   0  0  1  0  0  0  0  0  0  0  0  0
  124.1158  108.0729  107.3740 C   0  0  1  0  0  0  0  0  0  0  0  0
  123.4531  105.2416  107.1810 C   0  0  1  0  0  0  0  0  0  0  0  0
  123.9657  107.1644  108.6084 C   0  0  1  0  0  0  0  0  0  0  0  0
  124.6321  104.3181  107.4750 C   0  0  0  0  0  0  0  0  0  0  0  0
  123.3106  107.9343  109.7595 C   0  0  0  0  0  0  0  0  0  0  0  0
  123.1120  106.0500  108.3159 O   0  0  0  0  0  0  0  0  0  0  0  0
  124.6056  108.0855  104.9972 O   0  0  0  0  0  0  0  0  0  0  0  0
  122.3605  106.5789  105.5384 O   0  0  0  0  0  0  0  0  0  0  0  0
  125.0454  109.1156  107.6595 O   0  0  0  0  0  0  0  0  0  0  0  0
  125.2611  106.7452  109.0434 O   0  0  0  0  0  0  0  0  0  0  0  0
  125.8311  105.0138  107.1878 O   0  0  0  0  0  0  0  0  0  0  0  0
  122.3474  108.7256  109.2355 F   0  0  0  0  0  0  0  0  0  0  0  0
  125.6173  106.9150  106.3147 H   0  0  0  0  0  0  0  0  0  0  0  0
  124.0104  105.4762  105.0835 H   0  0  0  0  0  0  0  0  0  0  0  0
  123.1556  108.5505  107.1336 H   0  0  0  0  0  0  0  0  0  0  0  0
  122.5784  104.5958  107.0329 H   0  0  0  0  0  0  0  0  0  0  0  0
  124.5720  103.4286  106.8483 H   0  0  0  0  0  0  0  0  0  0  0  0
  124.6250  104.0297  108.5258 H   0  0  0  0  0  0  0  0  0  0  0  0
  124.0460  108.5552  110.2616 H   0  0  0  0  0  0  0  0  0  0  0  0
  122.8577  107.2423  110.4628 H   0  0  0  0  0  0  0  0  0  0  0  0
  124.9235  107.5256  104.2725 H   0  0  0  0  0  0  0  0  0  0  0  0
  121.8069  105.7984  105.3961 H   0  0  0  0  0  0  0  0  0  0  0  0
  125.0835  109.6745  106.8683 H   0  0  0  0  0  0  0  0  0  0  0  0
  125.1187  106.1796  109.8167 H   0  0  0  0  0  0  0  0  0  0  0  0
  126.5666  104.4078  107.3818 H   0  0  0  0  0  0  0  0  0  0  0  0
  1  2  1  0  0  0  0
  1  3  1  0  0  0  0
  1  9  1  0  0  0  0
  2  4  1  0  0  0  0
  2 10  1  0  0  0  0
  3  5  1  0  0  0  0
  3 11  1  0  0  0  0
  4  6  1  0  0  0  0
  4  8  1  0  0  0  0
  5  7  1  0  0  0  0
  5  8  1  0  0  0  0
  5 12  1  0  0  0  0
  6 13  1  0  0  0  0
  7 14  1  0  0  0  0
  1 15  1  0  0  0  0
  2 16  1  0  0  0  0
  3 17  1  0  0  0  0
  4 18  1  0  0  0  0
  6 19  1  0  0  0  0
  6 20  1  0  0  0  0
  7 21  1  0  0  0  0
  7 22  1  0  0  0  0
  9 23  1  0  0  0  0
 10 24  1  0  0  0  0
 11 25  1  0  0  0  0
 12 26  1  0  0  0  0
 13 27  1  0  0  0  0
M  END
> <FRED Chemgauss4 score>
-6.964807

$$$$
C76166875	P118803985
  -OEChem-05182014473D

 17 17  0     1  0  0  0  0  0999 V2000
  122.8794  107.2132  106.2611 C   0  0  0  0  0  0  0  0  0  0  0  0
  124.7455  106.2808  106.6430 C   0  0  0  0  0  0  0  0  0  0  0  0
  125.6911  105.3947  108.7967 C   0  0  0  0  0  0  0  0  0  0  0  0
  125.8309  105.4411  107.2787 C   0  0  2  0  0  0  0  0  0  0  0  0
  124.9157  107.0146  105.5257 N   0  5  0  0  0  0  0  0  0  0  0  0
  123.4965  106.3867  107.1161 N   0  0  0  0  0  0  0  0  0  0  0  0
  123.7082  107.6187  105.2789 N   0  0  0  0  0  0  0  0  0  0  0  0
  126.7518  104.5170  109.3565 N   0  3  0  0  0  0  0  0  0  0  0  0
  127.0886  106.0245  106.9377 O   0  0  0  0  0  0  0  0  0  0  0  0
  121.8470  107.5197  106.3471 H   0  0  0  0  0  0  0  0  0  0  0  0
  124.7348  104.9683  109.1148 H   0  0  0  0  0  0  0  0  0  0  0  0
  125.8348  106.3748  109.2623 H   0  0  0  0  0  0  0  0  0  0  0  0
  125.8214  104.4231  106.8699 H   0  0  0  0  0  0  0  0  0  0  0  0
  126.6365  103.5526  109.0301 H   0  0  0  0  0  0  0  0  0  0  0  0
  126.7172  104.5126  110.3807 H   0  0  0  0  0  0  0  0  0  0  0  0
  127.6810  104.8409  109.0707 H   0  0  0  0  0  0  0  0  0  0  0  0
  127.1437  106.0103  105.9704 H   0  0  0  0  0  0  0  0  0  0  0  0
  1  6  1  0  0  0  0
  1  7  2  0  0  0  0
  2  4  1  0  0  0  0
  2  5  1  0  0  0  0
  2  6  2  0  0  0  0
  3  4  1  0  0  0  0
  3  8  1  0  0  0  0
  4  9  1  0  0  0  0
  5  7  1  0  0  0  0
  1 10  1  0  0  0  0
  3 11  1  0  0  0  0
  3 12  1  0  0  0  0
  4 13  1  0  0  0  0
  8 14  1  0  0  0  0
  8 15  1  0  0  0  0
  8 16  1  0  0  0  0
  9 17  1  0  0  0  0
M  CHG  2   5  -1   8   1
M  END
> <FRED Chemgauss4 score>
-6.964231

$$$$
C88371168	P138217588
  -OEChem-05182014473D

 46 47  0     1  0  0  0  0  0999 V2000
  117.0849  104.6524  105.3067 C   0  0  0  0  0  0  0  0  0  0  0  0
  122.0951  105.3419  106.0011 C   0  0  0  0  0  0  0  0  0  0  0  0
  120.2937  103.7054  106.5188 C   0  0  0  0  0  0  0  0  0  0  0  0
  120.5203  104.6691  104.1772 C   0  0  0  0  0  0  0  0  0  0  0  0
  119.1014  104.6345  106.7399 C   0  0  0  0  0  0  0  0  0  0  0  0
  119.3079  105.5557  104.4649 C   0  0  0  0  0  0  0  0  0  0  0  0
  114.4531  107.0290  104.2941 C   0  0  0  0  0  0  0  0  0  0  0  0
  113.8676  106.1973  103.1580 C   0  0  0  0  0  0  0  0  0  0  0  0
  115.7053  104.7275  103.2388 C   0  0  0  0  0  0  0  0  0  0  0  0
  116.3227  105.5366  104.3745 C   0  0  1  0  0  0  0  0  0  0  0  0
  121.2554  104.2280  105.4469 C   0  0  0  0  0  0  0  0  0  0  0  0
  125.1216  105.8822  107.2732 C   0  0  0  0  0  0  0  0  0  0  0  0
  123.6983  105.9124  107.8141 C   0  0  0  0  0  0  0  0  0  0  0  0
  125.7638  104.5041  107.3768 C   0  0  0  0  0  0  0  0  0  0  0  0
  115.2831  106.1958  105.1712 N   0  0  0  0  0  0  0  0  0  0  0  0
  118.4393  104.9391  105.4722 N   0  0  0  0  0  0  0  0  0  0  0  0
  122.8235  104.9930  107.1224 N   0  0  0  0  0  0  0  0  0  0  0  0
  116.4985  103.7276  105.8750 O   0  0  0  0  0  0  0  0  0  0  0  0
  122.0848  106.4372  105.4517 O   0  0  0  0  0  0  0  0  0  0  0  0
  114.9124  105.5765  102.4061 O   0  0  0  0  0  0  0  0  0  0  0  0
  127.0885  104.5773  106.8664 O   0  0  0  0  0  0  0  0  0  0  0  0
  120.8184  103.5543  107.4696 H   0  0  0  0  0  0  0  0  0  0  0  0
  119.9184  102.7246  106.1990 H   0  0  0  0  0  0  0  0  0  0  0  0
  120.1747  103.7703  103.6500 H   0  0  0  0  0  0  0  0  0  0  0  0
  121.2027  105.1957  103.4995 H   0  0  0  0  0  0  0  0  0  0  0  0
  118.4021  104.1724  107.4440 H   0  0  0  0  0  0  0  0  0  0  0  0
  119.4242  105.5850  107.1804 H   0  0  0  0  0  0  0  0  0  0  0  0
  119.6228  106.5283  104.8600 H   0  0  0  0  0  0  0  0  0  0  0  0
  118.7772  105.7511  103.5313 H   0  0  0  0  0  0  0  0  0  0  0  0
  115.0601  107.8451  103.8888 H   0  0  0  0  0  0  0  0  0  0  0  0
  113.6489  107.4871  104.8808 H   0  0  0  0  0  0  0  0  0  0  0  0
  113.2358  105.4016  103.5679 H   0  0  0  0  0  0  0  0  0  0  0  0
  113.2419  106.8032  102.4899 H   0  0  0  0  0  0  0  0  0  0  0  0
  116.4811  104.2603  102.6321 H   0  0  0  0  0  0  0  0  0  0  0  0
  115.0522  103.9474  103.6264 H   0  0  0  0  0  0  0  0  0  0  0  0
  117.0119  106.2661  103.9928 H   0  0  0  0  0  0  0  0  0  0  0  0
  121.9598  103.4275  105.1881 H   0  0  0  0  0  0  0  0  0  0  0  0
  125.1159  106.1934  106.2211 H   0  0  0  0  0  0  0  0  0  0  0  0
  125.7469  106.6149  107.7990 H   0  0  0  0  0  0  0  0  0  0  0  0
  123.6911  105.6259  108.8703 H   0  0  0  0  0  0  0  0  0  0  0  0
  123.2658  106.9144  107.7285 H   0  0  0  0  0  0  0  0  0  0  0  0
  125.8135  104.1665  108.4166 H   0  0  0  0  0  0  0  0  0  0  0  0
  125.2053  103.7687  106.7890 H   0  0  0  0  0  0  0  0  0  0  0  0
  115.7370  106.7951  105.8398 H   0  0  0  0  0  0  0  0  0  0  0  0
  122.7401  104.0452  107.4775 H   0  0  0  0  0  0  0  0  0  0  0  0
  127.4687  103.6876  106.9461 H   0  0  0  0  0  0  0  0  0  0  0  0
  1 10  1  0  0  0  0
  1 16  1  0  0  0  0
  1 18  2  0  0  0  0
  2 11  1  0  0  0  0
  2 17  1  0  0  0  0
  2 19  2  0  0  0  0
  3  5  1  0  0  0  0
  3 11  1  0  0  0  0
  4  6  1  0  0  0  0
  4 11  1  0  0  0  0
  5 16  1  0  0  0  0
  6 16  1  0  0  0  0
  7  8  1  0  0  0  0
  7 15  1  0  0  0  0
  8 20  1  0  0  0  0
  9 10  1  0  0  0  0
  9 20  1  0  0  0  0
 10 15  1  0  0  0  0
 12 13  1  0  0  0  0
 12 14  1  0  0  0  0
 13 17  1  0  0  0  0
 14 21  1  0  0  0  0
  3 22  1  0  0  0  0
  3 23  1  0  0  0  0
  4 24  1  0  0  0  0
  4 25  1  0  0  0  0
  5 26  1  0  0  0  0
  5 27  1  0  0  0  0
  6 28  1  0  0  0  0
  6 29  1  0  0  0  0
  7 30  1  0  0  0  0
  7 31  1  0  0  0  0
  8 32  1  0  0  0  0
  8 33  1  0  0  0  0
  9 34  1  0  0  0  0
  9 35  1  0  0  0  0
 10 36  1  0  0  0  0
 11 37  1  0  0  0  0
 12 38  1  0  0  0  0
 12 39  1  0  0  0  0
 13 40  1  0  0  0  0
 13 41  1  0  0  0  0
 14 42  1  0  0  0  0
 14 43  1  0  0  0  0
 15 44  1  0  0  0  0
 17 45  1  0  0  0  0
 21 46  1  0  0  0  0
M  END
> <FRED Chemgauss4 score>
-6.962514

$$$$
C50394896	P75386401
  -OEChem-05182014473D

 31 32  0     1  0  0  0  0  0999 V2000
  120.8637  103.8752  104.7368 C   0  0  0  0  0  0  0  0  0  0  0  0
  120.6500  103.6909  103.3402 C   0  0  0  0  0  0  0  0  0  0  0  0
  120.9281  105.2080  105.0790 C   0  0  0  0  0  0  0  0  0  0  0  0
  120.5590  104.8901  102.6681 C   0  0  0  0  0  0  0  0  0  0  0  0
  124.7871  106.3801  106.2434 C   0  0  0  0  0  0  0  0  0  0  0  0
  124.8434  104.3984  108.3850 C   0  0  0  0  0  0  0  0  0  0  0  0
  123.5622  105.1812  108.1430 C   0  0  0  0  0  0  0  0  0  0  0  0
  126.0302  105.3150  108.1575 C   0  0  0  0  0  0  0  0  0  0  0  0
  123.5226  105.6567  106.6935 C   0  0  1  0  0  0  0  0  0  0  0  0
  119.9723  106.7024  106.8806 C   0  0  0  0  0  0  0  0  0  0  0  0
  121.1412  105.8203  106.4466 C   0  0  2  0  0  0  0  0  0  0  0  0
  125.9497  106.0556  106.9122 N   0  0  0  0  0  0  0  0  0  0  0  0
  122.3912  106.5622  106.5039 N   0  0  0  0  0  0  0  0  0  0  0  0
  124.7884  107.1499  105.2803 O   0  0  0  0  0  0  0  0  0  0  0  0
  120.7312  106.2306  103.7196 S   0  0  0  0  0  0  0  0  0  0  0  0
  120.3068  105.1380  100.9912 Cl  0  0  0  0  0  0  0  0  0  0  0  0
  120.9645  103.0679  105.4511 H   0  0  0  0  0  0  0  0  0  0  0  0
  120.5679  102.7245  102.8590 H   0  0  0  0  0  0  0  0  0  0  0  0
  124.8642  104.0031  109.4063 H   0  0  0  0  0  0  0  0  0  0  0  0
  124.8909  103.5418  107.7018 H   0  0  0  0  0  0  0  0  0  0  0  0
  122.6947  104.5457  108.3579 H   0  0  0  0  0  0  0  0  0  0  0  0
  123.5190  106.0318  108.8361 H   0  0  0  0  0  0  0  0  0  0  0  0
  126.0991  106.0578  108.9601 H   0  0  0  0  0  0  0  0  0  0  0  0
  126.9653  104.7461  108.1477 H   0  0  0  0  0  0  0  0  0  0  0  0
  123.4000  104.7968  106.0310 H   0  0  0  0  0  0  0  0  0  0  0  0
  119.8171  107.5266  106.1758 H   0  0  0  0  0  0  0  0  0  0  0  0
  119.0468  106.1175  106.9277 H   0  0  0  0  0  0  0  0  0  0  0  0
  120.1314  107.1337  107.8753 H   0  0  0  0  0  0  0  0  0  0  0  0
  121.2461  105.0180  107.1873 H   0  0  0  0  0  0  0  0  0  0  0  0
  126.8243  106.3616  106.4972 H   0  0  0  0  0  0  0  0  0  0  0  0
  122.3603  107.2191  107.2808 H   0  0  0  0  0  0  0  0  0  0  0  0
  1  2  1  0  0  0  0
  1  3  2  0  0  0  0
  2  4  2  0  0  0  0
  3 11  1  0  0  0  0
  3 15  1  0  0  0  0
  4 15  1  0  0  0  0
  4 16  1  0  0  0  0
  5  9  1  0  0  0  0
  5 12  1  0  0  0  0
  5 14  2  0  0  0  0
  6  7  1  0  0  0  0
  6  8  1  0  0  0  0
  7  9  1  0  0  0  0
  8 12  1  0  0  0  0
  9 13  1  0  0  0  0
 10 11  1  0  0  0  0
 11 13  1  0  0  0  0
  1 17  1  0  0  0  0
  2 18  1  0  0  0  0
  6 19  1  0  0  0  0
  6 20  1  0  0  0  0
  7 21  1  0  0  0  0
  7 22  1  0  0  0  0
  8 23  1  0  0  0  0
  8 24  1  0  0  0  0
  9 25  1  0  0  0  0
 10 26  1  0  0  0  0
 10 27  1  0  0  0  0
 10 28  1  0  0  0  0
 11 29  1  0  0  0  0
 12 30  1  0  0  0  0
 13 31  1  0  0  0  0
M  END
> <FRED Chemgauss4 score>
-6.958385

$$$$
C94371941	P147915902
  -OEChem-05182014473D

 43 45  0     1  0  0  0  0  0999 V2000
  124.7680  103.8885  108.2635 C   0  0  0  0  0  0  0  0  0  0  0  0
  125.8000  104.9432  108.6612 C   0  0  0  0  0  0  0  0  0  0  0  0
  123.6564  104.6362  107.5322 C   0  0  0  0  0  0  0  0  0  0  0  0
  125.2624  106.2774  108.1510 C   0  0  0  0  0  0  0  0  0  0  0  0
  120.9393  107.3537  106.4569 C   0  0  0  0  0  0  0  0  0  0  0  0
  120.5974  104.2560  104.4089 C   0  0  0  0  0  0  0  0  0  0  0  0
  122.2823  106.1664  104.7135 C   0  0  0  0  0  0  0  0  0  0  0  0
  119.6869  106.8446  105.7575 C   0  0  0  0  0  0  0  0  0  0  0  0
  119.4401  103.8552  103.5065 C   0  0  0  0  0  0  0  0  0  0  0  0
  121.1263  105.7018  102.5249 C   0  0  0  0  0  0  0  0  0  0  0  0
  122.1095  106.4008  106.2168 C   0  0  1  0  0  0  0  0  0  0  0  0
  120.9705  105.7059  104.0532 C   0  0  1  0  0  0  0  0  0  0  0  0
  124.3156  105.9144  107.0012 C   0  0  0  0  0  0  0  0  0  0  0  0
  125.0781  105.6603  105.6962 C   0  0  0  0  0  0  0  0  0  0  0  0
  123.3356  106.9545  106.7862 N   0  0  0  0  0  0  0  0  0  0  0  0
  119.9159  106.6308  104.3667 O   0  0  0  0  0  0  0  0  0  0  0  0
  125.2469  106.8956  105.0252 O   0  0  0  0  0  0  0  0  0  0  0  0
  119.8380  104.5800  101.8955 S   0  0  0  0  0  0  0  0  0  0  0  0
  125.2066  103.1112  107.6286 H   0  0  0  0  0  0  0  0  0  0  0  0
  124.3747  103.3938  109.1596 H   0  0  0  0  0  0  0  0  0  0  0  0
  125.9114  104.9646  109.7518 H   0  0  0  0  0  0  0  0  0  0  0  0
  126.7865  104.7255  108.2379 H   0  0  0  0  0  0  0  0  0  0  0  0
  123.2934  104.0183  106.6982 H   0  0  0  0  0  0  0  0  0  0  0  0
  122.7957  104.8301  108.1852 H   0  0  0  0  0  0  0  0  0  0  0  0
  124.7768  106.8547  108.9485 H   0  0  0  0  0  0  0  0  0  0  0  0
  126.0999  106.8859  107.7800 H   0  0  0  0  0  0  0  0  0  0  0  0
  121.1854  108.3466  106.0573 H   0  0  0  0  0  0  0  0  0  0  0  0
  120.7458  107.4719  107.5295 H   0  0  0  0  0  0  0  0  0  0  0  0
  120.3032  104.1316  105.4551 H   0  0  0  0  0  0  0  0  0  0  0  0
  121.4524  103.5884  104.2371 H   0  0  0  0  0  0  0  0  0  0  0  0
  122.5976  107.1096  104.2449 H   0  0  0  0  0  0  0  0  0  0  0  0
  123.0823  105.4379  104.5300 H   0  0  0  0  0  0  0  0  0  0  0  0
  119.3123  105.9277  106.2237 H   0  0  0  0  0  0  0  0  0  0  0  0
  118.8905  107.5909  105.8461 H   0  0  0  0  0  0  0  0  0  0  0  0
  119.3389  102.7691  103.4340 H   0  0  0  0  0  0  0  0  0  0  0  0
  118.4936  104.2737  103.8619 H   0  0  0  0  0  0  0  0  0  0  0  0
  120.9891  106.6951  102.0870 H   0  0  0  0  0  0  0  0  0  0  0  0
  122.0969  105.3019  102.2141 H   0  0  0  0  0  0  0  0  0  0  0  0
  121.9090  105.4496  106.7148 H   0  0  0  0  0  0  0  0  0  0  0  0
  124.5113  104.9796  105.0609 H   0  0  0  0  0  0  0  0  0  0  0  0
  126.0563  105.2318  105.9141 H   0  0  0  0  0  0  0  0  0  0  0  0
  123.7133  107.6489  106.1449 H   0  0  0  0  0  0  0  0  0  0  0  0
  125.7315  106.7100  104.2028 H   0  0  0  0  0  0  0  0  0  0  0  0
  1  2  1  0  0  0  0
  1  3  1  0  0  0  0
  2  4  1  0  0  0  0
  3 13  1  0  0  0  0
  4 13  1  0  0  0  0
  5  8  1  0  0  0  0
  5 11  1  0  0  0  0
  6  9  1  0  0  0  0
  6 12  1  0  0  0  0
  7 11  1  0  0  0  0
  7 12  1  0  0  0  0
  8 16  1  0  0  0  0
  9 18  1  0  0  0  0
 10 12  1  0  0  0  0
 10 18  1  0  0  0  0
 11 15  1  0  0  0  0
 12 16  1  0  0  0  0
 13 14  1  0  0  0  0
 13 15  1  0  0  0  0
 14 17  1  0  0  0  0
  1 19  1  0  0  0  0
  1 20  1  0  0  0  0
  2 21  1  0  0  0  0
  2 22  1  0  0  0  0
  3 23  1  0  0  0  0
  3 24  1  0  0  0  0
  4 25  1  0  0  0  0
  4 26  1  0  0  0  0
  5 27  1  0  0  0  0
  5 28  1  0  0  0  0
  6 29  1  0  0  0  0
  6 30  1  0  0  0  0
  7 31  1  0  0  0  0
  7 32  1  0  0  0  0
  8 33  1  0  0  0  0
  8 34  1  0  0  0  0
  9 35  1  0  0  0  0
  9 36  1  0  0  0  0
 10 37  1  0  0  0  0
 10 38  1  0  0  0  0
 11 39  1  0  0  0  0
 14 40  1  0  0  0  0
 14 41  1  0  0  0  0
 15 42  1  0  0  0  0
 17 43  1  0  0  0  0
M  END
> <FRED Chemgauss4 score>
-6.955138

$$$$
C70680111	P109060696
  -OEChem-05182014473D

 32 32  0     1  0  0  0  0  0999 V2000
  118.2879  106.0164  105.4241 C   0  0  0  0  0  0  0  0  0  0  0  0
  122.4320  106.2733  105.1211 C   0  0  0  0  0  0  0  0  0  0  0  0
  123.6924  106.8801  105.6567 C   0  0  0  0  0  0  0  0  0  0  0  0
  117.8636  104.6386  104.9788 C   0  0  0  0  0  0  0  0  0  0  0  0
  118.6441  103.7189  105.9144 C   0  0  0  0  0  0  0  0  0  0  0  0
  119.9103  104.5030  106.2367 C   0  0  1  0  0  0  0  0  0  0  0  0
  121.0389  104.2281  105.2518 C   0  0  0  0  0  0  0  0  0  0  0  0
  125.8259  106.4076  108.1409 C   0  0  0  0  0  0  0  0  0  0  0  0
  124.8209  107.4878  107.7778 C   0  0  0  0  0  0  0  0  0  0  0  0
  119.4649  105.8720  106.1513 N   0  0  0  0  0  0  0  0  0  0  0  0
  126.3890  105.7769  106.9774 N   0  0  0  0  0  0  0  0  0  0  0  0
  122.1877  104.9961  105.6021 N   0  0  0  0  0  0  0  0  0  0  0  0
  123.7040  106.9585  107.0306 N   0  0  0  0  0  0  0  0  0  0  0  0
  117.7084  107.0568  105.1533 O   0  0  0  0  0  0  0  0  0  0  0  0
  121.7556  106.9419  104.3561 O   0  0  0  0  0  0  0  0  0  0  0  0
  124.5511  107.2138  104.8562 O   0  0  0  0  0  0  0  0  0  0  0  0
  116.7843  104.5076  105.0871 H   0  0  0  0  0  0  0  0  0  0  0  0
  118.1573  104.4962  103.9344 H   0  0  0  0  0  0  0  0  0  0  0  0
  118.0624  103.5707  106.8335 H   0  0  0  0  0  0  0  0  0  0  0  0
  118.8328  102.7329  105.4794 H   0  0  0  0  0  0  0  0  0  0  0  0
  120.2501  104.3066  107.2587 H   0  0  0  0  0  0  0  0  0  0  0  0
  120.7131  104.5080  104.2573 H   0  0  0  0  0  0  0  0  0  0  0  0
  121.2913  103.1755  105.2845 H   0  0  0  0  0  0  0  0  0  0  0  0
  125.3657  105.6219  108.7484 H   0  0  0  0  0  0  0  0  0  0  0  0
  126.6573  106.8420  108.7048 H   0  0  0  0  0  0  0  0  0  0  0  0
  124.4129  107.9459  108.6841 H   0  0  0  0  0  0  0  0  0  0  0  0
  125.2815  108.2727  107.1692 H   0  0  0  0  0  0  0  0  0  0  0  0
  119.9716  106.6544  106.5534 H   0  0  0  0  0  0  0  0  0  0  0  0
  125.7942  105.5826  106.1878 H   0  0  0  0  0  0  0  0  0  0  0  0
  127.3031  105.3578  107.0401 H   0  0  0  0  0  0  0  0  0  0  0  0
  122.8701  104.5815  106.2442 H   0  0  0  0  0  0  0  0  0  0  0  0
  122.8949  106.6367  107.5540 H   0  0  0  0  0  0  0  0  0  0  0  0
  1  4  1  0  0  0  0
  1 10  1  0  0  0  0
  1 14  2  0  0  0  0
  2  3  1  0  0  0  0
  2 12  1  0  0  0  0
  2 15  2  0  0  0  0
  3 13  1  0  0  0  0
  3 16  2  0  0  0  0
  4  5  1  0  0  0  0
  5  6  1  0  0  0  0
  6  7  1  0  0  0  0
  6 10  1  0  0  0  0
  7 12  1  0  0  0  0
  8  9  1  0  0  0  0
  8 11  1  0  0  0  0
  9 13  1  0  0  0  0
  4 17  1  0  0  0  0
  4 18  1  0  0  0  0
  5 19  1  0  0  0  0
  5 20  1  0  0  0  0
  6 21  1  0  0  0  0
  7 22  1  0  0  0  0
  7 23  1  0  0  0  0
  8 24  1  0  0  0  0
  8 25  1  0  0  0  0
  9 26  1  0  0  0  0
  9 27  1  0  0  0  0
 10 28  1  0  0  0  0
 11 29  1  0  0  0  0
 11 30  1  0  0  0  0
 12 31  1  0  0  0  0
 13 32  1  0  0  0  0
M  END
> <FRED Chemgauss4 score>
-6.954184

$$$$
C42920684	P64883579
  -OEChem-05182014473D

 19 19  0     1  0  0  0  0  0999 V2000
  122.7189  107.2174  106.2152 C   0  0  0  0  0  0  0  0  0  0  0  0
  123.9724  107.8274  106.7957 C   0  0  0  0  0  0  0  0  0  0  0  0
  122.2933  106.2634  108.4646 C   0  0  0  0  0  0  0  0  0  0  0  0
  123.8007  106.1572  108.6399 C   0  0  1  0  0  0  0  0  0  0  0  0
  124.3601  104.8364  108.1158 C   0  0  0  0  0  0  0  0  0  0  0  0
  121.9581  106.4485  107.0691 N   0  0  0  0  0  0  0  0  0  0  0  0
  124.4333  107.2853  107.9765 N   0  0  0  0  0  0  0  0  0  0  0  0
  125.7718  104.8037  108.3004 N   0  0  0  0  0  0  0  0  0  0  0  0
  122.4626  107.4421  105.0399 O   0  0  0  0  0  0  0  0  0  0  0  0
  124.4926  108.7539  106.1882 O   0  0  0  0  0  0  0  0  0  0  0  0
  121.7735  105.3723  108.8301 H   0  0  0  0  0  0  0  0  0  0  0  0
  121.9022  107.1352  109.0015 H   0  0  0  0  0  0  0  0  0  0  0  0
  124.0457  106.2377  109.7052 H   0  0  0  0  0  0  0  0  0  0  0  0
  124.1343  104.7582  107.0605 H   0  0  0  0  0  0  0  0  0  0  0  0
  123.9079  104.0208  108.6637 H   0  0  0  0  0  0  0  0  0  0  0  0
  121.0916  106.0507  106.7202 H   0  0  0  0  0  0  0  0  0  0  0  0
  125.2838  107.6657  108.3802 H   0  0  0  0  0  0  0  0  0  0  0  0
  126.3152  105.6536  108.1936 H   0  0  0  0  0  0  0  0  0  0  0  0
  126.2562  103.9129  108.3352 H   0  0  0  0  0  0  0  0  0  0  0  0
  1  2  1  0  0  0  0
  1  6  1  0  0  0  0
  1  9  2  0  0  0  0
  2  7  1  0  0  0  0
  2 10  2  0  0  0  0
  3  4  1  0  0  0  0
  3  6  1  0  0  0  0
  4  5  1  0  0  0  0
  4  7  1  0  0  0  0
  5  8  1  0  0  0  0
  3 11  1  0  0  0  0
  3 12  1  0  0  0  0
  4 13  1  0  0  0  0
  5 14  1  0  0  0  0
  5 15  1  0  0  0  0
  6 16  1  0  0  0  0
  7 17  1  0  0  0  0
  8 18  1  0  0  0  0
  8 19  1  0  0  0  0
M  END
> <FRED Chemgauss4 score>
-6.950399

$$$$
C38038841	P57193979
  -OEChem-05182014473D

 24 24  0     0  0  0  0  0  0999 V2000
  123.1482  106.5847  107.3055 C   0  0  0  0  0  0  0  0  0  0  0  0
  124.5844  107.3278  105.9855 C   0  0  0  0  0  0  0  0  0  0  0  0
  120.6325  106.6850  104.4682 C   0  0  0  0  0  0  0  0  0  0  0  0
  120.9181  104.9251  102.7266 C   0  0  0  0  0  0  0  0  0  0  0  0
  118.7160  104.1738  104.7577 C   0  0  0  0  0  0  0  0  0  0  0  0
  120.9303  106.8935  105.9464 C   0  0  0  0  0  0  0  0  0  0  0  0
  124.4909  106.8021  107.1848 N   0  0  0  0  0  0  0  0  0  0  0  0
  123.3476  107.4149  105.4264 N   0  0  0  0  0  0  0  0  0  0  0  0
  122.4050  106.9428  106.2563 N   0  0  0  0  0  0  0  0  0  0  0  0
  125.7718  107.7015  105.4561 N   0  0  0  0  0  0  0  0  0  0  0  0
  120.5587  105.3724  104.0601 N   0  0  0  0  0  0  0  0  0  0  0  0
  120.4798  107.6370  103.7000 O   0  0  0  0  0  0  0  0  0  0  0  0
  120.1266  104.3220  104.8917 O   0  0  0  0  0  0  0  0  0  0  0  0
  122.7163  106.1487  108.1975 H   0  0  0  0  0  0  0  0  0  0  0  0
  121.9776  104.6582  102.6927 H   0  0  0  0  0  0  0  0  0  0  0  0
  120.7317  105.7192  101.9985 H   0  0  0  0  0  0  0  0  0  0  0  0
  120.3254  104.0492  102.4492 H   0  0  0  0  0  0  0  0  0  0  0  0
  118.3717  103.3599  105.4003 H   0  0  0  0  0  0  0  0  0  0  0  0
  118.4688  103.9587  103.7151 H   0  0  0  0  0  0  0  0  0  0  0  0
  118.2305  105.1045  105.0607 H   0  0  0  0  0  0  0  0  0  0  0  0
  120.4626  107.8284  106.2785 H   0  0  0  0  0  0  0  0  0  0  0  0
  120.4689  106.0830  106.5220 H   0  0  0  0  0  0  0  0  0  0  0  0
  126.6510  107.6347  105.9871 H   0  0  0  0  0  0  0  0  0  0  0  0
  125.8392  108.1567  104.5354 H   0  0  0  0  0  0  0  0  0  0  0  0
  1  7  2  0  0  0  0
  1  9  1  0  0  0  0
  2  7  1  0  0  0  0
  2  8  2  0  0  0  0
  2 10  1  0  0  0  0
  3  6  1  0  0  0  0
  3 11  1  0  0  0  0
  3 12  2  0  0  0  0
  4 11  1  0  0  0  0
  5 13  1  0  0  0  0
  6  9  1  0  0  0  0
  8  9  1  0  0  0  0
 11 13  1  0  0  0  0
  1 14  1  0  0  0  0
  4 15  1  0  0  0  0
  4 16  1  0  0  0  0
  4 17  1  0  0  0  0
  5 18  1  0  0  0  0
  5 19  1  0  0  0  0
  5 20  1  0  0  0  0
  6 21  1  0  0  0  0
  6 22  1  0  0  0  0
 10 23  1  0  0  0  0
 10 24  1  0  0  0  0
M  END
> <FRED Chemgauss4 score>
-6.948945

$$$$
C90953253	P142274861
  -OEChem-05182014473D

 31 32  0     1  0  0  0  0  0999 V2000
  120.0246  104.7583  106.1864 C   0  0  0  0  0  0  0  0  0  0  0  0
  120.1162  105.9509  105.4997 C   0  0  0  0  0  0  0  0  0  0  0  0
  124.7423  106.3102  106.7810 C   0  0  0  0  0  0  0  0  0  0  0  0
  117.9478  105.6545  105.3580 C   0  0  0  0  0  0  0  0  0  0  0  0
  121.3506  106.6475  105.2705 C   0  0  0  0  0  0  0  0  0  0  0  0
  123.5858  108.5584  106.7616 C   0  0  0  0  0  0  0  0  0  0  0  0
  116.5031  105.8801  105.0170 C   0  0  0  0  0  0  0  0  0  0  0  0
  115.9937  105.0014  103.8791 C   0  0  0  0  0  0  0  0  0  0  0  0
  123.6568  107.1587  106.1545 C   0  0  2  0  0  0  0  0  0  0  0  0
  126.0078  106.2773  106.3221 N   0  5  0  0  0  0  0  0  0  0  0  0
  118.9264  106.4661  105.0236 N   0  0  0  0  0  0  0  0  0  0  0  0
  124.5324  105.5177  107.8494 N   0  0  0  0  0  0  0  0  0  0  0  0
  126.6312  105.4081  107.1567 N   0  0  0  0  0  0  0  0  0  0  0  0
  125.7449  104.9517  108.0742 N   0  0  0  0  0  0  0  0  0  0  0  0
  122.3701  106.5051  106.2314 N   0  0  0  0  0  0  0  0  0  0  0  0
  116.1857  103.5672  104.2077 N   0  3  0  0  0  0  0  0  0  0  0  0
  121.5090  107.3740  104.2615 O   0  0  0  0  0  0  0  0  0  0  0  0
  118.3867  104.2533  106.2462 S   0  0  0  0  0  0  0  0  0  0  0  0
  120.8117  104.1752  106.6436 H   0  0  0  0  0  0  0  0  0  0  0  0
  123.3823  108.5121  107.8371 H   0  0  0  0  0  0  0  0  0  0  0  0
  124.5346  109.0876  106.6183 H   0  0  0  0  0  0  0  0  0  0  0  0
  122.8037  109.1682  106.2957 H   0  0  0  0  0  0  0  0  0  0  0  0
  115.8976  105.6749  105.9099 H   0  0  0  0  0  0  0  0  0  0  0  0
  116.3283  106.9373  104.7784 H   0  0  0  0  0  0  0  0  0  0  0  0
  116.5619  105.1854  102.9624 H   0  0  0  0  0  0  0  0  0  0  0  0
  114.9272  105.1421  103.6787 H   0  0  0  0  0  0  0  0  0  0  0  0
  123.8617  107.2705  105.0827 H   0  0  0  0  0  0  0  0  0  0  0  0
  122.1789  105.9589  107.0650 H   0  0  0  0  0  0  0  0  0  0  0  0
  115.3782  103.0109  103.9079 H   0  0  0  0  0  0  0  0  0  0  0  0
  116.3027  103.4357  105.2182 H   0  0  0  0  0  0  0  0  0  0  0  0
  117.0188  103.1926  103.7414 H   0  0  0  0  0  0  0  0  0  0  0  0
  1  2  2  0  0  0  0
  1 18  1  0  0  0  0
  2  5  1  0  0  0  0
  2 11  1  0  0  0  0
  3  9  1  0  0  0  0
  3 10  1  0  0  0  0
  3 12  2  0  0  0  0
  4  7  1  0  0  0  0
  4 11  2  0  0  0  0
  4 18  1  0  0  0  0
  5 15  1  0  0  0  0
  5 17  2  0  0  0  0
  6  9  1  0  0  0  0
  7  8  1  0  0  0  0
  8 16  1  0  0  0  0
  9 15  1  0  0  0  0
 10 13  1  0  0  0  0
 12 14  1  0  0  0  0
 13 14  2  0  0  0  0
  1 19  1  0  0  0  0
  6 20  1  0  0  0  0
  6 21  1  0  0  0  0
  6 22  1  0  0  0  0
  7 23  1  0  0  0  0
  7 24  1  0  0  0  0
  8 25  1  0  0  0  0
  8 26  1  0  0  0  0
  9 27  1  0  0  0  0
 15 28  1  0  0  0  0
 16 29  1  0  0  0  0
 16 30  1  0  0  0  0
 16 31  1  0  0  0  0
M  CHG  2  10  -1  16   1
M  END
> <FRED Chemgauss4 score>
-6.946918

$$$$
C82399830	P128760099
  -OEChem-05182014473D

 20 20  0     1  0  0  0  0  0999 V2000
  120.3554  105.7190  105.4600 C   0  0  0  0  0  0  0  0  0  0  0  0
  122.4838  105.4536  106.5480 C   0  0  0  0  0  0  0  0  0  0  0  0
  120.9352  106.7116  104.6865 C   0  0  0  0  0  0  0  0  0  0  0  0
  121.1512  105.0829  106.4062 C   0  0  0  0  0  0  0  0  0  0  0  0
  122.9685  106.4579  105.7257 C   0  0  0  0  0  0  0  0  0  0  0  0
  124.7465  107.4317  107.2437 C   0  0  0  0  0  0  0  0  0  0  0  0
  124.3944  106.8807  105.8504 C   0  0  2  0  0  0  0  0  0  0  0  0
  122.2259  107.0988  104.7953 N   0  0  0  0  0  0  0  0  0  0  0  0
  124.7557  107.8678  104.8445 N   0  0  0  0  0  0  0  0  0  0  0  0
  126.1096  107.8426  107.2731 O   0  0  0  0  0  0  0  0  0  0  0  0
  120.4887  103.8432  107.3977 Cl  0  0  0  0  0  0  0  0  0  0  0  0
  119.3120  105.4557  105.3214 H   0  0  0  0  0  0  0  0  0  0  0  0
  123.1277  104.9736  107.2784 H   0  0  0  0  0  0  0  0  0  0  0  0
  120.3570  107.2378  103.9342 H   0  0  0  0  0  0  0  0  0  0  0  0
  124.1313  108.3083  107.4750 H   0  0  0  0  0  0  0  0  0  0  0  0
  124.5967  106.6812  108.0274 H   0  0  0  0  0  0  0  0  0  0  0  0
  125.0685  106.0291  105.6492 H   0  0  0  0  0  0  0  0  0  0  0  0
  124.3529  107.7861  103.9334 H   0  0  0  0  0  0  0  0  0  0  0  0
  125.5366  108.4651  105.0251 H   0  0  0  0  0  0  0  0  0  0  0  0
  126.2787  108.1794  108.1670 H   0  0  0  0  0  0  0  0  0  0  0  0
  1  3  1  0  0  0  0
  1  4  2  0  0  0  0
  2  4  1  0  0  0  0
  2  5  2  0  0  0  0
  3  8  2  0  0  0  0
  4 11  1  0  0  0  0
  5  7  1  0  0  0  0
  5  8  1  0  0  0  0
  6  7  1  0  0  0  0
  6 10  1  0  0  0  0
  7  9  1  0  0  0  0
  1 12  1  0  0  0  0
  2 13  1  0  0  0  0
  3 14  1  0  0  0  0
  6 15  1  0  0  0  0
  6 16  1  0  0  0  0
  7 17  1  0  0  0  0
  9 18  1  0  0  0  0
  9 19  1  0  0  0  0
 10 20  1  0  0  0  0
M  END
> <FRED Chemgauss4 score>
-6.946248

$$$$
C03672342	P06747335
  -OEChem-05182014473D

 29 29  0     0  0  0  0  0  0999 V2000
  116.6932  105.5534  103.8385 C   0  0  0  0  0  0  0  0  0  0  0  0
  116.9109  105.3321  105.1780 C   0  0  0  0  0  0  0  0  0  0  0  0
  118.3087  104.1706  103.9316 C   0  0  0  0  0  0  0  0  0  0  0  0
  123.9258  106.8049  105.9521 C   0  0  0  0  0  0  0  0  0  0  0  0
  122.4738  106.6395  105.6235 C   0  0  0  0  0  0  0  0  0  0  0  0
  125.4457  107.6984  107.6933 C   0  0  0  0  0  0  0  0  0  0  0  0
  120.0624  104.1746  106.4882 C   0  0  0  0  0  0  0  0  0  0  0  0
  118.5608  103.8886  106.4251 C   0  0  0  0  0  0  0  0  0  0  0  0
  120.3698  105.6678  106.5015 C   0  0  0  0  0  0  0  0  0  0  0  0
  117.5665  104.8272  103.0679 N   0  0  0  0  0  0  0  0  0  0  0  0
  117.9484  104.4438  105.2218 N   0  0  0  0  0  0  0  0  0  0  0  0
  124.1306  107.4452  107.1530 N   0  0  0  0  0  0  0  0  0  0  0  0
  121.7863  105.9365  106.5864 N   0  0  0  0  0  0  0  0  0  0  0  0
  124.7447  106.3579  105.1650 O   0  0  0  0  0  0  0  0  0  0  0  0
  122.0617  107.1377  104.5883 O   0  0  0  0  0  0  0  0  0  0  0  0
  115.9521  106.1986  103.3899 H   0  0  0  0  0  0  0  0  0  0  0  0
  116.4348  105.7155  106.0697 H   0  0  0  0  0  0  0  0  0  0  0  0
  119.1126  103.4905  103.6848 H   0  0  0  0  0  0  0  0  0  0  0  0
  125.7621  106.8606  108.3202 H   0  0  0  0  0  0  0  0  0  0  0  0
  125.4364  108.6080  108.3000 H   0  0  0  0  0  0  0  0  0  0  0  0
  126.1692  107.8248  106.8834 H   0  0  0  0  0  0  0  0  0  0  0  0
  120.5675  103.6979  105.6386 H   0  0  0  0  0  0  0  0  0  0  0  0
  120.4808  103.7225  107.3962 H   0  0  0  0  0  0  0  0  0  0  0  0
  118.0357  104.3148  107.2878 H   0  0  0  0  0  0  0  0  0  0  0  0
  118.3663  102.8094  106.4289 H   0  0  0  0  0  0  0  0  0  0  0  0
  119.9879  106.1600  105.6015 H   0  0  0  0  0  0  0  0  0  0  0  0
  119.9022  106.1389  107.3720 H   0  0  0  0  0  0  0  0  0  0  0  0
  123.3206  107.7535  107.6829 H   0  0  0  0  0  0  0  0  0  0  0  0
  122.2873  105.5817  107.3958 H   0  0  0  0  0  0  0  0  0  0  0  0
  1  2  2  0  0  0  0
  1 10  1  0  0  0  0
  2 11  1  0  0  0  0
  3 10  2  0  0  0  0
  3 11  1  0  0  0  0
  4  5  1  0  0  0  0
  4 12  1  0  0  0  0
  4 14  2  0  0  0  0
  5 13  1  0  0  0  0
  5 15  2  0  0  0  0
  6 12  1  0  0  0  0
  7  8  1  0  0  0  0
  7  9  1  0  0  0  0
  8 11  1  0  0  0  0
  9 13  1  0  0  0  0
  1 16  1  0  0  0  0
  2 17  1  0  0  0  0
  3 18  1  0  0  0  0
  6 19  1  0  0  0  0
  6 20  1  0  0  0  0
  6 21  1  0  0  0  0
  7 22  1  0  0  0  0
  7 23  1  0  0  0  0
  8 24  1  0  0  0  0
  8 25  1  0  0  0  0
  9 26  1  0  0  0  0
  9 27  1  0  0  0  0
 12 28  1  0  0  0  0
 13 29  1  0  0  0  0
M  END
> <FRED Chemgauss4 score>
-6.941143

$$$$
C95881887	P150922172
  -OEChem-05182014473D

 16 17  0     1  0  0  0  0  0999 V2000
  123.4951  104.6455  107.7008 C   0  0  0  0  0  0  0  0  0  0  0  0
  124.8126  106.8491  107.3583 C   0  0  0  0  0  0  0  0  0  0  0  0
  125.0121  106.1183  108.6236 C   0  0  0  0  0  0  0  0  0  0  0  0
  124.9884  107.7594  105.5224 C   0  0  0  0  0  0  0  0  0  0  0  0
  123.4710  106.7773  106.7441 C   0  0  2  0  0  0  0  0  0  0  0  0
  123.0764  105.3758  106.7152 N   0  0  0  0  0  0  0  0  0  0  0  0
  124.3111  105.0315  108.7482 N   0  0  0  0  0  0  0  0  0  0  0  0
  125.6951  107.4703  106.6609 N   0  0  0  0  0  0  0  0  0  0  0  0
  123.7491  107.3762  105.4209 N   0  0  0  0  0  0  0  0  0  0  0  0
  125.8845  106.6330  109.5388 N   0  0  0  0  0  0  0  0  0  0  0  0
  125.6633  108.4056  104.5513 O   0  0  0  0  0  0  0  0  0  0  0  0
  123.1793  103.5894  107.7199 H   0  0  0  0  0  0  0  0  0  0  0  0
  122.7488  107.3874  107.2965 H   0  0  0  0  0  0  0  0  0  0  0  0
  126.3560  107.4834  109.3216 H   0  0  0  0  0  0  0  0  0  0  0  0
  126.0219  106.1420  110.3948 H   0  0  0  0  0  0  0  0  0  0  0  0
  125.0997  108.5770  103.7756 H   0  0  0  0  0  0  0  0  0  0  0  0
  1  6  2  0  0  0  0
  1  7  1  0  0  0  0
  2  3  1  0  0  0  0
  2  5  1  0  0  0  0
  2  8  2  0  0  0  0
  3  7  2  0  0  0  0
  3 10  1  0  0  0  0
  4  8  1  0  0  0  0
  4  9  2  0  0  0  0
  4 11  1  0  0  0  0
  5  6  1  0  0  0  0
  5  9  1  0  0  0  0
  1 12  1  0  0  0  0
  5 13  1  0  0  0  0
 10 14  1  0  0  0  0
 10 15  1  0  0  0  0
 11 16  1  0  0  0  0
M  END
> <FRED Chemgauss4 score>
-6.940084

$$$$
C85619734	P134078263
  -OEChem-05182014473D

 30 30  0     1  0  0  0  0  0999 V2000
  121.5812  106.5445  105.3770 C   0  0  0  0  0  0  0  0  0  0  0  0
  117.6581  103.5277  105.4390 C   0  0  0  0  0  0  0  0  0  0  0  0
  119.5917  104.2483  104.2244 C   0  0  0  0  0  0  0  0  0  0  0  0
  118.4530  103.6161  106.7350 C   0  0  0  0  0  0  0  0  0  0  0  0
  120.3941  104.3151  105.5274 C   0  0  1  0  0  0  0  0  0  0  0  0
  120.5209  105.7297  106.0910 C   0  0  0  0  0  0  0  0  0  0  0  0
  125.2157  106.7800  106.3911 C   0  0  0  0  0  0  0  0  0  0  0  0
  124.0068  107.0904  105.5246 C   0  0  0  0  0  0  0  0  0  0  0  0
  118.1678  104.4909  104.4626 N   0  0  0  0  0  0  0  0  0  0  0  0
  126.3987  107.4597  105.9359 N   0  0  0  0  0  0  0  0  0  0  0  0
  122.8160  106.4220  105.9972 N   0  0  0  0  0  0  0  0  0  0  0  0
  121.3536  107.2184  104.3759 O   0  0  0  0  0  0  0  0  0  0  0  0
  119.8464  103.4128  106.4971 O   0  0  0  0  0  0  0  0  0  0  0  0
  117.7234  102.5159  105.0244 H   0  0  0  0  0  0  0  0  0  0  0  0
  116.5977  103.7350  105.6290 H   0  0  0  0  0  0  0  0  0  0  0  0
  119.9624  104.9931  103.5018 H   0  0  0  0  0  0  0  0  0  0  0  0
  119.7143  103.2628  103.7508 H   0  0  0  0  0  0  0  0  0  0  0  0
  118.3344  104.6132  107.1778 H   0  0  0  0  0  0  0  0  0  0  0  0
  118.0996  102.8867  107.4787 H   0  0  0  0  0  0  0  0  0  0  0  0
  121.4524  103.9522  105.3104 H   0  0  0  0  0  0  0  0  0  0  0  0
  120.7780  105.6751  107.1535 H   0  0  0  0  0  0  0  0  0  0  0  0
  119.5600  106.2450  105.9970 H   0  0  0  0  0  0  0  0  0  0  0  0
  125.4370  105.7080  106.3988 H   0  0  0  0  0  0  0  0  0  0  0  0
  125.0342  107.1057  107.4201 H   0  0  0  0  0  0  0  0  0  0  0  0
  123.7982  108.1646  105.5361 H   0  0  0  0  0  0  0  0  0  0  0  0
  124.1691  106.7794  104.4875 H   0  0  0  0  0  0  0  0  0  0  0  0
  117.6616  104.3717  103.5863 H   0  0  0  0  0  0  0  0  0  0  0  0
  126.5701  107.5377  104.9461 H   0  0  0  0  0  0  0  0  0  0  0  0
  127.1316  107.6653  106.5960 H   0  0  0  0  0  0  0  0  0  0  0  0
  122.8864  105.8344  106.8229 H   0  0  0  0  0  0  0  0  0  0  0  0
  1  6  1  0  0  0  0
  1 11  1  0  0  0  0
  1 12  2  0  0  0  0
  2  4  1  0  0  0  0
  2  9  1  0  0  0  0
  3  5  1  0  0  0  0
  3  9  1  0  0  0  0
  4 13  1  0  0  0  0
  5  6  1  0  0  0  0
  5 13  1  0  0  0  0
  7  8  1  0  0  0  0
  7 10  1  0  0  0  0
  8 11  1  0  0  0  0
  2 14  1  0  0  0  0
  2 15  1  0  0  0  0
  3 16  1  0  0  0  0
  3 17  1  0  0  0  0
  4 18  1  0  0  0  0
  4 19  1  0  0  0  0
  5 20  1  0  0  0  0
  6 21  1  0  0  0  0
  6 22  1  0  0  0  0
  7 23  1  0  0  0  0
  7 24  1  0  0  0  0
  8 25  1  0  0  0  0
  8 26  1  0  0  0  0
  9 27  1  0  0  0  0
 10 28  1  0  0  0  0
 10 29  1  0  0  0  0
 11 30  1  0  0  0  0
M  END
> <FRED Chemgauss4 score>
-6.939554

$$$$
C69506335	P122369156
  -OEChem-05182014473D

 38 39  0     1  0  0  0  0  0999 V2000
  122.4568  106.4623  107.7232 C   0  0  0  0  0  0  0  0  0  0  0  0
  121.7046  106.9463  105.5861 C   0  0  0  0  0  0  0  0  0  0  0  0
  117.6754  104.4913  105.7336 C   0  0  0  0  0  0  0  0  0  0  0  0
  118.6258  105.6821  105.8796 C   0  0  0  0  0  0  0  0  0  0  0  0
  118.5537  103.2470  105.5658 C   0  0  0  0  0  0  0  0  0  0  0  0
  122.7215  107.4218  106.5933 C   0  0  2  0  0  0  0  0  0  0  0  0
  120.0158  105.1260  105.5823 C   0  0  2  0  0  0  0  0  0  0  0  0
  119.9389  103.6714  106.0406 C   0  0  1  0  0  0  0  0  0  0  0  0
  123.0442  107.8687  109.6681 C   0  0  0  0  0  0  0  0  0  0  0  0
  123.2090  106.5143  109.0085 C   0  0  0  0  0  0  0  0  0  0  0  0
  124.1314  107.3061  106.0505 C   0  0  0  0  0  0  0  0  0  0  0  0
  125.1642  108.0219  106.9173 C   0  0  0  0  0  0  0  0  0  0  0  0
  121.5214  105.6004  107.4718 N   0  0  0  0  0  0  0  0  0  0  0  0
  121.0649  105.8762  106.2098 N   0  0  0  0  0  0  0  0  0  0  0  0
  126.4926  107.9186  106.3798 N   0  0  0  0  0  0  0  0  0  0  0  0
  121.5168  107.4144  104.4756 O   0  0  0  0  0  0  0  0  0  0  0  0
  120.0217  103.5539  107.4575 O   0  0  0  0  0  0  0  0  0  0  0  0
  117.0436  104.3846  106.6237 H   0  0  0  0  0  0  0  0  0  0  0  0
  117.0079  104.6291  104.8752 H   0  0  0  0  0  0  0  0  0  0  0  0
  118.3652  106.4427  105.1319 H   0  0  0  0  0  0  0  0  0  0  0  0
  118.5471  106.1474  106.8687 H   0  0  0  0  0  0  0  0  0  0  0  0
  118.1644  102.4155  106.1649 H   0  0  0  0  0  0  0  0  0  0  0  0
  118.5752  102.9018  104.5272 H   0  0  0  0  0  0  0  0  0  0  0  0
  122.4810  108.4407  106.9101 H   0  0  0  0  0  0  0  0  0  0  0  0
  120.2409  105.1746  104.4832 H   0  0  0  0  0  0  0  0  0  0  0  0
  120.6975  103.0712  105.5831 H   0  0  0  0  0  0  0  0  0  0  0  0
  123.4166  108.6624  109.0133 H   0  0  0  0  0  0  0  0  0  0  0  0
  123.5965  107.9143  110.6129 H   0  0  0  0  0  0  0  0  0  0  0  0
  121.9914  108.0726  109.8896 H   0  0  0  0  0  0  0  0  0  0  0  0
  122.8365  105.7203  109.6634 H   0  0  0  0  0  0  0  0  0  0  0  0
  124.2648  106.3194  108.7957 H   0  0  0  0  0  0  0  0  0  0  0  0
  124.1622  107.7390  105.0414 H   0  0  0  0  0  0  0  0  0  0  0  0
  124.4006  106.2455  105.9513 H   0  0  0  0  0  0  0  0  0  0  0  0
  124.9284  109.0886  106.9843 H   0  0  0  0  0  0  0  0  0  0  0  0
  125.1803  107.6121  107.9321 H   0  0  0  0  0  0  0  0  0  0  0  0
  127.2831  108.0076  106.9994 H   0  0  0  0  0  0  0  0  0  0  0  0
  126.6248  107.9637  105.3812 H   0  0  0  0  0  0  0  0  0  0  0  0
  119.8583  102.6205  107.6794 H   0  0  0  0  0  0  0  0  0  0  0  0
  1  6  1  0  0  0  0
  1 10  1  0  0  0  0
  1 13  2  0  0  0  0
  2  6  1  0  0  0  0
  2 14  1  0  0  0  0
  2 16  2  0  0  0  0
  3  4  1  0  0  0  0
  3  5  1  0  0  0  0
  4  7  1  0  0  0  0
  5  8  1  0  0  0  0
  6 11  1  0  0  0  0
  7  8  1  0  0  0  0
  7 14  1  0  0  0  0
  8 17  1  0  0  0  0
  9 10  1  0  0  0  0
 11 12  1  0  0  0  0
 12 15  1  0  0  0  0
 13 14  1  0  0  0  0
  3 18  1  0  0  0  0
  3 19  1  0  0  0  0
  4 20  1  0  0  0  0
  4 21  1  0  0  0  0
  5 22  1  0  0  0  0
  5 23  1  0  0  0  0
  6 24  1  0  0  0  0
  7 25  1  0  0  0  0
  8 26  1  0  0  0  0
  9 27  1  0  0  0  0
  9 28  1  0  0  0  0
  9 29  1  0  0  0  0
 10 30  1  0  0  0  0
 10 31  1  0  0  0  0
 11 32  1  0  0  0  0
 11 33  1  0  0  0  0
 12 34  1  0  0  0  0
 12 35  1  0  0  0  0
 15 36  1  0  0  0  0
 15 37  1  0  0  0  0
 17 38  1  0  0  0  0
M  END
> <FRED Chemgauss4 score>
-6.936913

$$$$
C40710569	P61812514
  -OEChem-05182014473D

 28 28  0     1  0  0  0  0  0999 V2000
  122.4595  106.6551  105.9147 C   0  0  0  0  0  0  0  0  0  0  0  0
  124.2087  105.6808  106.4346 C   0  0  0  0  0  0  0  0  0  0  0  0
  120.4311  107.0929  107.3457 C   0  0  0  0  0  0  0  0  0  0  0  0
  120.1520  106.2272  104.9946 C   0  0  0  0  0  0  0  0  0  0  0  0
  125.1995  104.5817  108.5156 C   0  0  0  0  0  0  0  0  0  0  0  0
  125.2050  105.8554  109.3545 C   0  0  0  0  0  0  0  0  0  0  0  0
  121.0540  107.0757  105.9266 C   0  0  0  0  0  0  0  0  0  0  0  0
  125.3358  104.8475  107.0078 C   0  0  2  0  0  0  0  0  0  0  0  0
  122.9559  105.7507  106.8078 N   0  0  0  0  0  0  0  0  0  0  0  0
  123.3347  107.1345  105.0259 N   0  0  0  0  0  0  0  0  0  0  0  0
  126.6128  105.4650  106.7205 N   0  0  0  0  0  0  0  0  0  0  0  0
  124.5196  106.4755  105.3772 O   0  0  0  0  0  0  0  0  0  0  0  0
  126.4246  106.5488  109.1234 O   0  0  0  0  0  0  0  0  0  0  0  0
  120.4823  106.1037  107.8134 H   0  0  0  0  0  0  0  0  0  0  0  0
  119.3800  107.4010  107.3342 H   0  0  0  0  0  0  0  0  0  0  0  0
  120.9789  107.7935  107.9859 H   0  0  0  0  0  0  0  0  0  0  0  0
  120.1959  105.1730  105.2901 H   0  0  0  0  0  0  0  0  0  0  0  0
  120.4595  106.2942  103.9453 H   0  0  0  0  0  0  0  0  0  0  0  0
  119.1062  106.5477  105.0551 H   0  0  0  0  0  0  0  0  0  0  0  0
  124.2614  104.0425  108.7075 H   0  0  0  0  0  0  0  0  0  0  0  0
  125.9871  103.9057  108.8741 H   0  0  0  0  0  0  0  0  0  0  0  0
  124.3787  106.5182  109.0807 H   0  0  0  0  0  0  0  0  0  0  0  0
  125.1367  105.6199  110.4212 H   0  0  0  0  0  0  0  0  0  0  0  0
  120.9468  108.1213  105.5541 H   0  0  0  0  0  0  0  0  0  0  0  0
  125.3700  103.8784  106.4941 H   0  0  0  0  0  0  0  0  0  0  0  0
  126.7265  105.9562  105.8532 H   0  0  0  0  0  0  0  0  0  0  0  0
  127.4045  105.2206  107.2860 H   0  0  0  0  0  0  0  0  0  0  0  0
  126.3976  107.3512  109.6690 H   0  0  0  0  0  0  0  0  0  0  0  0
  1  7  1  0  0  0  0
  1  9  1  0  0  0  0
  1 10  2  0  0  0  0
  2  8  1  0  0  0  0
  2  9  2  0  0  0  0
  2 12  1  0  0  0  0
  3  7  1  0  0  0  0
  4  7  1  0  0  0  0
  5  6  1  0  0  0  0
  5  8  1  0  0  0  0
  6 13  1  0  0  0  0
  8 11  1  0  0  0  0
 10 12  1  0  0  0  0
  3 14  1  0  0  0  0
  3 15  1  0  0  0  0
  3 16  1  0  0  0  0
  4 17  1  0  0  0  0
  4 18  1  0  0  0  0
  4 19  1  0  0  0  0
  5 20  1  0  0  0  0
  5 21  1  0  0  0  0
  6 22  1  0  0  0  0
  6 23  1  0  0  0  0
  7 24  1  0  0  0  0
  8 25  1  0  0  0  0
 11 26  1  0  0  0  0
 11 27  1  0  0  0  0
 13 28  1  0  0  0  0
M  END
> <FRED Chemgauss4 score>
-6.934780

$$$$
C87588301	P137003098
  -OEChem-05182014473D

 27 28  0     1  0  0  0  0  0999 V2000
  126.0011  105.0590  108.0250 C   0  0  0  0  0  0  0  0  0  0  0  0
  126.2031  105.9260  109.9584 C   0  0  0  0  0  0  0  0  0  0  0  0
  125.8197  106.4097  107.8428 C   0  0  0  0  0  0  0  0  0  0  0  0
  123.2131  106.4766  105.8650 C   0  0  0  0  0  0  0  0  0  0  0  0
  121.2954  105.8330  106.6504 C   0  0  0  0  0  0  0  0  0  0  0  0
  125.5349  107.2439  106.6147 C   0  0  0  0  0  0  0  0  0  0  0  0
  124.6995  106.4961  105.5515 C   0  0  2  0  0  0  0  0  0  0  0  0
  126.2390  104.7644  109.3442 N   0  0  0  0  0  0  0  0  0  0  0  0
  122.3175  107.3645  105.4963 N   0  0  0  0  0  0  0  0  0  0  0  0
  121.0974  106.9550  105.9960 N   0  0  0  0  0  0  0  0  0  0  0  0
  125.9516  106.9518  109.0902 N   0  0  0  0  0  0  0  0  0  0  0  0
  122.6134  105.4947  106.5937 N   0  0  0  0  0  0  0  0  0  0  0  0
  120.4093  105.0540  107.3117 N   0  0  0  0  0  0  0  0  0  0  0  0
  124.9454  107.0761  104.2242 N   0  0  0  0  0  0  0  0  0  0  0  0
  123.2393  104.3642  107.1679 N   0  0  0  0  0  0  0  0  0  0  0  0
  125.9728  104.2815  107.2749 H   0  0  0  0  0  0  0  0  0  0  0  0
  126.3491  106.0920  111.0163 H   0  0  0  0  0  0  0  0  0  0  0  0
  126.5014  107.5436  106.1856 H   0  0  0  0  0  0  0  0  0  0  0  0
  125.0458  108.1812  106.9110 H   0  0  0  0  0  0  0  0  0  0  0  0
  125.0547  105.4589  105.5003 H   0  0  0  0  0  0  0  0  0  0  0  0
  125.8784  107.9318  109.3303 H   0  0  0  0  0  0  0  0  0  0  0  0
  119.4181  105.3150  107.4074 H   0  0  0  0  0  0  0  0  0  0  0  0
  120.7018  104.2137  107.8295 H   0  0  0  0  0  0  0  0  0  0  0  0
  124.2690  106.9097  103.5168 H   0  0  0  0  0  0  0  0  0  0  0  0
  125.8550  107.4271  104.0368 H   0  0  0  0  0  0  0  0  0  0  0  0
  124.0479  104.0339  106.6312 H   0  0  0  0  0  0  0  0  0  0  0  0
  122.6167  103.5515  107.2265 H   0  0  0  0  0  0  0  0  0  0  0  0
  1  3  2  0  0  0  0
  1  8  1  0  0  0  0
  2  8  2  0  0  0  0
  2 11  1  0  0  0  0
  3  6  1  0  0  0  0
  3 11  1  0  0  0  0
  4  7  1  0  0  0  0
  4  9  2  0  0  0  0
  4 12  1  0  0  0  0
  5 10  2  0  0  0  0
  5 12  1  0  0  0  0
  5 13  1  0  0  0  0
  6  7  1  0  0  0  0
  7 14  1  0  0  0  0
  9 10  1  0  0  0  0
 12 15  1  0  0  0  0
  1 16  1  0  0  0  0
  2 17  1  0  0  0  0
  6 18  1  0  0  0  0
  6 19  1  0  0  0  0
  7 20  1  0  0  0  0
 11 21  1  0  0  0  0
 13 22  1  0  0  0  0
 13 23  1  0  0  0  0
 14 24  1  0  0  0  0
 14 25  1  0  0  0  0
 15 26  1  0  0  0  0
 15 27  1  0  0  0  0
M  END
> <FRED Chemgauss4 score>
-6.934573

$$$$
C71322880	P110269358
  -OEChem-05182014473D

 35 35  0     0  0  0  0  0  0999 V2000
  116.6294  105.5446  104.6211 C   0  0  0  0  0  0  0  0  0  0  0  0
  115.5597  105.9263  104.2302 C   0  0  0  0  0  0  0  0  0  0  0  0
  118.2102  104.8434  106.4049 C   0  0  0  0  0  0  0  0  0  0  0  0
  119.5553  104.4005  106.5614 C   0  0  0  0  0  0  0  0  0  0  0  0
  117.8971  105.0912  105.0865 C   0  0  0  0  0  0  0  0  0  0  0  0
  120.2192  104.3264  105.3565 C   0  0  0  0  0  0  0  0  0  0  0  0
  125.8913  107.0293  107.1632 C   0  0  0  0  0  0  0  0  0  0  0  0
  123.1549  105.4431  106.3404 C   0  0  0  0  0  0  0  0  0  0  0  0
  126.3715  108.4247  107.3885 C   0  0  0  0  0  0  0  0  0  0  0  0
  114.2505  106.3944  103.7512 C   0  0  0  0  0  0  0  0  0  0  0  0
  121.6370  103.9074  105.0949 C   0  0  0  0  0  0  0  0  0  0  0  0
  123.9906  105.4852  107.5942 C   0  0  0  0  0  0  0  0  0  0  0  0
  113.1777  106.2364  104.8199 C   0  0  0  0  0  0  0  0  0  0  0  0
  122.5077  104.2234  106.2042 N   0  0  0  0  0  0  0  0  0  0  0  0
  124.6552  106.7924  107.7003 N   0  0  0  0  0  0  0  0  0  0  0  0
  126.5971  106.2396  106.5469 O   0  0  0  0  0  0  0  0  0  0  0  0
  123.0694  106.3821  105.5535 O   0  0  0  0  0  0  0  0  0  0  0  0
  113.5142  107.0254  105.9544 O   0  0  0  0  0  0  0  0  0  0  0  0
  119.2218  104.7900  104.0440 S   0  0  0  0  0  0  0  0  0  0  0  0
  117.5149  104.9706  107.2257 H   0  0  0  0  0  0  0  0  0  0  0  0
  120.0093  104.1498  107.5118 H   0  0  0  0  0  0  0  0  0  0  0  0
  126.9421  108.5269  108.3255 H   0  0  0  0  0  0  0  0  0  0  0  0
  127.0529  108.7683  106.5937 H   0  0  0  0  0  0  0  0  0  0  0  0
  125.5822  109.1914  107.4447 H   0  0  0  0  0  0  0  0  0  0  0  0
  114.3310  107.4465  103.4546 H   0  0  0  0  0  0  0  0  0  0  0  0
  113.9659  105.8171  102.8645 H   0  0  0  0  0  0  0  0  0  0  0  0
  121.6942  102.8279  104.9180 H   0  0  0  0  0  0  0  0  0  0  0  0
  122.0356  104.4045  104.2043 H   0  0  0  0  0  0  0  0  0  0  0  0
  123.3508  105.3345  108.4687 H   0  0  0  0  0  0  0  0  0  0  0  0
  124.7496  104.6981  107.5607 H   0  0  0  0  0  0  0  0  0  0  0  0
  112.2157  106.5919  104.4369 H   0  0  0  0  0  0  0  0  0  0  0  0
  113.0693  105.1930  105.1350 H   0  0  0  0  0  0  0  0  0  0  0  0
  122.6531  103.5172  106.9200 H   0  0  0  0  0  0  0  0  0  0  0  0
  124.1858  107.5371  108.1838 H   0  0  0  0  0  0  0  0  0  0  0  0
  112.8064  106.8941  106.6055 H   0  0  0  0  0  0  0  0  0  0  0  0
  1  2  3  0  0  0  0
  1  5  1  0  0  0  0
  2 10  1  0  0  0  0
  3  4  1  0  0  0  0
  3  5  2  0  0  0  0
  4  6  2  0  0  0  0
  5 19  1  0  0  0  0
  6 11  1  0  0  0  0
  6 19  1  0  0  0  0
  7  9  1  0  0  0  0
  7 15  1  0  0  0  0
  7 16  2  0  0  0  0
  8 12  1  0  0  0  0
  8 14  1  0  0  0  0
  8 17  2  0  0  0  0
 10 13  1  0  0  0  0
 11 14  1  0  0  0  0
 12 15  1  0  0  0  0
 13 18  1  0  0  0  0
  3 20  1  0  0  0  0
  4 21  1  0  0  0  0
  9 22  1  0  0  0  0
  9 23  1  0  0  0  0
  9 24  1  0  0  0  0
 10 25  1  0  0  0  0
 10 26  1  0  0  0  0
 11 27  1  0  0  0  0
 11 28  1  0  0  0  0
 12 29  1  0  0  0  0
 12 30  1  0  0  0  0
 13 31  1  0  0  0  0
 13 32  1  0  0  0  0
 14 33  1  0  0  0  0
 15 34  1  0  0  0  0
 18 35  1  0  0  0  0
M  END
> <FRED Chemgauss4 score>
-6.929980

$$$$
C82578002	P129061742
  -OEChem-05182014473D

 30 30  0     1  0  0  0  0  0999 V2000
  117.4244  104.0366  104.2929 C   0  0  0  0  0  0  0  0  0  0  0  0
  118.4054  104.9983  104.3500 C   0  0  0  0  0  0  0  0  0  0  0  0
  118.4460  103.6988  106.1294 C   0  0  0  0  0  0  0  0  0  0  0  0
  122.6727  105.9266  105.9393 C   0  0  0  0  0  0  0  0  0  0  0  0
  123.9292  106.6986  108.8459 C   0  0  0  0  0  0  0  0  0  0  0  0
  121.4928  105.1519  105.3809 C   0  0  0  0  0  0  0  0  0  0  0  0
  120.1797  105.5272  106.0606 C   0  0  0  0  0  0  0  0  0  0  0  0
  125.2751  104.6256  108.2167 C   0  0  0  0  0  0  0  0  0  0  0  0
  124.4022  105.7813  107.7225 C   0  0  1  0  0  0  0  0  0  0  0  0
  117.4548  103.2311  105.4036 N   0  0  0  0  0  0  0  0  0  0  0  0
  119.0513  104.7694  105.5322 N   0  0  0  0  0  0  0  0  0  0  0  0
  126.4582  105.1009  108.8971 N   0  0  0  0  0  0  0  0  0  0  0  0
  123.2600  105.2623  107.0061 N   0  0  0  0  0  0  0  0  0  0  0  0
  123.0421  107.0067  105.4867 O   0  0  0  0  0  0  0  0  0  0  0  0
  116.6977  103.8834  103.5085 H   0  0  0  0  0  0  0  0  0  0  0  0
  118.6885  105.7955  103.6769 H   0  0  0  0  0  0  0  0  0  0  0  0
  118.7681  103.3081  107.0850 H   0  0  0  0  0  0  0  0  0  0  0  0
  123.3270  106.1615  109.5867 H   0  0  0  0  0  0  0  0  0  0  0  0
  124.7858  107.1291  109.3766 H   0  0  0  0  0  0  0  0  0  0  0  0
  123.3292  107.5238  108.4487 H   0  0  0  0  0  0  0  0  0  0  0  0
  121.4304  105.3473  104.3031 H   0  0  0  0  0  0  0  0  0  0  0  0
  121.6932  104.0810  105.5092 H   0  0  0  0  0  0  0  0  0  0  0  0
  119.9580  106.5934  105.9295 H   0  0  0  0  0  0  0  0  0  0  0  0
  120.2285  105.3458  107.1413 H   0  0  0  0  0  0  0  0  0  0  0  0
  125.5855  104.0011  107.3714 H   0  0  0  0  0  0  0  0  0  0  0  0
  124.7031  103.9885  108.8999 H   0  0  0  0  0  0  0  0  0  0  0  0
  124.9952  106.3809  107.0218 H   0  0  0  0  0  0  0  0  0  0  0  0
  126.9270  105.9147  108.5419 H   0  0  0  0  0  0  0  0  0  0  0  0
  126.9000  104.5046  109.5737 H   0  0  0  0  0  0  0  0  0  0  0  0
  122.8693  104.3708  107.2968 H   0  0  0  0  0  0  0  0  0  0  0  0
  1  2  2  0  0  0  0
  1 10  1  0  0  0  0
  2 11  1  0  0  0  0
  3 10  2  0  0  0  0
  3 11  1  0  0  0  0
  4  6  1  0  0  0  0
  4 13  1  0  0  0  0
  4 14  2  0  0  0  0
  5  9  1  0  0  0  0
  6  7  1  0  0  0  0
  7 11  1  0  0  0  0
  8  9  1  0  0  0  0
  8 12  1  0  0  0  0
  9 13  1  0  0  0  0
  1 15  1  0  0  0  0
  2 16  1  0  0  0  0
  3 17  1  0  0  0  0
  5 18  1  0  0  0  0
  5 19  1  0  0  0  0
  5 20  1  0  0  0  0
  6 21  1  0  0  0  0
  6 22  1  0  0  0  0
  7 23  1  0  0  0  0
  7 24  1  0  0  0  0
  8 25  1  0  0  0  0
  8 26  1  0  0  0  0
  9 27  1  0  0  0  0
 12 28  1  0  0  0  0
 12 29  1  0  0  0  0
 13 30  1  0  0  0  0
M  END
> <FRED Chemgauss4 score>
-6.929505

$$$$
C87869111	P137439811
  -OEChem-05182014473D

 32 33  0     1  0  0  0  0  0999 V2000
  118.4817  104.2720  105.4083 C   0  0  0  0  0  0  0  0  0  0  0  0
  119.4862  103.7215  106.1779 C   0  0  0  0  0  0  0  0  0  0  0  0
  120.3433  104.6234  106.7748 C   0  0  0  0  0  0  0  0  0  0  0  0
  119.2169  106.3744  105.8626 C   0  0  0  0  0  0  0  0  0  0  0  0
  124.9701  105.2149  107.1728 C   0  0  0  0  0  0  0  0  0  0  0  0
  125.0255  106.7232  107.3892 C   0  0  0  0  0  0  0  0  0  0  0  0
  123.1744  105.8878  105.6540 C   0  0  0  0  0  0  0  0  0  0  0  0
  123.5405  104.8644  106.7345 C   0  0  2  0  0  0  0  0  0  0  0  0
  122.5536  104.8884  107.9018 C   0  0  0  0  0  0  0  0  0  0  0  0
  118.3170  105.5989  105.2283 N   0  0  0  0  0  0  0  0  0  0  0  0
  120.2376  105.9614  106.6380 N   0  0  0  0  0  0  0  0  0  0  0  0
  120.0746  108.6440  106.0513 N   0  0  0  0  0  0  0  0  0  0  0  0
  121.3848  104.1417  107.5689 N   0  0  0  0  0  0  0  0  0  0  0  0
  119.0753  107.7694  105.6970 N   0  0  0  0  0  0  0  0  0  0  0  0
  124.7957  107.8690  105.0271 O   0  0  0  0  0  0  0  0  0  0  0  0
  122.9924  108.2768  106.7631 O   0  0  0  0  0  0  0  0  0  0  0  0
  123.9700  107.4177  106.1280 S   0  0  0  0  0  0  0  0  0  0  0  0
  119.6196  101.8495  106.3589 Br  0  0  0  0  0  0  0  0  0  0  0  0
  117.7517  103.6551  104.8933 H   0  0  0  0  0  0  0  0  0  0  0  0
  125.7157  104.8953  106.4287 H   0  0  0  0  0  0  0  0  0  0  0  0
  125.2144  104.6962  108.1150 H   0  0  0  0  0  0  0  0  0  0  0  0
  124.6670  107.0187  108.3774 H   0  0  0  0  0  0  0  0  0  0  0  0
  126.0381  107.1047  107.2281 H   0  0  0  0  0  0  0  0  0  0  0  0
  123.5242  105.5859  104.6599 H   0  0  0  0  0  0  0  0  0  0  0  0
  122.0928  106.0732  105.6186 H   0  0  0  0  0  0  0  0  0  0  0  0
  123.5413  103.8614  106.2929 H   0  0  0  0  0  0  0  0  0  0  0  0
  122.2719  105.9152  108.1058 H   0  0  0  0  0  0  0  0  0  0  0  0
  123.0198  104.4459  108.7744 H   0  0  0  0  0  0  0  0  0  0  0  0
  119.6506  109.4315  106.5394 H   0  0  0  0  0  0  0  0  0  0  0  0
  120.4853  109.0283  105.2013 H   0  0  0  0  0  0  0  0  0  0  0  0
  121.2880  103.1888  107.9262 H   0  0  0  0  0  0  0  0  0  0  0  0
  118.3174  108.1030  105.1199 H   0  0  0  0  0  0  0  0  0  0  0  0
  1  2  1  0  0  0  0
  1 10  2  0  0  0  0
  2  3  2  0  0  0  0
  2 18  1  0  0  0  0
  3 11  1  0  0  0  0
  3 13  1  0  0  0  0
  4 10  1  0  0  0  0
  4 11  2  0  0  0  0
  4 14  1  0  0  0  0
  5  6  1  0  0  0  0
  5  8  1  0  0  0  0
  6 17  1  0  0  0  0
  7  8  1  0  0  0  0
  7 17  1  0  0  0  0
  8  9  1  0  0  0  0
  9 13  1  0  0  0  0
 12 14  1  0  0  0  0
 15 17  2  0  0  0  0
 16 17  2  0  0  0  0
  1 19  1  0  0  0  0
  5 20  1  0  0  0  0
  5 21  1  0  0  0  0
  6 22  1  0  0  0  0
  6 23  1  0  0  0  0
  7 24  1  0  0  0  0
  7 25  1  0  0  0  0
  8 26  1  0  0  0  0
  9 27  1  0  0  0  0
  9 28  1  0  0  0  0
 12 29  1  0  0  0  0
 12 30  1  0  0  0  0
 13 31  1  0  0  0  0
 14 32  1  0  0  0  0
M  END
> <FRED Chemgauss4 score>
-6.927017

$$$$
C21519997	P59373064
  -OEChem-05182014473D

 28 28  0     1  0  0  0  0  0999 V2000
  121.0487  105.6048  105.8840 C   0  0  0  0  0  0  0  0  0  0  0  0
  122.9157  106.4958  105.8903 C   0  0  0  0  0  0  0  0  0  0  0  0
  119.5347  103.7167  105.1793 C   0  0  0  0  0  0  0  0  0  0  0  0
  118.6595  105.5393  106.6850 C   0  0  0  0  0  0  0  0  0  0  0  0
  124.2876  106.5962  108.6587 C   0  0  0  0  0  0  0  0  0  0  0  0
  119.9246  104.7452  106.2712 C   0  0  0  0  0  0  0  0  0  0  0  0
  124.3385  106.9900  106.1125 C   0  0  2  0  0  0  0  0  0  0  0  0
  124.5113  107.5966  107.5265 C   0  0  2  0  0  0  0  0  0  0  0  0
  122.2304  105.6087  106.5664 N   0  0  0  0  0  0  0  0  0  0  0  0
  120.9789  106.4339  104.8383 N   0  0  0  0  0  0  0  0  0  0  0  0
  124.7166  107.9395  105.0600 N   0  0  0  0  0  0  0  0  0  0  0  0
  122.2425  107.0379  104.8417 O   0  0  0  0  0  0  0  0  0  0  0  0
  125.8466  108.0956  107.6603 O   0  0  0  0  0  0  0  0  0  0  0  0
  119.2598  104.2161  104.2439 H   0  0  0  0  0  0  0  0  0  0  0  0
  118.6889  103.0898  105.4822 H   0  0  0  0  0  0  0  0  0  0  0  0
  120.3830  103.0560  104.9681 H   0  0  0  0  0  0  0  0  0  0  0  0
  118.3320  106.1786  105.8575 H   0  0  0  0  0  0  0  0  0  0  0  0
  118.8383  106.1816  107.5542 H   0  0  0  0  0  0  0  0  0  0  0  0
  117.8322  104.8659  106.9344 H   0  0  0  0  0  0  0  0  0  0  0  0
  124.9355  105.7203  108.5639 H   0  0  0  0  0  0  0  0  0  0  0  0
  123.2446  106.2621  108.6860 H   0  0  0  0  0  0  0  0  0  0  0  0
  124.4915  107.0665  109.6273 H   0  0  0  0  0  0  0  0  0  0  0  0
  120.1814  104.1302  107.1653 H   0  0  0  0  0  0  0  0  0  0  0  0
  125.0135  106.1275  106.0313 H   0  0  0  0  0  0  0  0  0  0  0  0
  123.8371  108.4477  107.6762 H   0  0  0  0  0  0  0  0  0  0  0  0
  124.3508  107.7889  104.1483 H   0  0  0  0  0  0  0  0  0  0  0  0
  125.4694  108.5609  105.2467 H   0  0  0  0  0  0  0  0  0  0  0  0
  125.8917  108.5151  108.5314 H   0  0  0  0  0  0  0  0  0  0  0  0
  1  6  1  0  0  0  0
  1  9  1  0  0  0  0
  1 10  2  0  0  0  0
  2  7  1  0  0  0  0
  2  9  2  0  0  0  0
  2 12  1  0  0  0  0
  3  6  1  0  0  0  0
  4  6  1  0  0  0  0
  5  8  1  0  0  0  0
  7  8  1  0  0  0  0
  7 11  1  0  0  0  0
  8 13  1  0  0  0  0
 10 12  1  0  0  0  0
  3 14  1  0  0  0  0
  3 15  1  0  0  0  0
  3 16  1  0  0  0  0
  4 17  1  0  0  0  0
  4 18  1  0  0  0  0
  4 19  1  0  0  0  0
  5 20  1  0  0  0  0
  5 21  1  0  0  0  0
  5 22  1  0  0  0  0
  6 23  1  0  0  0  0
  7 24  1  0  0  0  0
  8 25  1  0  0  0  0
 11 26  1  0  0  0  0
 11 27  1  0  0  0  0
 13 28  1  0  0  0  0
M  END
> <FRED Chemgauss4 score>
-6.919112

$$$$
C36877036	P120919263
  -OEChem-05182014473D

 30 31  0     1  0  0  0  0  0999 V2000
  119.8418  104.7486  100.8814 C   0  0  0  0  0  0  0  0  0  0  0  0
  121.0336  104.8137  101.6421 C   0  0  0  0  0  0  0  0  0  0  0  0
  121.9119  104.6177  105.0184 C   0  0  0  0  0  0  0  0  0  0  0  0
  118.8283  105.1398  101.7251 C   0  0  0  0  0  0  0  0  0  0  0  0
  121.5051  105.4580  104.0090 C   0  0  0  0  0  0  0  0  0  0  0  0
  120.6634  105.2402  102.8963 C   0  0  0  0  0  0  0  0  0  0  0  0
  122.8378  106.4898  105.4288 C   0  0  0  0  0  0  0  0  0  0  0  0
  123.5117  106.7482  108.4152 C   0  0  0  0  0  0  0  0  0  0  0  0
  125.4636  106.1396  106.9854 C   0  0  0  0  0  0  0  0  0  0  0  0
  123.6418  107.6327  106.0225 C   0  0  1  0  0  0  0  0  0  0  0  0
  124.4364  107.2382  107.2935 C   0  0  0  0  0  0  0  0  0  0  0  0
  122.7411  105.2661  105.8991 N   0  0  0  0  0  0  0  0  0  0  0  0
  122.1060  106.6537  104.2857 N   0  0  0  0  0  0  0  0  0  0  0  0
  124.5101  108.1441  104.9838 N   0  0  0  0  0  0  0  0  0  0  0  0
  119.3208  105.4414  102.9551 O   0  0  0  0  0  0  0  0  0  0  0  0
  119.7354  104.4534   99.8477 H   0  0  0  0  0  0  0  0  0  0  0  0
  122.0347  104.5765  101.3090 H   0  0  0  0  0  0  0  0  0  0  0  0
  121.6539  103.5776  105.1598 H   0  0  0  0  0  0  0  0  0  0  0  0
  117.7601  105.2514  101.6098 H   0  0  0  0  0  0  0  0  0  0  0  0
  122.9293  105.8771  108.0960 H   0  0  0  0  0  0  0  0  0  0  0  0
  124.0922  106.4603  109.2985 H   0  0  0  0  0  0  0  0  0  0  0  0
  122.8128  107.5293  108.7300 H   0  0  0  0  0  0  0  0  0  0  0  0
  124.9754  105.2360  106.6047 H   0  0  0  0  0  0  0  0  0  0  0  0
  126.0226  105.8669  107.8872 H   0  0  0  0  0  0  0  0  0  0  0  0
  126.1928  106.4729  106.2403 H   0  0  0  0  0  0  0  0  0  0  0  0
  122.9714  108.4650  106.2741 H   0  0  0  0  0  0  0  0  0  0  0  0
  124.9921  108.1079  107.6681 H   0  0  0  0  0  0  0  0  0  0  0  0
  122.0282  107.5044  103.7434 H   0  0  0  0  0  0  0  0  0  0  0  0
  125.3172  108.6775  105.2492 H   0  0  0  0  0  0  0  0  0  0  0  0
  124.1850  108.1326  104.0347 H   0  0  0  0  0  0  0  0  0  0  0  0
  1  2  1  0  0  0  0
  1  4  2  0  0  0  0
  2  6  2  0  0  0  0
  3  5  2  0  0  0  0
  3 12  1  0  0  0  0
  4 15  1  0  0  0  0
  5  6  1  0  0  0  0
  5 13  1  0  0  0  0
  6 15  1  0  0  0  0
  7 10  1  0  0  0  0
  7 12  2  0  0  0  0
  7 13  1  0  0  0  0
  8 11  1  0  0  0  0
  9 11  1  0  0  0  0
 10 11  1  0  0  0  0
 10 14  1  0  0  0  0
  1 16  1  0  0  0  0
  2 17  1  0  0  0  0
  3 18  1  0  0  0  0
  4 19  1  0  0  0  0
  8 20  1  0  0  0  0
  8 21  1  0  0  0  0
  8 22  1  0  0  0  0
  9 23  1  0  0  0  0
  9 24  1  0  0  0  0
  9 25  1  0  0  0  0
 10 26  1  0  0  0  0
 11 27  1  0  0  0  0
 13 28  1  0  0  0  0
 14 29  1  0  0  0  0
 14 30  1  0  0  0  0
M  END
> <FRED Chemgauss4 score>
-6.915066

$$$$
C72210676	P112179503
  -OEChem-05182014473D

 20 20  0     0  0  0  0  0  0999 V2000
  124.2863  105.0899  108.8494 C   0  0  0  0  0  0  0  0  0  0  0  0
  124.8437  103.9372  108.3146 C   0  0  0  0  0  0  0  0  0  0  0  0
  125.4049  105.0654  106.3334 C   0  0  0  0  0  0  0  0  0  0  0  0
  124.2979  106.2551  108.0888 C   0  0  0  0  0  0  0  0  0  0  0  0
  124.8620  106.2474  106.8167 C   0  0  0  0  0  0  0  0  0  0  0  0
  122.6470  107.4133  109.5581 C   0  0  0  0  0  0  0  0  0  0  0  0
  125.3804  103.9576  107.0870 N   0  3  0  0  0  0  0  0  0  0  0  0
  123.7322  107.4311  108.6280 N   0  0  0  0  0  0  0  0  0  0  0  0
  125.8802  108.5476  106.4896 O   0  5  0  0  0  0  0  0  0  0  0  0
  125.3460  107.2199  104.4847 O   0  0  0  0  0  0  0  0  0  0  0  0
  123.5218  108.1689  105.8388 O   0  0  0  0  0  0  0  0  0  0  0  0
  124.9074  107.6769  105.8132 S   0  0  0  0  0  0  0  0  0  0  0  0
  123.8522  105.0705  109.8444 H   0  0  0  0  0  0  0  0  0  0  0  0
  124.8791  102.9886  108.8324 H   0  0  0  0  0  0  0  0  0  0  0  0
  125.8649  104.9574  105.3604 H   0  0  0  0  0  0  0  0  0  0  0  0
  122.3493  106.3828  109.7684 H   0  0  0  0  0  0  0  0  0  0  0  0
  121.7882  107.9509  109.1472 H   0  0  0  0  0  0  0  0  0  0  0  0
  122.9445  107.8919  110.4951 H   0  0  0  0  0  0  0  0  0  0  0  0
  125.7846  103.0995  106.7130 H   0  0  0  0  0  0  0  0  0  0  0  0
  124.1263  108.3019  108.3280 H   0  0  0  0  0  0  0  0  0  0  0  0
  1  2  2  0  0  0  0
  1  4  1  0  0  0  0
  2  7  1  0  0  0  0
  3  5  1  0  0  0  0
  3  7  2  0  0  0  0
  4  5  2  0  0  0  0
  4  8  1  0  0  0  0
  5 12  1  0  0  0  0
  6  8  1  0  0  0  0
  9 12  1  0  0  0  0
 10 12  2  0  0  0  0
 11 12  2  0  0  0  0
  1 13  1  0  0  0  0
  2 14  1  0  0  0  0
  3 15  1  0  0  0  0
  6 16  1  0  0  0  0
  6 17  1  0  0  0  0
  6 18  1  0  0  0  0
  7 19  1  0  0  0  0
  8 20  1  0  0  0  0
M  CHG  2   7   1   9  -1
M  END
> <FRED Chemgauss4 score>
-6.913986

$$$$
C54526614	P82058992
  -OEChem-05182014473D

 33 34  0     1  0  0  0  0  0999 V2000
  119.6479  103.9028  105.7343 C   0  0  0  0  0  0  0  0  0  0  0  0
  121.3484  105.2508  105.7497 C   0  0  0  0  0  0  0  0  0  0  0  0
  117.7450  104.5622  101.9935 C   0  0  0  0  0  0  0  0  0  0  0  0
  117.2462  104.7626  103.4186 C   0  0  0  0  0  0  0  0  0  0  0  0
  119.2425  104.2870  101.9515 C   0  0  0  0  0  0  0  0  0  0  0  0
  118.0057  105.8725  104.1406 C   0  0  0  0  0  0  0  0  0  0  0  0
  120.0460  105.3871  102.6398 C   0  0  0  0  0  0  0  0  0  0  0  0
  119.5389  105.7805  104.0389 C   0  0  0  0  0  0  0  0  0  0  0  0
  123.7326  106.1015  105.6455 C   0  0  0  0  0  0  0  0  0  0  0  0
  122.2317  106.3753  105.3924 C   0  0  2  0  0  0  0  0  0  0  0  0
  120.4734  103.4862  106.6678 N   0  0  0  0  0  0  0  0  0  0  0  0
  121.5554  104.3438  106.6775 N   0  0  0  0  0  0  0  0  0  0  0  0
  120.1591  105.0115  105.1308 N   0  0  0  0  0  0  0  0  0  0  0  0
  121.8766  107.6114  106.0874 N   0  0  0  0  0  0  0  0  0  0  0  0
  124.5133  107.2426  105.3047 O   0  0  0  0  0  0  0  0  0  0  0  0
  118.7018  103.4558  105.4643 H   0  0  0  0  0  0  0  0  0  0  0  0
  117.2059  103.7248  101.5315 H   0  0  0  0  0  0  0  0  0  0  0  0
  117.5183  105.4539  101.3960 H   0  0  0  0  0  0  0  0  0  0  0  0
  116.1748  105.0072  103.4008 H   0  0  0  0  0  0  0  0  0  0  0  0
  117.3452  103.8245  103.9804 H   0  0  0  0  0  0  0  0  0  0  0  0
  119.4548  103.3225  102.4309 H   0  0  0  0  0  0  0  0  0  0  0  0
  119.5694  104.1977  100.9061 H   0  0  0  0  0  0  0  0  0  0  0  0
  117.6647  106.8595  103.7555 H   0  0  0  0  0  0  0  0  0  0  0  0
  117.7051  105.8774  105.2135 H   0  0  0  0  0  0  0  0  0  0  0  0
  121.1112  105.0681  102.7079 H   0  0  0  0  0  0  0  0  0  0  0  0
  120.0702  106.2868  101.9851 H   0  0  0  0  0  0  0  0  0  0  0  0
  119.9430  106.8458  104.2437 H   0  0  0  0  0  0  0  0  0  0  0  0
  123.9010  105.8900  106.7072 H   0  0  0  0  0  0  0  0  0  0  0  0
  124.0923  105.2505  105.0568 H   0  0  0  0  0  0  0  0  0  0  0  0
  122.1316  106.6430  104.3186 H   0  0  0  0  0  0  0  0  0  0  0  0
  120.9103  107.8037  106.2350 H   0  0  0  0  0  0  0  0  0  0  0  0
  122.5848  108.3024  106.2034 H   0  0  0  0  0  0  0  0  0  0  0  0
  125.4378  107.0099  105.4842 H   0  0  0  0  0  0  0  0  0  0  0  0
  1 11  2  0  0  0  0
  1 13  1  0  0  0  0
  2 10  1  0  0  0  0
  2 12  2  0  0  0  0
  2 13  1  0  0  0  0
  3  4  1  0  0  0  0
  3  5  1  0  0  0  0
  4  6  1  0  0  0  0
  5  7  1  0  0  0  0
  6  8  1  0  0  0  0
  7  8  1  0  0  0  0
  8 13  1  0  0  0  0
  9 10  1  0  0  0  0
  9 15  1  0  0  0  0
 10 14  1  0  0  0  0
 11 12  1  0  0  0  0
  1 16  1  0  0  0  0
  3 17  1  0  0  0  0
  3 18  1  0  0  0  0
  4 19  1  0  0  0  0
  4 20  1  0  0  0  0
  5 21  1  0  0  0  0
  5 22  1  0  0  0  0
  6 23  1  0  0  0  0
  6 24  1  0  0  0  0
  7 25  1  0  0  0  0
  7 26  1  0  0  0  0
  8 27  1  0  0  0  0
  9 28  1  0  0  0  0
  9 29  1  0  0  0  0
 10 30  1  0  0  0  0
 14 31  1  0  0  0  0
 14 32  1  0  0  0  0
 15 33  1  0  0  0  0
M  END
> <FRED Chemgauss4 score>
-6.904801

$$$$
C83937285	P131339710
  -OEChem-05182014473D

 28 29  0     1  0  0  0  0  0999 V2000
  120.3924  105.4603  105.2014 C   0  0  0  0  0  0  0  0  0  0  0  0
  121.2354  104.9242  106.1535 C   0  0  0  0  0  0  0  0  0  0  0  0
  120.8376  106.6160  104.5928 C   0  0  0  0  0  0  0  0  0  0  0  0
  122.7454  106.5919  105.8284 C   0  0  0  0  0  0  0  0  0  0  0  0
  127.1361  106.1691  108.7691 C   0  0  0  0  0  0  0  0  0  0  0  0
  126.3529  105.0856  109.4563 C   0  0  0  0  0  0  0  0  0  0  0  0
  125.7201  105.8848  108.3508 C   0  0  0  0  0  0  0  0  0  0  0  0
  125.4347  105.2376  107.0044 C   0  0  0  0  0  0  0  0  0  0  0  0
  125.2573  106.2894  105.9046 C   0  0  0  0  0  0  0  0  0  0  0  0
  124.0738  107.2307  106.1823 C   0  0  1  0  0  0  0  0  0  0  0  0
  122.4235  105.4658  106.4930 N   0  0  0  0  0  0  0  0  0  0  0  0
  122.0130  107.2113  104.8831 N   0  0  0  0  0  0  0  0  0  0  0  0
  124.1965  108.4782  105.4646 N   0  0  0  0  0  0  0  0  0  0  0  0
  119.4446  105.0045  104.9488 H   0  0  0  0  0  0  0  0  0  0  0  0
  120.9705  104.0167  106.6855 H   0  0  0  0  0  0  0  0  0  0  0  0
  120.2431  107.1103  103.8318 H   0  0  0  0  0  0  0  0  0  0  0  0
  127.3406  107.0740  109.3279 H   0  0  0  0  0  0  0  0  0  0  0  0
  127.9302  105.8680  108.0968 H   0  0  0  0  0  0  0  0  0  0  0  0
  126.6222  104.0580  109.2449 H   0  0  0  0  0  0  0  0  0  0  0  0
  126.0327  105.2652  110.4752 H   0  0  0  0  0  0  0  0  0  0  0  0
  124.9604  106.6071  108.6241 H   0  0  0  0  0  0  0  0  0  0  0  0
  126.2602  104.5621  106.7531 H   0  0  0  0  0  0  0  0  0  0  0  0
  124.5276  104.6273  107.0852 H   0  0  0  0  0  0  0  0  0  0  0  0
  126.1803  106.8789  105.8260 H   0  0  0  0  0  0  0  0  0  0  0  0
  125.1248  105.7803  104.9411 H   0  0  0  0  0  0  0  0  0  0  0  0
  124.0808  107.5000  107.2459 H   0  0  0  0  0  0  0  0  0  0  0  0
  125.1109  108.8704  105.3266 H   0  0  0  0  0  0  0  0  0  0  0  0
  123.3705  109.0255  105.2989 H   0  0  0  0  0  0  0  0  0  0  0  0
  1  2  1  0  0  0  0
  1  3  2  0  0  0  0
  2 11  2  0  0  0  0
  3 12  1  0  0  0  0
  4 10  1  0  0  0  0
  4 11  1  0  0  0  0
  4 12  2  0  0  0  0
  5  6  1  0  0  0  0
  5  7  1  0  0  0  0
  6  7  1  0  0  0  0
  7  8  1  0  0  0  0
  8  9  1  0  0  0  0
  9 10  1  0  0  0  0
 10 13  1  0  0  0  0
  1 14  1  0  0  0  0
  2 15  1  0  0  0  0
  3 16  1  0  0  0  0
  5 17  1  0  0  0  0
  5 18  1  0  0  0  0
  6 19  1  0  0  0  0
  6 20  1  0  0  0  0
  7 21  1  0  0  0  0
  8 22  1  0  0  0  0
  8 23  1  0  0  0  0
  9 24  1  0  0  0  0
  9 25  1  0  0  0  0
 10 26  1  0  0  0  0
 13 27  1  0  0  0  0
 13 28  1  0  0  0  0
M  END
> <FRED Chemgauss4 score>
-6.903886

$$$$
C37902477	P56948622
  -OEChem-05182014473D

 27 27  0     0  0  0  0  0  0999 V2000
  120.5750  104.9033  102.5399 C   0  0  0  0  0  0  0  0  0  0  0  0
  120.3420  104.1739  103.6819 C   0  0  0  0  0  0  0  0  0  0  0  0
  119.6953  106.2675  103.9168 C   0  0  0  0  0  0  0  0  0  0  0  0
  121.6326  105.2062  106.9022 C   0  0  0  0  0  0  0  0  0  0  0  0
  120.4788  104.2277  106.7788 C   0  0  0  0  0  0  0  0  0  0  0  0
  119.3449  104.7750  105.9177 C   0  0  0  0  0  0  0  0  0  0  0  0
  125.1029  104.6821  107.4742 C   0  0  0  0  0  0  0  0  0  0  0  0
  123.8707  105.4208  107.9688 C   0  0  0  0  0  0  0  0  0  0  0  0
  120.1705  106.2058  102.6927 N   0  0  0  0  0  0  0  0  0  0  0  0
  119.7786  105.0612  104.5551 N   0  0  0  0  0  0  0  0  0  0  0  0
  126.3174  105.3935  107.7701 N   0  0  0  0  0  0  0  0  0  0  0  0
  122.6544  104.6934  107.6879 N   0  0  0  0  0  0  0  0  0  0  0  0
  121.6375  106.3104  106.3649 O   0  0  0  0  0  0  0  0  0  0  0  0
  121.0135  104.5568  101.6156 H   0  0  0  0  0  0  0  0  0  0  0  0
  120.5218  103.1392  103.9386 H   0  0  0  0  0  0  0  0  0  0  0  0
  119.2827  107.1478  104.3905 H   0  0  0  0  0  0  0  0  0  0  0  0
  120.8627  103.2936  106.3502 H   0  0  0  0  0  0  0  0  0  0  0  0
  120.1124  103.9996  107.7874 H   0  0  0  0  0  0  0  0  0  0  0  0
  118.9392  105.7017  106.3417 H   0  0  0  0  0  0  0  0  0  0  0  0
  118.5124  104.0630  105.8617 H   0  0  0  0  0  0  0  0  0  0  0  0
  125.0690  104.5294  106.3908 H   0  0  0  0  0  0  0  0  0  0  0  0
  125.1763  103.7050  107.9617 H   0  0  0  0  0  0  0  0  0  0  0  0
  123.9204  105.5569  109.0535 H   0  0  0  0  0  0  0  0  0  0  0  0
  123.7809  106.4057  107.4992 H   0  0  0  0  0  0  0  0  0  0  0  0
  126.3340  106.3966  107.6773 H   0  0  0  0  0  0  0  0  0  0  0  0
  127.1778  104.8779  107.8650 H   0  0  0  0  0  0  0  0  0  0  0  0
  122.5425  103.7645  108.0835 H   0  0  0  0  0  0  0  0  0  0  0  0
  1  2  2  0  0  0  0
  1  9  1  0  0  0  0
  2 10  1  0  0  0  0
  3  9  2  0  0  0  0
  3 10  1  0  0  0  0
  4  5  1  0  0  0  0
  4 12  1  0  0  0  0
  4 13  2  0  0  0  0
  5  6  1  0  0  0  0
  6 10  1  0  0  0  0
  7  8  1  0  0  0  0
  7 11  1  0  0  0  0
  8 12  1  0  0  0  0
  1 14  1  0  0  0  0
  2 15  1  0  0  0  0
  3 16  1  0  0  0  0
  5 17  1  0  0  0  0
  5 18  1  0  0  0  0
  6 19  1  0  0  0  0
  6 20  1  0  0  0  0
  7 21  1  0  0  0  0
  7 22  1  0  0  0  0
  8 23  1  0  0  0  0
  8 24  1  0  0  0  0
 11 25  1  0  0  0  0
 11 26  1  0  0  0  0
 12 27  1  0  0  0  0
M  END
> <FRED Chemgauss4 score>
-6.901731

$$$$
C11616542	P120183584
  -OEChem-05182014473D

 20 20  0     1  0  0  0  0  0999 V2000
  124.9601  104.4163  107.3082 C   0  0  0  0  0  0  0  0  0  0  0  0
  122.9180  106.5693  106.4394 C   0  0  0  0  0  0  0  0  0  0  0  0
  124.4221  104.9844  108.5947 C   0  0  2  0  0  0  0  0  0  0  0  0
  125.1582  106.3056  108.6869 C   0  0  2  0  0  0  0  0  0  0  0  0
  125.3093  106.7010  107.2271 C   0  0  2  0  0  0  0  0  0  0  0  0
  124.1143  107.4611  106.6705 C   0  0  1  0  0  0  0  0  0  0  0  0
  124.9758  103.2380  106.9908 O   0  0  0  0  0  0  0  0  0  0  0  0
  122.7073  105.9363  105.4099 O   0  0  0  0  0  0  0  0  0  0  0  0
  125.4260  105.4432  106.5278 O   0  0  0  0  0  0  0  0  0  0  0  0
  124.6154  104.1483  109.7038 O   0  0  0  0  0  0  0  0  0  0  0  0
  126.4505  106.1194  109.2644 O   0  0  0  0  0  0  0  0  0  0  0  0
  124.4745  108.0121  105.4166 O   0  0  0  0  0  0  0  0  0  0  0  0
  122.1851  106.5469  107.2650 H   0  0  0  0  0  0  0  0  0  0  0  0
  123.3421  105.1510  108.4530 H   0  0  0  0  0  0  0  0  0  0  0  0
  124.6254  107.0497  109.3000 H   0  0  0  0  0  0  0  0  0  0  0  0
  126.2306  107.2669  107.0509 H   0  0  0  0  0  0  0  0  0  0  0  0
  123.8294  108.2680  107.3505 H   0  0  0  0  0  0  0  0  0  0  0  0
  124.1560  103.3051  109.5264 H   0  0  0  0  0  0  0  0  0  0  0  0
  126.8655  106.9945  109.2948 H   0  0  0  0  0  0  0  0  0  0  0  0
  123.7073  108.5156  105.0953 H   0  0  0  0  0  0  0  0  0  0  0  0
  1  3  1  0  0  0  0
  1  7  2  0  0  0  0
  1  9  1  0  0  0  0
  2  6  1  0  0  0  0
  2  8  2  0  0  0  0
  3  4  1  0  0  0  0
  3 10  1  0  0  0  0
  4  5  1  0  0  0  0
  4 11  1  0  0  0  0
  5  6  1  0  0  0  0
  5  9  1  0  0  0  0
  6 12  1  0  0  0  0
  2 13  1  0  0  0  0
  3 14  1  0  0  0  0
  4 15  1  0  0  0  0
  5 16  1  0  0  0  0
  6 17  1  0  0  0  0
 10 18  1  0  0  0  0
 11 19  1  0  0  0  0
 12 20  1  0  0  0  0
M  END
> <FRED Chemgauss4 score>
-6.898577

$$$$
C98090319	P155911238
  -OEChem-05182014473D

 23 22  0     1  0  0  0  0  0999 V2000
  123.0088  105.3949  106.2814 C   0  0  0  0  0  0  0  0  0  0  0  0
  125.2622  106.2924  108.2863 C   0  0  0  0  0  0  0  0  0  0  0  0
  123.4269  106.7425  105.7429 C   0  0  2  0  0  0  0  0  0  0  0  0
  125.5303  107.2993  107.1683 C   0  0  1  0  0  0  0  0  0  0  0  0
  124.9540  106.8927  105.8002 C   0  0  2  0  0  0  0  0  0  0  0  0
  121.7566  105.0870  106.3684 N   0  0  0  0  0  0  0  0  0  0  0  0
  120.9491  106.0749  105.9389 N   0  0  0  0  0  0  0  0  0  0  0  0
  126.1698  106.5454  109.3555 O   0  0  0  0  0  0  0  0  0  0  0  0
  122.7698  107.6902  106.5682 O   0  0  0  0  0  0  0  0  0  0  0  0
  124.9820  108.5634  107.5430 O   0  0  0  0  0  0  0  0  0  0  0  0
  125.3648  107.8577  104.8305 O   0  0  0  0  0  0  0  0  0  0  0  0
  123.8190  104.7049  106.5871 H   0  0  0  0  0  0  0  0  0  0  0  0
  124.2484  106.3985  108.6849 H   0  0  0  0  0  0  0  0  0  0  0  0
  125.4196  105.2641  107.9497 H   0  0  0  0  0  0  0  0  0  0  0  0
  123.0522  106.8442  104.7186 H   0  0  0  0  0  0  0  0  0  0  0  0
  126.6141  107.4403  107.0710 H   0  0  0  0  0  0  0  0  0  0  0  0
  125.4132  105.9377  105.5140 H   0  0  0  0  0  0  0  0  0  0  0  0
  121.3835  106.6036  105.1834 H   0  0  0  0  0  0  0  0  0  0  0  0
  120.0890  105.6710  105.5727 H   0  0  0  0  0  0  0  0  0  0  0  0
  125.9735  105.8922  110.0450 H   0  0  0  0  0  0  0  0  0  0  0  0
  121.8154  107.5303  106.4787 H   0  0  0  0  0  0  0  0  0  0  0  0
  125.4278  108.8226  108.3633 H   0  0  0  0  0  0  0  0  0  0  0  0
  125.0784  107.5185  103.9694 H   0  0  0  0  0  0  0  0  0  0  0  0
  1  3  1  0  0  0  0
  1  6  2  0  0  0  0
  2  4  1  0  0  0  0
  2  8  1  0  0  0  0
  3  5  1  0  0  0  0
  3  9  1  0  0  0  0
  4  5  1  0  0  0  0
  4 10  1  0  0  0  0
  5 11  1  0  0  0  0
  6  7  1  0  0  0  0
  1 12  1  0  0  0  0
  2 13  1  0  0  0  0
  2 14  1  0  0  0  0
  3 15  1  0  0  0  0
  4 16  1  0  0  0  0
  5 17  1  0  0  0  0
  7 18  1  0  0  0  0
  7 19  1  0  0  0  0
  8 20  1  0  0  0  0
  9 21  1  0  0  0  0
 10 22  1  0  0  0  0
 11 23  1  0  0  0  0
M  END
> <FRED Chemgauss4 score>
-6.896843

$$$$
C87618088	P137068422
  -OEChem-05182014473D

 30 31  0     1  0  0  0  0  0999 V2000
  125.3450  106.1555  108.9074 C   0  0  0  0  0  0  0  0  0  0  0  0
  123.9855  106.0350  108.6417 C   0  0  0  0  0  0  0  0  0  0  0  0
  119.1518  106.6458  105.3102 C   0  0  0  0  0  0  0  0  0  0  0  0
  126.2082  106.2750  107.8302 C   0  0  0  0  0  0  0  0  0  0  0  0
  124.4812  106.1625  106.3192 C   0  0  0  0  0  0  0  0  0  0  0  0
  117.8233  106.9156  105.5551 C   0  0  0  0  0  0  0  0  0  0  0  0
  119.3034  107.9994  107.1935 C   0  0  0  0  0  0  0  0  0  0  0  0
  123.5371  106.0376  107.3256 C   0  0  0  0  0  0  0  0  0  0  0  0
  120.0092  107.2735  106.2594 C   0  0  0  0  0  0  0  0  0  0  0  0
  121.7613  104.6107  106.2167 C   0  0  0  0  0  0  0  0  0  0  0  0
  122.0529  105.9079  107.0011 C   0  0  2  0  0  0  0  0  0  0  0  0
  121.5204  107.1558  106.2410 C   0  0  1  0  0  0  0  0  0  0  0  0
  125.8099  106.2816  106.5383 N   0  0  0  0  0  0  0  0  0  0  0  0
  122.1601  103.4306  106.9398 N   0  0  0  0  0  0  0  0  0  0  0  0
  121.9178  107.1074  104.8688 O   0  0  0  0  0  0  0  0  0  0  0  0
  117.6140  107.9221  106.9245 S   0  0  0  0  0  0  0  0  0  0  0  0
  125.7171  106.1562  109.9255 H   0  0  0  0  0  0  0  0  0  0  0  0
  123.2834  105.9398  109.4656 H   0  0  0  0  0  0  0  0  0  0  0  0
  119.4881  106.0272  104.4877 H   0  0  0  0  0  0  0  0  0  0  0  0
  127.2779  106.3713  107.9845 H   0  0  0  0  0  0  0  0  0  0  0  0
  124.1908  106.1710  105.2731 H   0  0  0  0  0  0  0  0  0  0  0  0
  116.9658  106.5706  104.9950 H   0  0  0  0  0  0  0  0  0  0  0  0
  119.6949  108.5737  108.0218 H   0  0  0  0  0  0  0  0  0  0  0  0
  120.6981  104.5055  105.9773 H   0  0  0  0  0  0  0  0  0  0  0  0
  122.3195  104.5883  105.2758 H   0  0  0  0  0  0  0  0  0  0  0  0
  121.4968  105.8227  107.9462 H   0  0  0  0  0  0  0  0  0  0  0  0
  121.9588  108.0700  106.6609 H   0  0  0  0  0  0  0  0  0  0  0  0
  122.4081  102.6020  106.4250 H   0  0  0  0  0  0  0  0  0  0  0  0
  121.9917  103.3843  107.9311 H   0  0  0  0  0  0  0  0  0  0  0  0
  121.6108  107.9337  104.4674 H   0  0  0  0  0  0  0  0  0  0  0  0
  1  2  1  0  0  0  0
  1  4  2  0  0  0  0
  2  8  2  0  0  0  0
  3  6  2  0  0  0  0
  3  9  1  0  0  0  0
  4 13  1  0  0  0  0
  5  8  1  0  0  0  0
  5 13  2  0  0  0  0
  6 16  1  0  0  0  0
  7  9  2  0  0  0  0
  7 16  1  0  0  0  0
  8 11  1  0  0  0  0
  9 12  1  0  0  0  0
 10 11  1  0  0  0  0
 10 14  1  0  0  0  0
 11 12  1  0  0  0  0
 12 15  1  0  0  0  0
  1 17  1  0  0  0  0
  2 18  1  0  0  0  0
  3 19  1  0  0  0  0
  4 20  1  0  0  0  0
  5 21  1  0  0  0  0
  6 22  1  0  0  0  0
  7 23  1  0  0  0  0
 10 24  1  0  0  0  0
 10 25  1  0  0  0  0
 11 26  1  0  0  0  0
 12 27  1  0  0  0  0
 14 28  1  0  0  0  0
 14 29  1  0  0  0  0
 15 30  1  0  0  0  0
M  END
> <FRED Chemgauss4 score>
-6.896201

$$$$
C54498092	P82014584
  -OEChem-05182014473D

 32 32  0     1  0  0  0  0  0999 V2000
  125.7076  106.6091  106.5227 C   0  0  0  0  0  0  0  0  0  0  0  0
  123.6170  106.9807  106.0749 C   0  0  0  0  0  0  0  0  0  0  0  0
  123.9075  106.5855  109.3722 C   0  0  0  0  0  0  0  0  0  0  0  0
  125.0502  104.5164  108.4669 C   0  0  0  0  0  0  0  0  0  0  0  0
  119.3338  104.3654  106.0431 C   0  0  0  0  0  0  0  0  0  0  0  0
  121.3953  106.3226  105.0020 C   0  0  0  0  0  0  0  0  0  0  0  0
  121.4154  104.7981  105.0417 C   0  0  0  0  0  0  0  0  0  0  0  0
  122.1079  106.9703  106.2001 C   0  0  2  0  0  0  0  0  0  0  0  0
  124.0763  105.6576  108.1674 C   0  0  0  0  0  0  0  0  0  0  0  0
  125.6601  107.3057  105.4096 N   0  0  0  0  0  0  0  0  0  0  0  0
  124.3300  107.5421  105.1247 N   0  0  0  0  0  0  0  0  0  0  0  0
  124.4437  106.3818  106.9763 N   0  0  0  0  0  0  0  0  0  0  0  0
  121.6127  108.3135  106.4124 N   0  0  0  0  0  0  0  0  0  0  0  0
  120.7441  104.3633  106.2173 O   0  0  0  0  0  0  0  0  0  0  0  0
  126.5972  106.2569  107.0251 H   0  0  0  0  0  0  0  0  0  0  0  0
  124.8460  107.0825  109.6399 H   0  0  0  0  0  0  0  0  0  0  0  0
  123.5682  106.0213  110.2474 H   0  0  0  0  0  0  0  0  0  0  0  0
  123.1651  107.3641  109.1643 H   0  0  0  0  0  0  0  0  0  0  0  0
  126.0534  104.9041  108.6759 H   0  0  0  0  0  0  0  0  0  0  0  0
  125.1227  103.8382  107.6100 H   0  0  0  0  0  0  0  0  0  0  0  0
  124.7338  103.9258  109.3332 H   0  0  0  0  0  0  0  0  0  0  0  0
  118.8517  104.0269  106.9634 H   0  0  0  0  0  0  0  0  0  0  0  0
  119.0671  103.7041  105.2149 H   0  0  0  0  0  0  0  0  0  0  0  0
  119.0053  105.3822  105.8151 H   0  0  0  0  0  0  0  0  0  0  0  0
  120.3487  106.6564  104.9762 H   0  0  0  0  0  0  0  0  0  0  0  0
  121.8210  106.6681  104.0506 H   0  0  0  0  0  0  0  0  0  0  0  0
  120.9011  104.3687  104.1768 H   0  0  0  0  0  0  0  0  0  0  0  0
  122.4430  104.4224  105.0701 H   0  0  0  0  0  0  0  0  0  0  0  0
  121.8212  106.4185  107.1042 H   0  0  0  0  0  0  0  0  0  0  0  0
  123.0968  105.2040  107.9681 H   0  0  0  0  0  0  0  0  0  0  0  0
  122.1685  108.9530  106.9494 H   0  0  0  0  0  0  0  0  0  0  0  0
  120.6526  108.5125  106.1999 H   0  0  0  0  0  0  0  0  0  0  0  0
  1 10  2  0  0  0  0
  1 12  1  0  0  0  0
  2  8  1  0  0  0  0
  2 11  2  0  0  0  0
  2 12  1  0  0  0  0
  3  9  1  0  0  0  0
  4  9  1  0  0  0  0
  5 14  1  0  0  0  0
  6  7  1  0  0  0  0
  6  8  1  0  0  0  0
  7 14  1  0  0  0  0
  8 13  1  0  0  0  0
  9 12  1  0  0  0  0
 10 11  1  0  0  0  0
  1 15  1  0  0  0  0
  3 16  1  0  0  0  0
  3 17  1  0  0  0  0
  3 18  1  0  0  0  0
  4 19  1  0  0  0  0
  4 20  1  0  0  0  0
  4 21  1  0  0  0  0
  5 22  1  0  0  0  0
  5 23  1  0  0  0  0
  5 24  1  0  0  0  0
  6 25  1  0  0  0  0
  6 26  1  0  0  0  0
  7 27  1  0  0  0  0
  7 28  1  0  0  0  0
  8 29  1  0  0  0  0
  9 30  1  0  0  0  0
 13 31  1  0  0  0  0
 13 32  1  0  0  0  0
M  END
> <FRED Chemgauss4 score>
-6.892376

$$$$
C08299019	P108959850
  -OEChem-05182014473D

 27 27  0     1  0  0  0  0  0999 V2000
  122.7716  106.3672  107.9044 C   0  0  0  0  0  0  0  0  0  0  0  0
  123.4987  106.2988  105.4891 C   0  0  1  0  0  0  0  0  0  0  0  0
  124.5665  107.3407  105.8692 C   0  0  2  0  0  0  0  0  0  0  0  0
  124.1586  108.1380  107.1159 C   0  0  1  0  0  0  0  0  0  0  0  0
  123.1274  105.4487  106.7267 C   0  0  1  0  0  0  0  0  0  0  0  0
  124.2729  104.5028  107.1175 C   0  0  0  0  0  0  0  0  0  0  0  0
  121.4868  106.0660  104.1890 C   0  0  0  0  0  0  0  0  0  0  0  0
  122.3045  106.9832  104.9661 N   0  0  0  0  0  0  0  0  0  0  0  0
  123.8362  107.2686  108.2036 O   0  0  0  0  0  0  0  0  0  0  0  0
  124.8064  108.2377  104.7871 O   0  0  0  0  0  0  0  0  0  0  0  0
  125.2182  109.0152  107.5002 O   0  0  0  0  0  0  0  0  0  0  0  0
  121.9927  104.6291  106.4363 O   0  0  0  0  0  0  0  0  0  0  0  0
  121.9051  106.9877  107.6520 H   0  0  0  0  0  0  0  0  0  0  0  0
  122.5192  105.7936  108.8034 H   0  0  0  0  0  0  0  0  0  0  0  0
  123.8795  105.6600  104.7312 H   0  0  0  0  0  0  0  0  0  0  0  0
  125.5235  106.8084  106.0706 H   0  0  0  0  0  0  0  0  0  0  0  0
  123.2796  108.7356  106.9128 H   0  0  0  0  0  0  0  0  0  0  0  0
  124.5155  103.8584  106.2765 H   0  0  0  0  0  0  0  0  0  0  0  0
  123.9680  103.8925  107.9636 H   0  0  0  0  0  0  0  0  0  0  0  0
  125.1490  105.0858  107.3899 H   0  0  0  0  0  0  0  0  0  0  0  0
  121.1622  105.2302  104.8141 H   0  0  0  0  0  0  0  0  0  0  0  0
  122.0590  105.6724  103.3445 H   0  0  0  0  0  0  0  0  0  0  0  0
  120.6029  106.5814  103.8036 H   0  0  0  0  0  0  0  0  0  0  0  0
  122.6020  107.7572  104.3771 H   0  0  0  0  0  0  0  0  0  0  0  0
  125.1132  107.6949  104.0455 H   0  0  0  0  0  0  0  0  0  0  0  0
  124.9110  109.4919  108.2870 H   0  0  0  0  0  0  0  0  0  0  0  0
  121.8124  104.1224  107.2412 H   0  0  0  0  0  0  0  0  0  0  0  0
  1  5  1  0  0  0  0
  1  9  1  0  0  0  0
  2  3  1  0  0  0  0
  2  5  1  0  0  0  0
  2  8  1  0  0  0  0
  3  4  1  0  0  0  0
  3 10  1  0  0  0  0
  4  9  1  0  0  0  0
  4 11  1  0  0  0  0
  5  6  1  0  0  0  0
  5 12  1  0  0  0  0
  7  8  1  0  0  0  0
  1 13  1  0  0  0  0
  1 14  1  0  0  0  0
  2 15  1  0  0  0  0
  3 16  1  0  0  0  0
  4 17  1  0  0  0  0
  6 18  1  0  0  0  0
  6 19  1  0  0  0  0
  6 20  1  0  0  0  0
  7 21  1  0  0  0  0
  7 22  1  0  0  0  0
  7 23  1  0  0  0  0
  8 24  1  0  0  0  0
 10 25  1  0  0  0  0
 11 26  1  0  0  0  0
 12 27  1  0  0  0  0
M  END
> <FRED Chemgauss4 score>
-6.887662

$$$$
C69691212	P107337996
  -OEChem-05182014473D

 30 30  0     1  0  0  0  0  0999 V2000
  121.2758  105.6007  104.6393 C   0  0  0  0  0  0  0  0  0  0  0  0
  122.8874  106.3126  105.7846 C   0  0  0  0  0  0  0  0  0  0  0  0
  120.9398  104.7741  102.3106 C   0  0  0  0  0  0  0  0  0  0  0  0
  123.8576  107.9304  107.4680 C   0  0  0  0  0  0  0  0  0  0  0  0
  118.9829  103.6065  104.4328 C   0  0  0  0  0  0  0  0  0  0  0  0
  117.9255  105.0233  102.6761 C   0  0  0  0  0  0  0  0  0  0  0  0
  120.3071  105.5679  103.4638 C   0  0  1  0  0  0  0  0  0  0  0  0
  124.0144  107.1920  106.1197 C   0  0  2  0  0  0  0  0  0  0  0  0
  118.8995  105.0296  103.8610 C   0  0  0  0  0  0  0  0  0  0  0  0
  121.3469  104.8142  105.6877 N   0  0  0  0  0  0  0  0  0  0  0  0
  122.4070  105.2826  106.4412 N   0  0  0  0  0  0  0  0  0  0  0  0
  124.2990  108.1760  105.0766 N   0  0  0  0  0  0  0  0  0  0  0  0
  122.2217  106.5793  104.6277 O   0  0  0  0  0  0  0  0  0  0  0  0
  121.1038  103.7282  102.5953 H   0  0  0  0  0  0  0  0  0  0  0  0
  120.2885  104.7666  101.4309 H   0  0  0  0  0  0  0  0  0  0  0  0
  121.9062  105.1945  102.0115 H   0  0  0  0  0  0  0  0  0  0  0  0
  122.9364  108.5235  107.4702 H   0  0  0  0  0  0  0  0  0  0  0  0
  123.8163  107.2363  108.3149 H   0  0  0  0  0  0  0  0  0  0  0  0
  124.6975  108.6102  107.6498 H   0  0  0  0  0  0  0  0  0  0  0  0
  119.4108  102.9114  103.7024 H   0  0  0  0  0  0  0  0  0  0  0  0
  119.5968  103.5711  105.3380 H   0  0  0  0  0  0  0  0  0  0  0  0
  117.9878  103.2384  104.7055 H   0  0  0  0  0  0  0  0  0  0  0  0
  118.2981  104.3953  101.8598 H   0  0  0  0  0  0  0  0  0  0  0  0
  116.9456  104.6377  102.9785 H   0  0  0  0  0  0  0  0  0  0  0  0
  117.7630  106.0334  102.2880 H   0  0  0  0  0  0  0  0  0  0  0  0
  120.1772  106.5966  103.0990 H   0  0  0  0  0  0  0  0  0  0  0  0
  124.9648  106.6191  106.1999 H   0  0  0  0  0  0  0  0  0  0  0  0
  118.4653  105.6740  104.6362 H   0  0  0  0  0  0  0  0  0  0  0  0
  124.1985  107.8926  104.1269 H   0  0  0  0  0  0  0  0  0  0  0  0
  124.7713  109.0127  105.3398 H   0  0  0  0  0  0  0  0  0  0  0  0
  1  7  1  0  0  0  0
  1 10  2  0  0  0  0
  1 13  1  0  0  0  0
  2  8  1  0  0  0  0
  2 11  2  0  0  0  0
  2 13  1  0  0  0  0
  3  7  1  0  0  0  0
  4  8  1  0  0  0  0
  5  9  1  0  0  0  0
  6  9  1  0  0  0  0
  7  9  1  0  0  0  0
  8 12  1  0  0  0  0
 10 11  1  0  0  0  0
  3 14  1  0  0  0  0
  3 15  1  0  0  0  0
  3 16  1  0  0  0  0
  4 17  1  0  0  0  0
  4 18  1  0  0  0  0
  4 19  1  0  0  0  0
  5 20  1  0  0  0  0
  5 21  1  0  0  0  0
  5 22  1  0  0  0  0
  6 23  1  0  0  0  0
  6 24  1  0  0  0  0
  6 25  1  0  0  0  0
  7 26  1  0  0  0  0
  8 27  1  0  0  0  0
  9 28  1  0  0  0  0
 12 29  1  0  0  0  0
 12 30  1  0  0  0  0
M  END
> <FRED Chemgauss4 score>
-6.886809

$$$$
C85248400	P133393697
  -OEChem-05182014473D

 25 25  0     1  0  0  0  0  0999 V2000
  122.9279  106.5998  105.7482 C   0  0  0  0  0  0  0  0  0  0  0  0
  121.2502  105.2039  106.0203 C   0  0  0  0  0  0  0  0  0  0  0  0
  122.0601  104.9935  107.2673 C   0  0  0  0  0  0  0  0  0  0  0  0
  123.3376  105.7378  106.9339 C   0  0  1  0  0  0  0  0  0  0  0  0
  124.8963  103.9163  107.6348 C   0  0  0  0  0  0  0  0  0  0  0  0
  126.6141  105.6796  108.3335 C   0  0  0  0  0  0  0  0  0  0  0  0
  125.4653  104.7715  108.7618 C   0  0  2  0  0  0  0  0  0  0  0  0
  121.7765  106.2276  105.2652 N   0  0  0  0  0  0  0  0  0  0  0  0
  124.3874  104.7644  106.5281 N   0  3  0  0  0  0  0  0  0  0  0  0
  123.6825  107.5124  105.3600 O   0  5  0  0  0  0  0  0  0  0  0  0
  120.2337  104.5722  105.7614 O   0  0  0  0  0  0  0  0  0  0  0  0
  126.0736  106.8126  107.6601 O   0  0  0  0  0  0  0  0  0  0  0  0
  125.9151  103.9058  109.8053 O   0  0  0  0  0  0  0  0  0  0  0  0
  121.5333  105.4670  108.1019 H   0  0  0  0  0  0  0  0  0  0  0  0
  122.2031  103.9290  107.4699 H   0  0  0  0  0  0  0  0  0  0  0  0
  123.7337  106.3131  107.7760 H   0  0  0  0  0  0  0  0  0  0  0  0
  125.6530  103.2550  107.2027 H   0  0  0  0  0  0  0  0  0  0  0  0
  124.0414  103.3259  107.9782 H   0  0  0  0  0  0  0  0  0  0  0  0
  127.2886  105.1741  107.6353 H   0  0  0  0  0  0  0  0  0  0  0  0
  127.1777  106.0371  109.2007 H   0  0  0  0  0  0  0  0  0  0  0  0
  124.6548  105.3751  109.1870 H   0  0  0  0  0  0  0  0  0  0  0  0
  124.0141  104.1606  105.7816 H   0  0  0  0  0  0  0  0  0  0  0  0
  125.1736  105.2771  106.1036 H   0  0  0  0  0  0  0  0  0  0  0  0
  126.8268  107.3668  107.4024 H   0  0  0  0  0  0  0  0  0  0  0  0
  125.1391  103.4050  110.0980 H   0  0  0  0  0  0  0  0  0  0  0  0
  1  4  1  0  0  0  0
  1  8  2  0  0  0  0
  1 10  1  0  0  0  0
  2  3  1  0  0  0  0
  2  8  1  0  0  0  0
  2 11  2  0  0  0  0
  3  4  1  0  0  0  0
  4  9  1  0  0  0  0
  5  7  1  0  0  0  0
  5  9  1  0  0  0  0
  6  7  1  0  0  0  0
  6 12  1  0  0  0  0
  7 13  1  0  0  0  0
  3 14  1  0  0  0  0
  3 15  1  0  0  0  0
  4 16  1  0  0  0  0
  5 17  1  0  0  0  0
  5 18  1  0  0  0  0
  6 19  1  0  0  0  0
  6 20  1  0  0  0  0
  7 21  1  0  0  0  0
  9 22  1  0  0  0  0
  9 23  1  0  0  0  0
 12 24  1  0  0  0  0
 13 25  1  0  0  0  0
M  CHG  2   9   1  10  -1
M  END
> <FRED Chemgauss4 score>
-6.879923

$$$$
C83811975	P131111335
  -OEChem-05182014473D

 24 24  0     1  0  0  0  0  0999 V2000
  122.4051  106.4262  105.5284 C   0  0  0  0  0  0  0  0  0  0  0  0
  124.3548  106.9453  105.9853 C   0  0  0  0  0  0  0  0  0  0  0  0
  119.1279  103.2555  106.2740 C   0  0  0  0  0  0  0  0  0  0  0  0
  120.7318  104.9036  104.3444 C   0  0  0  0  0  0  0  0  0  0  0  0
  119.2558  104.5222  104.2987 C   0  0  0  0  0  0  0  0  0  0  0  0
  120.9876  106.2591  105.0226 C   0  0  2  0  0  0  0  0  0  0  0  0
  123.3066  107.3143  105.1934 N   0  0  0  0  0  0  0  0  0  0  0  0
  124.1417  105.8897  106.7766 N   0  0  0  0  0  0  0  0  0  0  0  0
  125.5069  107.6601  105.9105 N   0  0  0  0  0  0  0  0  0  0  0  0
  120.6439  107.3418  104.1258 N   0  0  0  0  0  0  0  0  0  0  0  0
  122.8217  105.5375  106.4681 O   0  0  0  0  0  0  0  0  0  0  0  0
  118.7574  104.4663  105.6292 O   0  0  0  0  0  0  0  0  0  0  0  0
  118.7293  103.2468  107.2914 H   0  0  0  0  0  0  0  0  0  0  0  0
  120.2175  103.1727  106.2974 H   0  0  0  0  0  0  0  0  0  0  0  0
  118.7124  102.4136  105.7151 H   0  0  0  0  0  0  0  0  0  0  0  0
  121.1158  104.9326  103.3152 H   0  0  0  0  0  0  0  0  0  0  0  0
  121.3009  104.1006  104.8311 H   0  0  0  0  0  0  0  0  0  0  0  0
  118.6686  105.2612  103.7455 H   0  0  0  0  0  0  0  0  0  0  0  0
  119.1213  103.5392  103.8364 H   0  0  0  0  0  0  0  0  0  0  0  0
  120.2875  106.3560  105.8620 H   0  0  0  0  0  0  0  0  0  0  0  0
  125.6210  108.4330  105.2446 H   0  0  0  0  0  0  0  0  0  0  0  0
  126.3412  107.3978  106.4482 H   0  0  0  0  0  0  0  0  0  0  0  0
  121.0218  108.2538  104.3039 H   0  0  0  0  0  0  0  0  0  0  0  0
  119.8883  107.2106  103.4790 H   0  0  0  0  0  0  0  0  0  0  0  0
  1  6  1  0  0  0  0
  1  7  2  0  0  0  0
  1 11  1  0  0  0  0
  2  7  1  0  0  0  0
  2  8  2  0  0  0  0
  2  9  1  0  0  0  0
  3 12  1  0  0  0  0
  4  5  1  0  0  0  0
  4  6  1  0  0  0  0
  5 12  1  0  0  0  0
  6 10  1  0  0  0  0
  8 11  1  0  0  0  0
  3 13  1  0  0  0  0
  3 14  1  0  0  0  0
  3 15  1  0  0  0  0
  4 16  1  0  0  0  0
  4 17  1  0  0  0  0
  5 18  1  0  0  0  0
  5 19  1  0  0  0  0
  6 20  1  0  0  0  0
  9 21  1  0  0  0  0
  9 22  1  0  0  0  0
 10 23  1  0  0  0  0
 10 24  1  0  0  0  0
M  END
> <FRED Chemgauss4 score>
-6.873400

$$$$
C88490101	P138409497
  -OEChem-05182014473D

 32 32  0     1  0  0  0  0  0999 V2000
  118.6166  104.1020  106.4361 C   0  0  0  0  0  0  0  0  0  0  0  0
  120.1794  105.4019  106.9105 C   0  0  0  0  0  0  0  0  0  0  0  0
  126.1001  105.9273  107.7059 C   0  0  0  0  0  0  0  0  0  0  0  0
  117.2982  103.6334  105.9932 C   0  0  0  0  0  0  0  0  0  0  0  0
  124.2012  104.4458  106.9402 C   0  0  0  0  0  0  0  0  0  0  0  0
  122.0746  106.7048  104.9050 C   0  0  0  0  0  0  0  0  0  0  0  0
  121.0942  106.5658  107.1609 C   0  0  0  0  0  0  0  0  0  0  0  0
  124.9114  105.7821  106.7722 C   0  0  1  0  0  0  0  0  0  0  0  0
  118.9450  105.4272  106.4642 N   0  0  0  0  0  0  0  0  0  0  0  0
  119.5701  103.2585  106.8370 N   0  0  0  0  0  0  0  0  0  0  0  0
  120.5587  104.1152  107.1348 N   0  0  0  0  0  0  0  0  0  0  0  0
  125.8421  105.8360  109.0471 N   0  0  0  0  0  0  0  0  0  0  0  0
  122.3341  106.4823  106.3495 N   0  0  2  0  0  0  0  0  0  0  0  0
  124.2335  108.2375  106.1954 O   0  0  0  0  0  0  0  0  0  0  0  0
  123.6110  107.3064  108.4479 O   0  0  0  0  0  0  0  0  0  0  0  0
  127.6507  106.1869  107.1312 S   0  0  0  0  0  0  0  0  0  0  0  0
  123.7774  107.1324  107.0172 S   0  0  0  0  0  0  0  0  0  0  0  0
  117.2814  103.4381  104.9053 H   0  0  0  0  0  0  0  0  0  0  0  0
  116.9906  102.6984  106.4989 H   0  0  0  0  0  0  0  0  0  0  0  0
  116.4961  104.3651  106.2075 H   0  0  0  0  0  0  0  0  0  0  0  0
  123.8554  104.3136  107.9707 H   0  0  0  0  0  0  0  0  0  0  0  0
  123.3316  104.3571  106.2803 H   0  0  0  0  0  0  0  0  0  0  0  0
  124.8764  103.6179  106.6982 H   0  0  0  0  0  0  0  0  0  0  0  0
  123.0082  106.6360  104.3406 H   0  0  0  0  0  0  0  0  0  0  0  0
  121.6403  107.6957  104.7473 H   0  0  0  0  0  0  0  0  0  0  0  0
  121.3779  105.9524  104.5259 H   0  0  0  0  0  0  0  0  0  0  0  0
  120.5942  107.5094  106.9167 H   0  0  0  0  0  0  0  0  0  0  0  0
  121.3867  106.6160  108.2150 H   0  0  0  0  0  0  0  0  0  0  0  0
  125.2397  105.8726  105.7298 H   0  0  0  0  0  0  0  0  0  0  0  0
  121.4411  103.7533  107.4772 H   0  0  0  0  0  0  0  0  0  0  0  0
  124.9089  105.6856  109.4155 H   0  0  0  0  0  0  0  0  0  0  0  0
  126.5879  105.9293  109.7287 H   0  0  0  0  0  0  0  0  0  0  0  0
  1  4  1  0  0  0  0
  1  9  1  0  0  0  0
  1 10  2  0  0  0  0
  2  7  1  0  0  0  0
  2  9  2  0  0  0  0
  2 11  1  0  0  0  0
  3  8  1  0  0  0  0
  3 12  1  0  0  0  0
  3 16  2  0  0  0  0
  5  8  1  0  0  0  0
  6 13  1  0  0  0  0
  7 13  1  0  0  0  0
  8 17  1  0  0  0  0
 10 11  1  0  0  0  0
 13 17  1  0  0  0  0
 14 17  2  0  0  0  0
 15 17  2  0  0  0  0
  4 18  1  0  0  0  0
  4 19  1  0  0  0  0
  4 20  1  0  0  0  0
  5 21  1  0  0  0  0
  5 22  1  0  0  0  0
  5 23  1  0  0  0  0
  6 24  1  0  0  0  0
  6 25  1  0  0  0  0
  6 26  1  0  0  0  0
  7 27  1  0  0  0  0
  7 28  1  0  0  0  0
  8 29  1  0  0  0  0
 11 30  1  0  0  0  0
 12 31  1  0  0  0  0
 12 32  1  0  0  0  0
M  END
> <FRED Chemgauss4 score>
-6.873022

$$$$
C72169033	P112081059
  -OEChem-05182014473D

 21 21  0     1  0  0  0  0  0999 V2000
  124.1676  105.0812  107.2348 C   0  0  0  0  0  0  0  0  0  0  0  0
  126.1055  105.9699  107.2748 C   0  0  0  0  0  0  0  0  0  0  0  0
  125.5391  104.6244  107.7753 C   0  0  0  0  0  0  0  0  0  0  0  0
  124.9384  106.0024  106.2610 C   0  0  0  0  0  0  0  0  0  0  0  0
  124.1428  108.3906  107.5675 C   0  0  0  0  0  0  0  0  0  0  0  0
  125.5753  104.4802  109.2339 N   0  3  0  0  0  0  0  0  0  0  0  0
  125.2312  108.2834  105.0520 O   0  5  0  0  0  0  0  0  0  0  0  0
  122.8198  107.2654  105.4442 O   0  0  0  0  0  0  0  0  0  0  0  0
  124.1935  107.6420  105.9373 P   0  0  1  0  0  0  0  0  0  0  0  0
  123.5657  104.3008  106.7613 H   0  0  0  0  0  0  0  0  0  0  0  0
  123.5413  105.6237  107.9529 H   0  0  0  0  0  0  0  0  0  0  0  0
  126.0784  106.7869  108.0055 H   0  0  0  0  0  0  0  0  0  0  0  0
  127.1052  105.9243  106.8342 H   0  0  0  0  0  0  0  0  0  0  0  0
  125.9509  103.7494  107.2595 H   0  0  0  0  0  0  0  0  0  0  0  0
  125.1906  105.4958  105.3204 H   0  0  0  0  0  0  0  0  0  0  0  0
  123.7101  109.3923  107.5071 H   0  0  0  0  0  0  0  0  0  0  0  0
  123.5334  107.7825  108.2407 H   0  0  0  0  0  0  0  0  0  0  0  0
  125.1532  108.4662  107.9770 H   0  0  0  0  0  0  0  0  0  0  0  0
  126.1614  105.2046  109.6773 H   0  0  0  0  0  0  0  0  0  0  0  0
  125.9587  103.5656  109.5197 H   0  0  0  0  0  0  0  0  0  0  0  0
  124.6344  104.5565  109.6510 H   0  0  0  0  0  0  0  0  0  0  0  0
  1  3  1  0  0  0  0
  1  4  1  0  0  0  0
  2  3  1  0  0  0  0
  2  4  1  0  0  0  0
  3  6  1  0  0  0  0
  4  9  1  0  0  0  0
  5  9  1  0  0  0  0
  7  9  1  0  0  0  0
  8  9  2  0  0  0  0
  1 10  1  0  0  0  0
  1 11  1  0  0  0  0
  2 12  1  0  0  0  0
  2 13  1  0  0  0  0
  3 14  1  0  0  0  0
  4 15  1  0  0  0  0
  5 16  1  0  0  0  0
  5 17  1  0  0  0  0
  5 18  1  0  0  0  0
  6 19  1  0  0  0  0
  6 20  1  0  0  0  0
  6 21  1  0  0  0  0
M  CHG  2   6   1   7  -1
M  END
> <FRED Chemgauss4 score>
-6.871997

$$$$
C90312594	P141186229
  -OEChem-05182014473D

 37 38  0     1  0  0  0  0  0999 V2000
  117.7081  103.7344  104.0941 C   0  0  0  0  0  0  0  0  0  0  0  0
  117.9063  103.3241  105.4124 C   0  0  0  0  0  0  0  0  0  0  0  0
  119.8541  104.8438  104.1165 C   0  0  0  0  0  0  0  0  0  0  0  0
  120.0524  104.4336  105.4348 C   0  0  0  0  0  0  0  0  0  0  0  0
  118.6820  104.4941  103.4461 C   0  0  0  0  0  0  0  0  0  0  0  0
  119.0785  103.6738  106.0828 C   0  0  0  0  0  0  0  0  0  0  0  0
  122.3101  105.5586  105.5700 C   0  0  0  0  0  0  0  0  0  0  0  0
  126.0502  107.5709  107.2878 C   0  0  0  0  0  0  0  0  0  0  0  0
  124.5750  107.8449  106.9307 C   0  0  2  0  0  0  0  0  0  0  0  0
  124.5364  106.4386  106.2907 C   0  0  1  0  0  0  0  0  0  0  0  0
  125.7027  106.0609  107.2464 C   0  0  1  0  0  0  0  0  0  0  0  0
  125.5195  103.2852  107.4842 C   0  0  0  0  0  0  0  0  0  0  0  0
  126.1449  103.9630  106.2837 C   0  0  0  0  0  0  0  0  0  0  0  0
  124.5201  108.8514  105.8792 N   0  0  0  0  0  0  0  0  0  0  0  0
  121.2519  104.8051  106.0859 N   0  0  0  0  0  0  0  0  0  0  0  0
  123.3040  105.7005  106.5344 N   0  0  0  0  0  0  0  0  0  0  0  0
  122.3855  106.0389  104.4417 O   0  0  0  0  0  0  0  0  0  0  0  0
  126.7082  105.1955  106.6918 O   0  0  0  0  0  0  0  0  0  0  0  0
  118.4365  104.9998  101.8194 Cl  0  0  0  0  0  0  0  0  0  0  0  0
  119.2828  103.1446  107.7146 Cl  0  0  0  0  0  0  0  0  0  0  0  0
  116.7899  103.4546  103.5840 H   0  0  0  0  0  0  0  0  0  0  0  0
  117.1376  102.7324  105.9029 H   0  0  0  0  0  0  0  0  0  0  0  0
  120.6149  105.4365  103.6124 H   0  0  0  0  0  0  0  0  0  0  0  0
  126.7955  107.8673  106.5392 H   0  0  0  0  0  0  0  0  0  0  0  0
  126.3680  107.9471  108.2647 H   0  0  0  0  0  0  0  0  0  0  0  0
  123.9110  108.0087  107.7856 H   0  0  0  0  0  0  0  0  0  0  0  0
  124.8213  106.3890  105.2314 H   0  0  0  0  0  0  0  0  0  0  0  0
  125.3692  105.6823  108.2217 H   0  0  0  0  0  0  0  0  0  0  0  0
  126.2692  103.0878  108.2554 H   0  0  0  0  0  0  0  0  0  0  0  0
  124.7285  103.9101  107.9117 H   0  0  0  0  0  0  0  0  0  0  0  0
  125.0541  102.3376  107.1932 H   0  0  0  0  0  0  0  0  0  0  0  0
  125.3898  104.1576  105.5163 H   0  0  0  0  0  0  0  0  0  0  0  0
  126.9355  103.3377  105.8583 H   0  0  0  0  0  0  0  0  0  0  0  0
  125.0603  109.6838  105.9928 H   0  0  0  0  0  0  0  0  0  0  0  0
  123.8019  108.7757  105.1893 H   0  0  0  0  0  0  0  0  0  0  0  0
  121.3514  104.4833  107.0454 H   0  0  0  0  0  0  0  0  0  0  0  0
  123.1652  105.2749  107.4393 H   0  0  0  0  0  0  0  0  0  0  0  0
  1  2  2  0  0  0  0
  1  5  1  0  0  0  0
  2  6  1  0  0  0  0
  3  4  1  0  0  0  0
  3  5  2  0  0  0  0
  4  6  2  0  0  0  0
  4 15  1  0  0  0  0
  5 19  1  0  0  0  0
  6 20  1  0  0  0  0
  7 15  1  0  0  0  0
  7 16  1  0  0  0  0
  7 17  2  0  0  0  0
  8  9  1  0  0  0  0
  8 11  1  0  0  0  0
  9 10  1  0  0  0  0
  9 14  1  0  0  0  0
 10 11  1  0  0  0  0
 10 16  1  0  0  0  0
 11 18  1  0  0  0  0
 12 13  1  0  0  0  0
 13 18  1  0  0  0  0
  1 21  1  0  0  0  0
  2 22  1  0  0  0  0
  3 23  1  0  0  0  0
  8 24  1  0  0  0  0
  8 25  1  0  0  0  0
  9 26  1  0  0  0  0
 10 27  1  0  0  0  0
 11 28  1  0  0  0  0
 12 29  1  0  0  0  0
 12 30  1  0  0  0  0
 12 31  1  0  0  0  0
 13 32  1  0  0  0  0
 13 33  1  0  0  0  0
 14 34  1  0  0  0  0
 14 35  1  0  0  0  0
 15 36  1  0  0  0  0
 16 37  1  0  0  0  0
M  END
> <FRED Chemgauss4 score>
-6.871708

$$$$
C85200009	P133290367
  -OEChem-05182014473D

 20 20  0     0  0  0  0  0  0999 V2000
  122.6901  106.9982  105.9033 C   0  0  0  0  0  0  0  0  0  0  0  0
  122.3359  105.0770  106.7482 C   0  0  0  0  0  0  0  0  0  0  0  0
  123.9262  106.5294  106.2813 C   0  0  0  0  0  0  0  0  0  0  0  0
  125.4430  104.9868  108.5134 C   0  0  0  0  0  0  0  0  0  0  0  0
  125.2707  107.1225  106.1807 C   0  0  0  0  0  0  0  0  0  0  0  0
  124.6571  104.3851  107.3712 C   0  0  0  0  0  0  0  0  0  0  0  0
  121.7044  106.0896  106.1969 N   0  0  0  0  0  0  0  0  0  0  0  0
  123.6832  105.2979  106.8213 N   0  0  0  0  0  0  0  0  0  0  0  0
  125.8572  104.0329  109.4185 N   0  0  0  0  0  0  0  0  0  0  0  0
  125.6843  106.1851  108.6281 O   0  0  0  0  0  0  0  0  0  0  0  0
  125.3433  107.9840  105.0434 O   0  0  0  0  0  0  0  0  0  0  0  0
  122.4573  107.9436  105.4346 H   0  0  0  0  0  0  0  0  0  0  0  0
  121.8759  104.1675  107.1098 H   0  0  0  0  0  0  0  0  0  0  0  0
  125.5338  107.7189  107.0736 H   0  0  0  0  0  0  0  0  0  0  0  0
  126.0572  106.3530  106.0751 H   0  0  0  0  0  0  0  0  0  0  0  0
  124.1290  103.4896  107.7175 H   0  0  0  0  0  0  0  0  0  0  0  0
  125.3378  104.0890  106.5651 H   0  0  0  0  0  0  0  0  0  0  0  0
  125.6442  103.0470  109.3038 H   0  0  0  0  0  0  0  0  0  0  0  0
  126.3967  104.2907  110.2383 H   0  0  0  0  0  0  0  0  0  0  0  0
  126.2435  108.3419  105.0294 H   0  0  0  0  0  0  0  0  0  0  0  0
  1  3  2  0  0  0  0
  1  7  1  0  0  0  0
  2  7  2  0  0  0  0
  2  8  1  0  0  0  0
  3  5  1  0  0  0  0
  3  8  1  0  0  0  0
  4  6  1  0  0  0  0
  4  9  1  0  0  0  0
  4 10  2  0  0  0  0
  5 11  1  0  0  0  0
  6  8  1  0  0  0  0
  1 12  1  0  0  0  0
  2 13  1  0  0  0  0
  5 14  1  0  0  0  0
  5 15  1  0  0  0  0
  6 16  1  0  0  0  0
  6 17  1  0  0  0  0
  9 18  1  0  0  0  0
  9 19  1  0  0  0  0
 11 20  1  0  0  0  0
M  END
> <FRED Chemgauss4 score>
-6.871582

$$$$
C97760673	P155145279
  -OEChem-05182014473D

 40 42  0     1  0  0  0  0  0999 V2000
  123.6028  107.6918  106.4294 C   0  0  0  0  0  0  0  0  0  0  0  0
  124.9795  107.5360  106.2582 C   0  0  0  0  0  0  0  0  0  0  0  0
  123.5983  106.0557  108.2329 C   0  0  0  0  0  0  0  0  0  0  0  0
  121.3645  105.3756  103.4606 C   0  0  0  0  0  0  0  0  0  0  0  0
  120.4141  104.6161  104.1013 C   0  0  0  0  0  0  0  0  0  0  0  0
  124.9597  105.9034  108.0457 C   0  0  0  0  0  0  0  0  0  0  0  0
  122.9162  106.9555  107.4095 C   0  0  0  0  0  0  0  0  0  0  0  0
  125.6305  106.6319  107.0747 C   0  0  0  0  0  0  0  0  0  0  0  0
  120.8174  106.4892  105.1901 C   0  0  0  0  0  0  0  0  0  0  0  0
  125.9305  105.0821  108.8009 C   0  0  0  0  0  0  0  0  0  0  0  0
  127.1253  105.1898  107.8523 C   0  0  0  0  0  0  0  0  0  0  0  0
  117.6751  105.1639  105.7258 C   0  0  0  0  0  0  0  0  0  0  0  0
  120.7023  107.5405  106.2703 C   0  0  0  0  0  0  0  0  0  0  0  0
  119.1019  104.9535  106.2026 C   0  0  0  0  0  0  0  0  0  0  0  0
  121.4454  107.1440  107.5784 C   0  0  2  0  0  0  0  0  0  0  0  0
  121.6113  106.5402  104.1436 N   0  0  0  0  0  0  0  0  0  0  0  0
  120.0735  105.3422  105.2077 N   0  0  0  0  0  0  0  0  0  0  0  0
  121.7458  109.3679  108.2359 N   0  0  0  0  0  0  0  0  0  0  0  0
  121.1369  108.1441  108.6233 N   0  0  0  0  0  0  0  0  0  0  0  0
  126.9773  106.3748  107.0342 O   0  0  0  0  0  0  0  0  0  0  0  0
  123.0642  108.3935  105.7972 H   0  0  0  0  0  0  0  0  0  0  0  0
  125.5137  108.1054  105.5059 H   0  0  0  0  0  0  0  0  0  0  0  0
  123.0781  105.4958  109.0036 H   0  0  0  0  0  0  0  0  0  0  0  0
  121.8837  105.1430  102.5424 H   0  0  0  0  0  0  0  0  0  0  0  0
  119.9684  103.6579  103.8736 H   0  0  0  0  0  0  0  0  0  0  0  0
  126.1495  105.5472  109.7672 H   0  0  0  0  0  0  0  0  0  0  0  0
  125.6172  104.0451  108.9462 H   0  0  0  0  0  0  0  0  0  0  0  0
  128.0715  105.2442  108.4006 H   0  0  0  0  0  0  0  0  0  0  0  0
  127.1747  104.3241  107.1795 H   0  0  0  0  0  0  0  0  0  0  0  0
  117.4922  106.2144  105.4760 H   0  0  0  0  0  0  0  0  0  0  0  0
  116.9669  104.8707  106.5070 H   0  0  0  0  0  0  0  0  0  0  0  0
  117.4646  104.5670  104.8323 H   0  0  0  0  0  0  0  0  0  0  0  0
  119.6325  107.7010  106.4645 H   0  0  0  0  0  0  0  0  0  0  0  0
  121.0757  108.5010  105.8913 H   0  0  0  0  0  0  0  0  0  0  0  0
  119.2752  103.9001  106.4500 H   0  0  0  0  0  0  0  0  0  0  0  0
  119.2961  105.5368  107.1098 H   0  0  0  0  0  0  0  0  0  0  0  0
  120.9893  106.2032  107.9400 H   0  0  0  0  0  0  0  0  0  0  0  0
  122.1384  109.2769  107.2993 H   0  0  0  0  0  0  0  0  0  0  0  0
  121.0138  110.0734  108.1635 H   0  0  0  0  0  0  0  0  0  0  0  0
  121.5289  107.8209  109.4986 H   0  0  0  0  0  0  0  0  0  0  0  0
  1  2  2  0  0  0  0
  1  7  1  0  0  0  0
  2  8  1  0  0  0  0
  3  6  1  0  0  0  0
  3  7  2  0  0  0  0
  4  5  2  0  0  0  0
  4 16  1  0  0  0  0
  5 17  1  0  0  0  0
  6  8  2  0  0  0  0
  6 10  1  0  0  0  0
  7 15  1  0  0  0  0
  8 20  1  0  0  0  0
  9 13  1  0  0  0  0
  9 16  2  0  0  0  0
  9 17  1  0  0  0  0
 10 11  1  0  0  0  0
 11 20  1  0  0  0  0
 12 14  1  0  0  0  0
 13 15  1  0  0  0  0
 14 17  1  0  0  0  0
 15 19  1  0  0  0  0
 18 19  1  0  0  0  0
  1 21  1  0  0  0  0
  2 22  1  0  0  0  0
  3 23  1  0  0  0  0
  4 24  1  0  0  0  0
  5 25  1  0  0  0  0
 10 26  1  0  0  0  0
 10 27  1  0  0  0  0
 11 28  1  0  0  0  0
 11 29  1  0  0  0  0
 12 30  1  0  0  0  0
 12 31  1  0  0  0  0
 12 32  1  0  0  0  0
 13 33  1  0  0  0  0
 13 34  1  0  0  0  0
 14 35  1  0  0  0  0
 14 36  1  0  0  0  0
 15 37  1  0  0  0  0
 18 38  1  0  0  0  0
 18 39  1  0  0  0  0
 19 40  1  0  0  0  0
M  END
> <FRED Chemgauss4 score>
-6.869830

$$$$
C94232859	P147685151
  -OEChem-05182014473D

 42 42  0     1  0  0  0  0  0999 V2000
  116.6476  104.8181  104.2786 C   0  0  0  0  0  0  0  0  0  0  0  0
  122.8873  106.9206  106.0826 C   0  0  0  0  0  0  0  0  0  0  0  0
  121.0758  104.4734  106.2771 C   0  0  0  0  0  0  0  0  0  0  0  0
  119.8846  106.6646  106.5366 C   0  0  0  0  0  0  0  0  0  0  0  0
  119.7133  103.8011  106.0993 C   0  0  0  0  0  0  0  0  0  0  0  0
  118.5615  105.9201  106.3491 C   0  0  0  0  0  0  0  0  0  0  0  0
  120.9608  105.7466  107.1157 C   0  0  0  0  0  0  0  0  0  0  0  0
  123.9923  108.8078  107.3481 C   0  0  0  0  0  0  0  0  0  0  0  0
  116.2597  104.9163  101.8181 C   0  0  0  0  0  0  0  0  0  0  0  0
  117.4563  104.0562  105.2973 C   0  0  0  0  0  0  0  0  0  0  0  0
  124.2215  107.6170  106.4118 C   0  0  1  0  0  0  0  0  0  0  0  0
  125.2303  106.6356  107.0054 C   0  0  0  0  0  0  0  0  0  0  0  0
  118.7384  104.7281  105.5082 N   0  0  0  0  0  0  0  0  0  0  0  0
  124.7730  108.1339  105.1519 N   0  0  0  0  0  0  0  0  0  0  0  0
  122.2277  106.4295  107.1991 N   0  0  0  0  0  0  0  0  0  0  0  0
  116.9000  104.3662  102.9912 N   0  0  0  0  0  0  0  0  0  0  0  0
  115.8673  105.7198  104.5725 O   0  0  0  0  0  0  0  0  0  0  0  0
  122.4559  106.8192  104.9338 O   0  0  0  0  0  0  0  0  0  0  0  0
  125.4991  105.6256  106.1456 F   0  0  0  0  0  0  0  0  0  0  0  0
  124.7685  106.0816  108.1494 F   0  0  0  0  0  0  0  0  0  0  0  0
  126.4077  107.2351  107.2912 F   0  0  0  0  0  0  0  0  0  0  0  0
  121.7550  103.7758  106.7776 H   0  0  0  0  0  0  0  0  0  0  0  0
  121.5044  104.6957  105.2962 H   0  0  0  0  0  0  0  0  0  0  0  0
  120.2080  107.0815  105.5789 H   0  0  0  0  0  0  0  0  0  0  0  0
  119.7265  107.5056  107.2197 H   0  0  0  0  0  0  0  0  0  0  0  0
  119.8188  102.8985  105.4831 H   0  0  0  0  0  0  0  0  0  0  0  0
  119.3625  103.4781  107.0873 H   0  0  0  0  0  0  0  0  0  0  0  0
  118.1964  105.6214  107.3396 H   0  0  0  0  0  0  0  0  0  0  0  0
  117.8101  106.5952  105.9185 H   0  0  0  0  0  0  0  0  0  0  0  0
  120.6987  105.4828  108.1457 H   0  0  0  0  0  0  0  0  0  0  0  0
  124.9313  109.3162  107.5937 H   0  0  0  0  0  0  0  0  0  0  0  0
  123.5419  108.4889  108.2958 H   0  0  0  0  0  0  0  0  0  0  0  0
  123.3286  109.5532  106.8940 H   0  0  0  0  0  0  0  0  0  0  0  0
  115.3352  104.3732  101.6053 H   0  0  0  0  0  0  0  0  0  0  0  0
  116.9228  104.8351  100.9525 H   0  0  0  0  0  0  0  0  0  0  0  0
  116.0196  105.9708  101.9780 H   0  0  0  0  0  0  0  0  0  0  0  0
  116.9109  104.0153  106.2448 H   0  0  0  0  0  0  0  0  0  0  0  0
  117.6386  103.0384  104.9401 H   0  0  0  0  0  0  0  0  0  0  0  0
  124.4406  109.0123  104.8301 H   0  0  0  0  0  0  0  0  0  0  0  0
  125.2885  107.5045  104.5828 H   0  0  0  0  0  0  0  0  0  0  0  0
  122.6624  106.5036  108.1130 H   0  0  0  0  0  0  0  0  0  0  0  0
  117.5682  103.6112  102.8671 H   0  0  0  0  0  0  0  0  0  0  0  0
  1 10  1  0  0  0  0
  1 16  1  0  0  0  0
  1 17  2  0  0  0  0
  2 11  1  0  0  0  0
  2 15  1  0  0  0  0
  2 18  2  0  0  0  0
  3  5  1  0  0  0  0
  3  7  1  0  0  0  0
  4  6  1  0  0  0  0
  4  7  1  0  0  0  0
  5 13  1  0  0  0  0
  6 13  1  0  0  0  0
  7 15  1  0  0  0  0
  8 11  1  0  0  0  0
  9 16  1  0  0  0  0
 10 13  1  0  0  0  0
 11 12  1  0  0  0  0
 11 14  1  0  0  0  0
 12 19  1  0  0  0  0
 12 20  1  0  0  0  0
 12 21  1  0  0  0  0
  3 22  1  0  0  0  0
  3 23  1  0  0  0  0
  4 24  1  0  0  0  0
  4 25  1  0  0  0  0
  5 26  1  0  0  0  0
  5 27  1  0  0  0  0
  6 28  1  0  0  0  0
  6 29  1  0  0  0  0
  7 30  1  0  0  0  0
  8 31  1  0  0  0  0
  8 32  1  0  0  0  0
  8 33  1  0  0  0  0
  9 34  1  0  0  0  0
  9 35  1  0  0  0  0
  9 36  1  0  0  0  0
 10 37  1  0  0  0  0
 10 38  1  0  0  0  0
 14 39  1  0  0  0  0
 14 40  1  0  0  0  0
 15 41  1  0  0  0  0
 16 42  1  0  0  0  0
M  END
> <FRED Chemgauss4 score>
-6.867846

$$$$
C90312824	P141186511
  -OEChem-05182014473D

 36 37  0     1  0  0  0  0  0999 V2000
  125.9458  104.5307  108.6523 C   0  0  0  0  0  0  0  0  0  0  0  0
  126.0440  105.9088  108.3038 C   0  0  0  0  0  0  0  0  0  0  0  0
  124.8686  103.9199  108.0489 C   0  0  0  0  0  0  0  0  0  0  0  0
  125.0381  106.2987  107.4470 C   0  0  0  0  0  0  0  0  0  0  0  0
  121.6629  109.8212  109.6751 C   0  0  0  0  0  0  0  0  0  0  0  0
  122.7828  108.9108  110.2072 C   0  0  2  0  0  0  0  0  0  0  0  0
  122.9181  108.2915  108.7960 C   0  0  1  0  0  0  0  0  0  0  0  0
  121.5537  108.9310  108.4178 C   0  0  1  0  0  0  0  0  0  0  0  0
  124.4295  102.5118  108.1564 C   0  0  0  0  0  0  0  0  0  0  0  0
  119.2207  106.3430  107.2162 C   0  0  0  0  0  0  0  0  0  0  0  0
  120.4194  107.2673  107.2004 C   0  0  0  0  0  0  0  0  0  0  0  0
  122.1909  107.9146  111.0999 N   0  0  0  0  0  0  0  0  0  0  0  0
  124.1030  108.7617  107.9917 N   0  0  0  0  0  0  0  0  0  0  0  0
  125.8538  108.4059  106.1414 O   0  0  0  0  0  0  0  0  0  0  0  0
  123.4980  107.5908  105.8094 O   0  0  0  0  0  0  0  0  0  0  0  0
  120.4260  108.0341  108.3899 O   0  0  0  0  0  0  0  0  0  0  0  0
  123.9812  105.0062  107.0667 S   0  0  0  0  0  0  0  0  0  0  0  0
  124.6320  107.8382  106.6790 S   0  0  0  0  0  0  0  0  0  0  0  0
  126.6330  104.0172  109.3127 H   0  0  0  0  0  0  0  0  0  0  0  0
  126.8141  106.5787  108.6640 H   0  0  0  0  0  0  0  0  0  0  0  0
  120.7320  109.8520  110.2728 H   0  0  0  0  0  0  0  0  0  0  0  0
  121.9638  110.8654  109.4834 H   0  0  0  0  0  0  0  0  0  0  0  0
  123.6665  109.4256  110.5982 H   0  0  0  0  0  0  0  0  0  0  0  0
  122.8876  107.1941  108.7644 H   0  0  0  0  0  0  0  0  0  0  0  0
  121.5862  109.5157  107.4831 H   0  0  0  0  0  0  0  0  0  0  0  0
  123.7221  102.3818  108.9904 H   0  0  0  0  0  0  0  0  0  0  0  0
  123.9331  102.1646  107.2355 H   0  0  0  0  0  0  0  0  0  0  0  0
  125.2782  101.8284  108.3240 H   0  0  0  0  0  0  0  0  0  0  0  0
  119.2646  105.6615  108.0703 H   0  0  0  0  0  0  0  0  0  0  0  0
  118.2905  106.9180  107.2701 H   0  0  0  0  0  0  0  0  0  0  0  0
  119.1767  105.7524  106.2950 H   0  0  0  0  0  0  0  0  0  0  0  0
  120.3694  107.9461  106.3438 H   0  0  0  0  0  0  0  0  0  0  0  0
  121.3480  106.6911  107.1473 H   0  0  0  0  0  0  0  0  0  0  0  0
  121.5588  108.2288  111.8066 H   0  0  0  0  0  0  0  0  0  0  0  0
  122.5843  106.9965  111.1112 H   0  0  0  0  0  0  0  0  0  0  0  0
  124.2605  109.7637  108.0205 H   0  0  0  0  0  0  0  0  0  0  0  0
  1  2  1  0  0  0  0
  1  3  2  0  0  0  0
  2  4  2  0  0  0  0
  3  9  1  0  0  0  0
  3 17  1  0  0  0  0
  4 17  1  0  0  0  0
  4 18  1  0  0  0  0
  5  6  1  0  0  0  0
  5  8  1  0  0  0  0
  6  7  1  0  0  0  0
  6 12  1  0  0  0  0
  7  8  1  0  0  0  0
  7 13  1  0  0  0  0
  8 16  1  0  0  0  0
 10 11  1  0  0  0  0
 11 16  1  0  0  0  0
 13 18  1  0  0  0  0
 14 18  2  0  0  0  0
 15 18  2  0  0  0  0
  1 19  1  0  0  0  0
  2 20  1  0  0  0  0
  5 21  1  0  0  0  0
  5 22  1  0  0  0  0
  6 23  1  0  0  0  0
  7 24  1  0  0  0  0
  8 25  1  0  0  0  0
  9 26  1  0  0  0  0
  9 27  1  0  0  0  0
  9 28  1  0  0  0  0
 10 29  1  0  0  0  0
 10 30  1  0  0  0  0
 10 31  1  0  0  0  0
 11 32  1  0  0  0  0
 11 33  1  0  0  0  0
 12 34  1  0  0  0  0
 12 35  1  0  0  0  0
 13 36  1  0  0  0  0
M  END
> <FRED Chemgauss4 score>
-6.865758

$$$$
C03830889	P56794640
  -OEChem-05182014473D

 25 25  0     1  0  0  0  0  0999 V2000
  125.7816  106.8230  107.1589 C   0  0  1  0  0  0  0  0  0  0  0  0
  125.4378  105.7485  108.1935 C   0  0  2  0  0  0  0  0  0  0  0  0
  123.9259  105.6623  108.4292 C   0  0  1  0  0  0  0  0  0  0  0  0
  123.1772  105.5469  107.0922 C   0  0  1  0  0  0  0  0  0  0  0  0
  124.9486  106.5966  105.8932 C   0  0  1  0  0  0  0  0  0  0  0  0
  121.6649  105.6297  107.2735 C   0  0  0  0  0  0  0  0  0  0  0  0
  125.5398  108.1725  107.6941 N   0  0  0  0  0  0  0  0  0  0  0  0
  123.5527  106.6037  106.2015 O   0  0  0  0  0  0  0  0  0  0  0  0
  126.1190  106.0154  109.4170 O   0  0  0  0  0  0  0  0  0  0  0  0
  123.6719  104.5123  109.2339 O   0  0  0  0  0  0  0  0  0  0  0  0
  125.2648  107.6001  104.9318 O   0  0  0  0  0  0  0  0  0  0  0  0
  121.2516  104.5624  108.1072 O   0  0  0  0  0  0  0  0  0  0  0  0
  126.8507  106.7763  106.9205 H   0  0  0  0  0  0  0  0  0  0  0  0
  125.8090  104.7776  107.8405 H   0  0  0  0  0  0  0  0  0  0  0  0
  123.5923  106.5390  108.9975 H   0  0  0  0  0  0  0  0  0  0  0  0
  123.4006  104.5841  106.6138 H   0  0  0  0  0  0  0  0  0  0  0  0
  125.2097  105.6282  105.4472 H   0  0  0  0  0  0  0  0  0  0  0  0
  121.1688  105.5443  106.3066 H   0  0  0  0  0  0  0  0  0  0  0  0
  121.3972  106.5770  107.7418 H   0  0  0  0  0  0  0  0  0  0  0  0
  125.3967  108.9049  107.0411 H   0  0  0  0  0  0  0  0  0  0  0  0
  125.7314  108.3247  108.6551 H   0  0  0  0  0  0  0  0  0  0  0  0
  127.0669  106.0040  109.2131 H   0  0  0  0  0  0  0  0  0  0  0  0
  124.0000  103.7491  108.7342 H   0  0  0  0  0  0  0  0  0  0  0  0
  124.7174  107.4180  104.1523 H   0  0  0  0  0  0  0  0  0  0  0  0
  120.2872  104.6358  108.2080 H   0  0  0  0  0  0  0  0  0  0  0  0
  1  2  1  0  0  0  0
  1  5  1  0  0  0  0
  1  7  1  0  0  0  0
  2  3  1  0  0  0  0
  2  9  1  0  0  0  0
  3  4  1  0  0  0  0
  3 10  1  0  0  0  0
  4  6  1  0  0  0  0
  4  8  1  0  0  0  0
  5  8  1  0  0  0  0
  5 11  1  0  0  0  0
  6 12  1  0  0  0  0
  1 13  1  0  0  0  0
  2 14  1  0  0  0  0
  3 15  1  0  0  0  0
  4 16  1  0  0  0  0
  5 17  1  0  0  0  0
  6 18  1  0  0  0  0
  6 19  1  0  0  0  0
  7 20  1  0  0  0  0
  7 21  1  0  0  0  0
  9 22  1  0  0  0  0
 10 23  1  0  0  0  0
 11 24  1  0  0  0  0
 12 25  1  0  0  0  0
M  END
> <FRED Chemgauss4 score>
-6.863416

$$$$
C86057603	P134789567
  -OEChem-05182014473D

 23 23  0     1  0  0  0  0  0999 V2000
  121.9904  108.2313  107.3004 C   0  0  0  0  0  0  0  0  0  0  0  0
  124.0020  107.9251  106.8347 C   0  0  0  0  0  0  0  0  0  0  0  0
  125.4689  106.0584  106.0461 C   0  0  0  0  0  0  0  0  0  0  0  0
  125.4123  105.1032  106.9949 C   0  0  0  0  0  0  0  0  0  0  0  0
  125.5406  103.6264  106.7498 C   0  0  0  0  0  0  0  0  0  0  0  0
  125.2177  105.4767  108.4408 C   0  0  0  0  0  0  0  0  0  0  0  0
  125.3469  107.5546  106.2312 C   0  0  1  0  0  0  0  0  0  0  0  0
  122.8053  107.6774  106.3551 N   0  0  0  0  0  0  0  0  0  0  0  0
  122.6076  108.8062  108.3348 N   0  0  0  0  0  0  0  0  0  0  0  0
  123.8930  108.5965  108.0124 N   0  0  0  0  0  0  0  0  0  0  0  0
  125.5691  108.2521  104.9543 N   0  0  0  0  0  0  0  0  0  0  0  0
  120.9128  108.2155  107.2334 H   0  0  0  0  0  0  0  0  0  0  0  0
  125.6331  105.7348  105.0174 H   0  0  0  0  0  0  0  0  0  0  0  0
  126.5915  103.3243  106.8170 H   0  0  0  0  0  0  0  0  0  0  0  0
  125.1848  103.3126  105.7665 H   0  0  0  0  0  0  0  0  0  0  0  0
  124.9746  103.0701  107.5042 H   0  0  0  0  0  0  0  0  0  0  0  0
  124.1604  105.5210  108.7227 H   0  0  0  0  0  0  0  0  0  0  0  0
  125.6561  106.4600  108.6410 H   0  0  0  0  0  0  0  0  0  0  0  0
  125.7031  104.7403  109.0900 H   0  0  0  0  0  0  0  0  0  0  0  0
  126.1397  107.9153  106.8949 H   0  0  0  0  0  0  0  0  0  0  0  0
  124.6202  108.9337  108.6324 H   0  0  0  0  0  0  0  0  0  0  0  0
  126.2379  107.8660  104.3324 H   0  0  0  0  0  0  0  0  0  0  0  0
  125.2009  109.1684  104.8634 H   0  0  0  0  0  0  0  0  0  0  0  0
  1  8  1  0  0  0  0
  1  9  2  0  0  0  0
  2  7  1  0  0  0  0
  2  8  2  0  0  0  0
  2 10  1  0  0  0  0
  3  4  2  0  0  0  0
  3  7  1  0  0  0  0
  4  5  1  0  0  0  0
  4  6  1  0  0  0  0
  7 11  1  0  0  0  0
  9 10  1  0  0  0  0
  1 12  1  0  0  0  0
  3 13  1  0  0  0  0
  5 14  1  0  0  0  0
  5 15  1  0  0  0  0
  5 16  1  0  0  0  0
  6 17  1  0  0  0  0
  6 18  1  0  0  0  0
  6 19  1  0  0  0  0
  7 20  1  0  0  0  0
 10 21  1  0  0  0  0
 11 22  1  0  0  0  0
 11 23  1  0  0  0  0
M  END
> <FRED Chemgauss4 score>
-6.856481

$$$$
C34977828	P51916462
  -OEChem-05182014473D

 29 29  0     0  0  0  0  0  0999 V2000
  121.5864  105.4264  106.5209 C   0  0  0  0  0  0  0  0  0  0  0  0
  121.6694  106.2112  105.2714 C   0  0  0  0  0  0  0  0  0  0  0  0
  126.4661  105.8290  108.4104 C   0  0  0  0  0  0  0  0  0  0  0  0
  124.1199  105.5002  109.1653 C   0  0  0  0  0  0  0  0  0  0  0  0
  125.0851  104.0978  107.2600 C   0  0  0  0  0  0  0  0  0  0  0  0
  122.8296  104.9274  108.5899 C   0  0  0  0  0  0  0  0  0  0  0  0
  124.0472  104.8307  106.4124 C   0  0  0  0  0  0  0  0  0  0  0  0
  125.3665  104.8197  108.5832 C   0  0  0  0  0  0  0  0  0  0  0  0
  122.7889  105.0742  107.1327 N   0  0  0  0  0  0  0  0  0  0  0  0
  126.8202  106.4681  109.5750 N   0  0  0  0  0  0  0  0  0  0  0  0
  121.0811  106.1779  102.9758 N   0  0  0  0  0  0  0  0  0  0  0  0
  121.0797  105.5623  104.2117 N   0  0  0  0  0  0  0  0  0  0  0  0
  120.4684  105.1376  106.9490 O   0  0  0  0  0  0  0  0  0  0  0  0
  122.2170  107.3050  105.2643 O   0  0  0  0  0  0  0  0  0  0  0  0
  126.9975  106.0356  107.3221 O   0  0  0  0  0  0  0  0  0  0  0  0
  124.1520  106.5801  108.9903 H   0  0  0  0  0  0  0  0  0  0  0  0
  124.1197  105.3459  110.2504 H   0  0  0  0  0  0  0  0  0  0  0  0
  124.7051  103.0959  107.4880 H   0  0  0  0  0  0  0  0  0  0  0  0
  126.0065  103.9748  106.6834 H   0  0  0  0  0  0  0  0  0  0  0  0
  122.7373  103.8680  108.8658 H   0  0  0  0  0  0  0  0  0  0  0  0
  121.9498  105.4433  109.0008 H   0  0  0  0  0  0  0  0  0  0  0  0
  124.4302  105.8151  106.0844 H   0  0  0  0  0  0  0  0  0  0  0  0
  123.8661  104.2602  105.4851 H   0  0  0  0  0  0  0  0  0  0  0  0
  125.7450  104.0943  109.3111 H   0  0  0  0  0  0  0  0  0  0  0  0
  126.3347  106.2234  110.4318 H   0  0  0  0  0  0  0  0  0  0  0  0
  127.5476  107.1748  109.6122 H   0  0  0  0  0  0  0  0  0  0  0  0
  121.1533  105.4389  102.2776 H   0  0  0  0  0  0  0  0  0  0  0  0
  121.9476  106.7110  102.9123 H   0  0  0  0  0  0  0  0  0  0  0  0
  120.6416  104.6495  104.2883 H   0  0  0  0  0  0  0  0  0  0  0  0
  1  2  1  0  0  0  0
  1  9  1  0  0  0  0
  1 13  2  0  0  0  0
  2 12  1  0  0  0  0
  2 14  2  0  0  0  0
  3  8  1  0  0  0  0
  3 10  1  0  0  0  0
  3 15  2  0  0  0  0
  4  6  1  0  0  0  0
  4  8  1  0  0  0  0
  5  7  1  0  0  0  0
  5  8  1  0  0  0  0
  6  9  1  0  0  0  0
  7  9  1  0  0  0  0
 11 12  1  0  0  0  0
  4 16  1  0  0  0  0
  4 17  1  0  0  0  0
  5 18  1  0  0  0  0
  5 19  1  0  0  0  0
  6 20  1  0  0  0  0
  6 21  1  0  0  0  0
  7 22  1  0  0  0  0
  7 23  1  0  0  0  0
  8 24  1  0  0  0  0
 10 25  1  0  0  0  0
 10 26  1  0  0  0  0
 11 27  1  0  0  0  0
 11 28  1  0  0  0  0
 12 29  1  0  0  0  0
M  END
> <FRED Chemgauss4 score>
-6.851399

$$$$
C82897720	P129591541
  -OEChem-05182014473D

 27 27  0     1  0  0  0  0  0999 V2000
  121.3304  105.4366  106.3076 C   0  0  0  0  0  0  0  0  0  0  0  0
  121.3869  106.1478  105.0940 C   0  0  0  0  0  0  0  0  0  0  0  0
  122.1513  106.1389  107.1557 C   0  0  0  0  0  0  0  0  0  0  0  0
  120.6920  105.8309  103.8350 C   0  0  0  0  0  0  0  0  0  0  0  0
  122.5127  105.9071  108.5662 C   0  0  0  0  0  0  0  0  0  0  0  0
  123.5787  108.2632  106.9005 C   0  0  0  0  0  0  0  0  0  0  0  0
  125.6645  106.7500  106.8371 C   0  0  0  0  0  0  0  0  0  0  0  0
  125.0224  108.0725  106.3982 C   0  0  1  0  0  0  0  0  0  0  0  0
  122.1809  107.2198  105.1611 N   0  0  0  0  0  0  0  0  0  0  0  0
  122.6307  107.1874  106.4271 N   0  0  0  0  0  0  0  0  0  0  0  0
  125.0157  108.1303  104.9318 N   0  0  0  0  0  0  0  0  0  0  0  0
  125.7195  106.6542  108.2541 O   0  0  0  0  0  0  0  0  0  0  0  0
  120.7731  104.5394  106.5360 H   0  0  0  0  0  0  0  0  0  0  0  0
  119.7021  106.3166  103.7903 H   0  0  0  0  0  0  0  0  0  0  0  0
  121.2637  106.1596  102.9487 H   0  0  0  0  0  0  0  0  0  0  0  0
  120.5353  104.7447  103.7070 H   0  0  0  0  0  0  0  0  0  0  0  0
  123.4099  105.2710  108.6488 H   0  0  0  0  0  0  0  0  0  0  0  0
  122.7213  106.8495  109.1019 H   0  0  0  0  0  0  0  0  0  0  0  0
  121.7003  105.4128  109.1273 H   0  0  0  0  0  0  0  0  0  0  0  0
  123.1854  109.2276  106.5491 H   0  0  0  0  0  0  0  0  0  0  0  0
  123.5550  108.3238  107.9968 H   0  0  0  0  0  0  0  0  0  0  0  0
  125.0864  105.8999  106.4599 H   0  0  0  0  0  0  0  0  0  0  0  0
  126.6829  106.6585  106.4422 H   0  0  0  0  0  0  0  0  0  0  0  0
  125.6518  108.8951  106.7595 H   0  0  0  0  0  0  0  0  0  0  0  0
  125.7739  107.7066  104.4494 H   0  0  0  0  0  0  0  0  0  0  0  0
  124.3765  108.7547  104.4973 H   0  0  0  0  0  0  0  0  0  0  0  0
  126.1333  105.8008  108.4614 H   0  0  0  0  0  0  0  0  0  0  0  0
  1  2  1  0  0  0  0
  1  3  2  0  0  0  0
  2  4  1  0  0  0  0
  2  9  2  0  0  0  0
  3  5  1  0  0  0  0
  3 10  1  0  0  0  0
  6  8  1  0  0  0  0
  6 10  1  0  0  0  0
  7  8  1  0  0  0  0
  7 12  1  0  0  0  0
  8 11  1  0  0  0  0
  9 10  1  0  0  0  0
  1 13  1  0  0  0  0
  4 14  1  0  0  0  0
  4 15  1  0  0  0  0
  4 16  1  0  0  0  0
  5 17  1  0  0  0  0
  5 18  1  0  0  0  0
  5 19  1  0  0  0  0
  6 20  1  0  0  0  0
  6 21  1  0  0  0  0
  7 22  1  0  0  0  0
  7 23  1  0  0  0  0
  8 24  1  0  0  0  0
 11 25  1  0  0  0  0
 11 26  1  0  0  0  0
 12 27  1  0  0  0  0
M  END
> <FRED Chemgauss4 score>
-6.843612

$$$$
C20443548	P30507208
  -OEChem-05182014473D

 20 20  0     1  0  0  0  0  0999 V2000
  121.6024  105.4972  104.7928 C   0  0  0  0  0  0  0  0  0  0  0  0
  121.6146  104.5712  105.8148 C   0  0  0  0  0  0  0  0  0  0  0  0
  123.2449  106.3369  105.9790 C   0  0  0  0  0  0  0  0  0  0  0  0
  124.1215  107.9078  107.7911 C   0  0  0  0  0  0  0  0  0  0  0  0
  124.3992  106.9784  108.9680 C   0  0  0  0  0  0  0  0  0  0  0  0
  124.3693  107.2479  106.4251 C   0  0  2  0  0  0  0  0  0  0  0  0
  122.5363  106.5107  104.8855 N   0  0  0  0  0  0  0  0  0  0  0  0
  124.6268  108.2566  105.4198 N   0  0  0  0  0  0  0  0  0  0  0  0
  125.7662  106.5889  108.9293 O   0  0  0  0  0  0  0  0  0  0  0  0
  122.8425  104.9748  106.9421 S   0  0  0  0  0  0  0  0  0  0  0  0
  120.9269  105.4788  103.9481 H   0  0  0  0  0  0  0  0  0  0  0  0
  120.9832  103.7042  105.9471 H   0  0  0  0  0  0  0  0  0  0  0  0
  124.7627  108.7948  107.8892 H   0  0  0  0  0  0  0  0  0  0  0  0
  123.0970  108.2955  107.8666 H   0  0  0  0  0  0  0  0  0  0  0  0
  124.2137  107.4771  109.9240 H   0  0  0  0  0  0  0  0  0  0  0  0
  123.7801  106.0777  108.9080 H   0  0  0  0  0  0  0  0  0  0  0  0
  125.3008  106.6717  106.4906 H   0  0  0  0  0  0  0  0  0  0  0  0
  124.5156  108.0132  104.4530 H   0  0  0  0  0  0  0  0  0  0  0  0
  125.0999  109.0985  105.6917 H   0  0  0  0  0  0  0  0  0  0  0  0
  125.9107  106.0005  109.6877 H   0  0  0  0  0  0  0  0  0  0  0  0
  1  2  2  0  0  0  0
  1  7  1  0  0  0  0
  2 10  1  0  0  0  0
  3  6  1  0  0  0  0
  3  7  2  0  0  0  0
  3 10  1  0  0  0  0
  4  5  1  0  0  0  0
  4  6  1  0  0  0  0
  5  9  1  0  0  0  0
  6  8  1  0  0  0  0
  1 11  1  0  0  0  0
  2 12  1  0  0  0  0
  4 13  1  0  0  0  0
  4 14  1  0  0  0  0
  5 15  1  0  0  0  0
  5 16  1  0  0  0  0
  6 17  1  0  0  0  0
  8 18  1  0  0  0  0
  8 19  1  0  0  0  0
  9 20  1  0  0  0  0
M  END
> <FRED Chemgauss4 score>
-6.841867

$$$$
C87588301	P137003099
  -OEChem-05182014473D

 27 28  0     1  0  0  0  0  0999 V2000
  118.7861  105.9321  106.0820 C   0  0  0  0  0  0  0  0  0  0  0  0
  118.2303  103.7999  106.1166 C   0  0  0  0  0  0  0  0  0  0  0  0
  119.8487  105.1413  106.4509 C   0  0  0  0  0  0  0  0  0  0  0  0
  123.4321  106.4796  105.8214 C   0  0  0  0  0  0  0  0  0  0  0  0
  125.4431  107.0624  106.3919 C   0  0  0  0  0  0  0  0  0  0  0  0
  121.2544  105.5690  106.8062 C   0  0  0  0  0  0  0  0  0  0  0  0
  122.2017  105.6200  105.5867 C   0  0  2  0  0  0  0  0  0  0  0  0
  119.4963  103.8150  106.4702 N   0  0  0  0  0  0  0  0  0  0  0  0
  123.5555  107.7644  105.5754 N   0  0  0  0  0  0  0  0  0  0  0  0
  124.8349  108.1352  105.9384 N   0  0  0  0  0  0  0  0  0  0  0  0
  117.7567  105.0587  105.8708 N   0  0  0  0  0  0  0  0  0  0  0  0
  124.5968  105.9968  106.3363 N   0  0  0  0  0  0  0  0  0  0  0  0
  126.7031  106.9212  106.8629 N   0  0  0  0  0  0  0  0  0  0  0  0
  122.5844  104.2570  105.1939 N   0  0  0  0  0  0  0  0  0  0  0  0
  124.8614  104.6639  106.7276 N   0  0  0  0  0  0  0  0  0  0  0  0
  118.6692  106.9986  105.9536 H   0  0  0  0  0  0  0  0  0  0  0  0
  117.6063  102.9225  106.0207 H   0  0  0  0  0  0  0  0  0  0  0  0
  121.6407  104.8561  107.5482 H   0  0  0  0  0  0  0  0  0  0  0  0
  121.2256  106.5378  107.3224 H   0  0  0  0  0  0  0  0  0  0  0  0
  121.6472  106.0368  104.7361 H   0  0  0  0  0  0  0  0  0  0  0  0
  116.8167  105.2990  105.5858 H   0  0  0  0  0  0  0  0  0  0  0  0
  127.3740  107.7019  106.8694 H   0  0  0  0  0  0  0  0  0  0  0  0
  127.0794  106.0065  107.1483 H   0  0  0  0  0  0  0  0  0  0  0  0
  123.4040  104.1496  104.6439 H   0  0  0  0  0  0  0  0  0  0  0  0
  121.9120  103.5369  105.3164 H   0  0  0  0  0  0  0  0  0  0  0  0
  124.0310  104.1718  107.0730 H   0  0  0  0  0  0  0  0  0  0  0  0
  125.5386  104.6014  107.4951 H   0  0  0  0  0  0  0  0  0  0  0  0
  1  3  2  0  0  0  0
  1 11  1  0  0  0  0
  2  8  2  0  0  0  0
  2 11  1  0  0  0  0
  3  6  1  0  0  0  0
  3  8  1  0  0  0  0
  4  7  1  0  0  0  0
  4  9  2  0  0  0  0
  4 12  1  0  0  0  0
  5 10  2  0  0  0  0
  5 12  1  0  0  0  0
  5 13  1  0  0  0  0
  6  7  1  0  0  0  0
  7 14  1  0  0  0  0
  9 10  1  0  0  0  0
 12 15  1  0  0  0  0
  1 16  1  0  0  0  0
  2 17  1  0  0  0  0
  6 18  1  0  0  0  0
  6 19  1  0  0  0  0
  7 20  1  0  0  0  0
 11 21  1  0  0  0  0
 13 22  1  0  0  0  0
 13 23  1  0  0  0  0
 14 24  1  0  0  0  0
 14 25  1  0  0  0  0
 15 26  1  0  0  0  0
 15 27  1  0  0  0  0
M  END
> <FRED Chemgauss4 score>
-6.838815

$$$$
C86157456	P134917516
  -OEChem-05182014473D

 28 28  0     0  0  0  0  0  0999 V2000
  117.7133  108.5493  106.5098 C   0  0  0  0  0  0  0  0  0  0  0  0
  118.2258  107.7870  105.7367 C   0  0  0  0  0  0  0  0  0  0  0  0
  126.5792  106.1001  108.3907 C   0  0  0  0  0  0  0  0  0  0  0  0
  125.1431  105.1006  107.2525 C   0  0  0  0  0  0  0  0  0  0  0  0
  122.3611  106.0757  105.6945 C   0  0  0  0  0  0  0  0  0  0  0  0
  122.0806  104.0323  107.1186 C   0  0  0  0  0  0  0  0  0  0  0  0
  118.8461  106.8552  104.7916 C   0  0  0  0  0  0  0  0  0  0  0  0
  124.2886  104.5444  106.1503 C   0  0  0  0  0  0  0  0  0  0  0  0
  120.8856  106.3331  105.9443 C   0  0  0  0  0  0  0  0  0  0  0  0
  126.1699  105.9047  107.1027 N   0  0  0  0  0  0  0  0  0  0  0  0
  124.9582  104.8355  108.5736 N   0  0  0  0  0  0  0  0  0  0  0  0
  125.8703  105.4674  109.3280 N   0  0  0  0  0  0  0  0  0  0  0  0
  120.3040  106.9936  104.8108 N   0  0  0  0  0  0  0  0  0  0  0  0
  122.8903  104.9290  106.2973 N   0  0  0  0  0  0  0  0  0  0  0  0
  123.0273  106.8458  104.9976 O   0  0  0  0  0  0  0  0  0  0  0  0
  117.2591  109.2260  107.1953 H   0  0  0  0  0  0  0  0  0  0  0  0
  127.4251  106.7281  108.6376 H   0  0  0  0  0  0  0  0  0  0  0  0
  121.6338  103.2531  106.4956 H   0  0  0  0  0  0  0  0  0  0  0  0
  121.2803  104.5908  107.6116 H   0  0  0  0  0  0  0  0  0  0  0  0
  122.7004  103.5584  107.8844 H   0  0  0  0  0  0  0  0  0  0  0  0
  118.4822  107.0441  103.7770 H   0  0  0  0  0  0  0  0  0  0  0  0
  118.5792  105.8254  105.0496 H   0  0  0  0  0  0  0  0  0  0  0  0
  124.6359  104.9017  105.1748 H   0  0  0  0  0  0  0  0  0  0  0  0
  124.3346  103.4505  106.1313 H   0  0  0  0  0  0  0  0  0  0  0  0
  120.3538  105.3886  106.0853 H   0  0  0  0  0  0  0  0  0  0  0  0
  120.7541  106.9874  106.8099 H   0  0  0  0  0  0  0  0  0  0  0  0
  125.8985  105.3948  110.3412 H   0  0  0  0  0  0  0  0  0  0  0  0
  120.6751  106.5990  103.9383 H   0  0  0  0  0  0  0  0  0  0  0  0
  1  2  3  0  0  0  0
  2  7  1  0  0  0  0
  3 10  2  0  0  0  0
  3 12  1  0  0  0  0
  4  8  1  0  0  0  0
  4 10  1  0  0  0  0
  4 11  2  0  0  0  0
  5  9  1  0  0  0  0
  5 14  1  0  0  0  0
  5 15  2  0  0  0  0
  6 14  1  0  0  0  0
  7 13  1  0  0  0  0
  8 14  1  0  0  0  0
  9 13  1  0  0  0  0
 11 12  1  0  0  0  0
  1 16  1  0  0  0  0
  3 17  1  0  0  0  0
  6 18  1  0  0  0  0
  6 19  1  0  0  0  0
  6 20  1  0  0  0  0
  7 21  1  0  0  0  0
  7 22  1  0  0  0  0
  8 23  1  0  0  0  0
  8 24  1  0  0  0  0
  9 25  1  0  0  0  0
  9 26  1  0  0  0  0
 12 27  1  0  0  0  0
 13 28  1  0  0  0  0
M  END
> <FRED Chemgauss4 score>
-6.821961

$$$$
C41052378	P62314790
  -OEChem-05182014473D

 28 29  0     1  0  0  0  0  0999 V2000
  119.4536  104.2360  104.8161 C   0  0  0  0  0  0  0  0  0  0  0  0
  120.1097  105.5833  103.2069 C   0  0  0  0  0  0  0  0  0  0  0  0
  120.4933  105.1058  104.4363 C   0  0  0  0  0  0  0  0  0  0  0  0
  121.7325  105.4558  105.1609 C   0  0  0  0  0  0  0  0  0  0  0  0
  123.4468  106.4206  105.8013 C   0  0  0  0  0  0  0  0  0  0  0  0
  124.9308  106.9897  108.3812 C   0  0  0  0  0  0  0  0  0  0  0  0
  118.1092  105.1850  101.7506 C   0  0  0  0  0  0  0  0  0  0  0  0
  125.5686  107.0864  107.0006 C   0  0  0  0  0  0  0  0  0  0  0  0
  124.5520  107.4520  105.9056 C   0  0  1  0  0  0  0  0  0  0  0  0
  118.4823  104.1633  103.9021 N   0  0  0  0  0  0  0  0  0  0  0  0
  122.4272  106.5346  104.9016 N   0  0  0  0  0  0  0  0  0  0  0  0
  123.4105  105.3400  106.5866 N   0  0  0  0  0  0  0  0  0  0  0  0
  118.9101  104.9937  102.9358 N   0  0  0  0  0  0  0  0  0  0  0  0
  125.1939  107.6397  104.6236 N   0  0  0  0  0  0  0  0  0  0  0  0
  122.2500  104.6861  106.1540 O   0  0  0  0  0  0  0  0  0  0  0  0
  119.3599  103.6499  105.7197 H   0  0  0  0  0  0  0  0  0  0  0  0
  120.5745  106.2751  102.5172 H   0  0  0  0  0  0  0  0  0  0  0  0
  124.1140  106.2609  108.3856 H   0  0  0  0  0  0  0  0  0  0  0  0
  125.6746  106.6686  109.1174 H   0  0  0  0  0  0  0  0  0  0  0  0
  124.5331  107.9561  108.7061 H   0  0  0  0  0  0  0  0  0  0  0  0
  118.4151  104.4386  101.0127 H   0  0  0  0  0  0  0  0  0  0  0  0
  117.0519  105.0632  102.0019 H   0  0  0  0  0  0  0  0  0  0  0  0
  118.2714  106.1951  101.3641 H   0  0  0  0  0  0  0  0  0  0  0  0
  126.3792  107.8249  107.0405 H   0  0  0  0  0  0  0  0  0  0  0  0
  126.0319  106.1194  106.7665 H   0  0  0  0  0  0  0  0  0  0  0  0
  124.1102  108.4252  106.1533 H   0  0  0  0  0  0  0  0  0  0  0  0
  126.1170  108.0333  104.5981 H   0  0  0  0  0  0  0  0  0  0  0  0
  124.6390  107.5679  103.7901 H   0  0  0  0  0  0  0  0  0  0  0  0
  1  3  1  0  0  0  0
  1 10  2  0  0  0  0
  2  3  2  0  0  0  0
  2 13  1  0  0  0  0
  3  4  1  0  0  0  0
  4 11  2  0  0  0  0
  4 15  1  0  0  0  0
  5  9  1  0  0  0  0
  5 11  1  0  0  0  0
  5 12  2  0  0  0  0
  6  8  1  0  0  0  0
  7 13  1  0  0  0  0
  8  9  1  0  0  0  0
  9 14  1  0  0  0  0
 10 13  1  0  0  0  0
 12 15  1  0  0  0  0
  1 16  1  0  0  0  0
  2 17  1  0  0  0  0
  6 18  1  0  0  0  0
  6 19  1  0  0  0  0
  6 20  1  0  0  0  0
  7 21  1  0  0  0  0
  7 22  1  0  0  0  0
  7 23  1  0  0  0  0
  8 24  1  0  0  0  0
  8 25  1  0  0  0  0
  9 26  1  0  0  0  0
 14 27  1  0  0  0  0
 14 28  1  0  0  0  0
M  END
> <FRED Chemgauss4 score>
-6.818347

$$$$
C85254231	P133394284
  -OEChem-05182014473D

 28 28  0     1  0  0  0  0  0999 V2000
  120.3850  104.5824  106.7725 C   0  0  0  0  0  0  0  0  0  0  0  0
  121.5929  106.1824  105.8622 C   0  0  0  0  0  0  0  0  0  0  0  0
  121.1110  105.2082  107.9558 C   0  0  0  0  0  0  0  0  0  0  0  0
  122.0415  106.2019  107.2923 C   0  0  1  0  0  0  0  0  0  0  0  0
  125.7773  104.2781  109.0474 C   0  0  0  0  0  0  0  0  0  0  0  0
  124.1496  106.2048  108.6218 C   0  0  0  0  0  0  0  0  0  0  0  0
  126.2588  105.9448  107.2460 C   0  0  0  0  0  0  0  0  0  0  0  0
  125.6149  105.7419  108.6280 C   0  0  2  0  0  0  0  0  0  0  0  0
  120.6742  105.1803  105.6526 N   0  0  0  0  0  0  0  0  0  0  0  0
  123.4464  105.7448  107.3969 N   0  3  0  0  0  0  0  0  0  0  0  0
  119.6121  103.6263  106.9734 O   0  5  0  0  0  0  0  0  0  0  0  0
  122.0341  106.9364  105.0038 O   0  0  0  0  0  0  0  0  0  0  0  0
  126.0990  107.2920  106.8152 O   0  0  0  0  0  0  0  0  0  0  0  0
  126.3449  106.5368  109.5690 O   0  0  0  0  0  0  0  0  0  0  0  0
  120.3789  105.7244  108.5884 H   0  0  0  0  0  0  0  0  0  0  0  0
  121.6254  104.4517  108.5585 H   0  0  0  0  0  0  0  0  0  0  0  0
  121.9755  107.2030  107.7273 H   0  0  0  0  0  0  0  0  0  0  0  0
  126.8286  103.9709  109.0445 H   0  0  0  0  0  0  0  0  0  0  0  0
  125.2114  103.6076  108.3925 H   0  0  0  0  0  0  0  0  0  0  0  0
  125.4282  104.1293  110.0762 H   0  0  0  0  0  0  0  0  0  0  0  0
  123.5882  105.8062  109.4724 H   0  0  0  0  0  0  0  0  0  0  0  0
  124.0684  107.2963  108.6082 H   0  0  0  0  0  0  0  0  0  0  0  0
  125.7800  105.3037  106.4977 H   0  0  0  0  0  0  0  0  0  0  0  0
  127.3304  105.7206  107.2759 H   0  0  0  0  0  0  0  0  0  0  0  0
  123.4687  104.7160  107.3601 H   0  0  0  0  0  0  0  0  0  0  0  0
  123.9664  106.0647  106.5675 H   0  0  0  0  0  0  0  0  0  0  0  0
  126.5222  107.3574  105.9445 H   0  0  0  0  0  0  0  0  0  0  0  0
  125.9498  106.3603  110.4348 H   0  0  0  0  0  0  0  0  0  0  0  0
  1  3  1  0  0  0  0
  1  9  2  0  0  0  0
  1 11  1  0  0  0  0
  2  4  1  0  0  0  0
  2  9  1  0  0  0  0
  2 12  2  0  0  0  0
  3  4  1  0  0  0  0
  4 10  1  0  0  0  0
  5  8  1  0  0  0  0
  6  8  1  0  0  0  0
  6 10  1  0  0  0  0
  7  8  1  0  0  0  0
  7 13  1  0  0  0  0
  8 14  1  0  0  0  0
  3 15  1  0  0  0  0
  3 16  1  0  0  0  0
  4 17  1  0  0  0  0
  5 18  1  0  0  0  0
  5 19  1  0  0  0  0
  5 20  1  0  0  0  0
  6 21  1  0  0  0  0
  6 22  1  0  0  0  0
  7 23  1  0  0  0  0
  7 24  1  0  0  0  0
 10 25  1  0  0  0  0
 10 26  1  0  0  0  0
 13 27  1  0  0  0  0
 14 28  1  0  0  0  0
M  CHG  2  10   1  11  -1
M  END
> <FRED Chemgauss4 score>
-6.818259

$$$$
C70628574	P108955020
  -OEChem-05182014473D

 29 30  0     1  0  0  0  0  0999 V2000
  119.2013  104.2194  104.9609 C   0  0  0  0  0  0  0  0  0  0  0  0
  123.1323  106.6254  105.5691 C   0  0  0  0  0  0  0  0  0  0  0  0
  118.7303  103.8634  106.3496 C   0  0  0  0  0  0  0  0  0  0  0  0
  119.9946  103.3248  107.0145 C   0  0  0  0  0  0  0  0  0  0  0  0
  125.0687  106.2961  106.9186 C   0  0  0  0  0  0  0  0  0  0  0  0
  123.9854  105.3276  107.3512 C   0  0  0  0  0  0  0  0  0  0  0  0
  124.6373  106.7120  105.5164 C   0  0  2  0  0  0  0  0  0  0  0  0
  121.1274  104.0719  106.3214 C   0  0  2  0  0  0  0  0  0  0  0  0
  121.4846  105.3772  107.0199 C   0  0  0  0  0  0  0  0  0  0  0  0
  120.5882  104.3143  105.0061 N   0  0  0  0  0  0  0  0  0  0  0  0
  122.8156  105.8151  106.6591 N   0  0  0  0  0  0  0  0  0  0  0  0
  125.0361  108.0948  105.2294 N   0  0  0  0  0  0  0  0  0  0  0  0
  118.4768  104.4187  103.9981 O   0  0  0  0  0  0  0  0  0  0  0  0
  122.3647  107.1485  104.7746 O   0  0  0  0  0  0  0  0  0  0  0  0
  118.3677  104.7691  106.8452 H   0  0  0  0  0  0  0  0  0  0  0  0
  117.9383  103.1116  106.3136 H   0  0  0  0  0  0  0  0  0  0  0  0
  119.9855  103.4446  108.1019 H   0  0  0  0  0  0  0  0  0  0  0  0
  120.0793  102.2516  106.7992 H   0  0  0  0  0  0  0  0  0  0  0  0
  125.1998  107.1259  107.6156 H   0  0  0  0  0  0  0  0  0  0  0  0
  126.0248  105.7656  106.8528 H   0  0  0  0  0  0  0  0  0  0  0  0
  124.2076  104.2994  107.0558 H   0  0  0  0  0  0  0  0  0  0  0  0
  123.7964  105.3773  108.4274 H   0  0  0  0  0  0  0  0  0  0  0  0
  125.0458  106.0244  104.7642 H   0  0  0  0  0  0  0  0  0  0  0  0
  122.0231  103.4537  106.2324 H   0  0  0  0  0  0  0  0  0  0  0  0
  121.4579  105.2505  108.1064 H   0  0  0  0  0  0  0  0  0  0  0  0
  120.7855  106.1709  106.7403 H   0  0  0  0  0  0  0  0  0  0  0  0
  121.1614  104.5317  104.1970 H   0  0  0  0  0  0  0  0  0  0  0  0
  124.4982  108.6139  104.5674 H   0  0  0  0  0  0  0  0  0  0  0  0
  125.9338  108.4018  105.5409 H   0  0  0  0  0  0  0  0  0  0  0  0
  1  3  1  0  0  0  0
  1 10  1  0  0  0  0
  1 13  2  0  0  0  0
  2  7  1  0  0  0  0
  2 11  1  0  0  0  0
  2 14  2  0  0  0  0
  3  4  1  0  0  0  0
  4  8  1  0  0  0  0
  5  6  1  0  0  0  0
  5  7  1  0  0  0  0
  6 11  1  0  0  0  0
  7 12  1  0  0  0  0
  8  9  1  0  0  0  0
  8 10  1  0  0  0  0
  9 11  1  0  0  0  0
  3 15  1  0  0  0  0
  3 16  1  0  0  0  0
  4 17  1  0  0  0  0
  4 18  1  0  0  0  0
  5 19  1  0  0  0  0
  5 20  1  0  0  0  0
  6 21  1  0  0  0  0
  6 22  1  0  0  0  0
  7 23  1  0  0  0  0
  8 24  1  0  0  0  0
  9 25  1  0  0  0  0
  9 26  1  0  0  0  0
 10 27  1  0  0  0  0
 12 28  1  0  0  0  0
 12 29  1  0  0  0  0
M  END
> <FRED Chemgauss4 score>
-6.815436

$$$$
C37787742	P56188607
  -OEChem-05182014473D

 39 40  0     1  0  0  0  0  0999 V2000
  123.1757  103.8780  106.3343 C   0  0  0  0  0  0  0  0  0  0  0  0
  116.9568  106.9113  105.9540 C   0  0  0  0  0  0  0  0  0  0  0  0
  116.9817  105.0244  104.4454 C   0  0  0  0  0  0  0  0  0  0  0  0
  121.8511  103.9307  105.9006 C   0  0  0  0  0  0  0  0  0  0  0  0
  115.7995  107.3881  105.3385 C   0  0  0  0  0  0  0  0  0  0  0  0
  115.8244  105.5011  103.8299 C   0  0  0  0  0  0  0  0  0  0  0  0
  123.8834  105.0587  106.5597 C   0  0  0  0  0  0  0  0  0  0  0  0
  117.5480  105.7294  105.5074 C   0  0  0  0  0  0  0  0  0  0  0  0
  121.9417  106.3450  105.9175 C   0  0  0  0  0  0  0  0  0  0  0  0
  121.2341  105.1643  105.6922 C   0  0  0  0  0  0  0  0  0  0  0  0
  115.2332  106.6830  104.2765 C   0  0  0  0  0  0  0  0  0  0  0  0
  123.2664  106.2922  106.3513 C   0  0  0  0  0  0  0  0  0  0  0  0
  121.2746  107.6660  105.6922 C   0  0  0  0  0  0  0  0  0  0  0  0
  118.6154  103.8245  106.7865 C   0  0  0  0  0  0  0  0  0  0  0  0
  118.7849  105.2192  106.1658 C   0  0  1  0  0  0  0  0  0  0  0  0
  124.8785  108.0105  105.1050 N   0  0  0  0  0  0  0  0  0  0  0  0
  119.9227  105.1949  105.2620 N   0  0  0  0  0  0  0  0  0  0  0  0
  123.2537  108.8293  106.9312 O   0  0  0  0  0  0  0  0  0  0  0  0
  125.2497  107.4400  107.5896 O   0  0  0  0  0  0  0  0  0  0  0  0
  114.1032  107.1478  103.6769 O   0  0  0  0  0  0  0  0  0  0  0  0
  124.1878  107.7512  106.6452 S   0  0  0  0  0  0  0  0  0  0  0  0
  123.6557  102.9172  106.4967 H   0  0  0  0  0  0  0  0  0  0  0  0
  117.3911  107.4670  106.7807 H   0  0  0  0  0  0  0  0  0  0  0  0
  117.4356  104.1026  104.0907 H   0  0  0  0  0  0  0  0  0  0  0  0
  121.3098  103.0043  105.7279 H   0  0  0  0  0  0  0  0  0  0  0  0
  115.3434  108.3093  105.6912 H   0  0  0  0  0  0  0  0  0  0  0  0
  115.3880  104.9473  103.0034 H   0  0  0  0  0  0  0  0  0  0  0  0
  124.9148  105.0039  106.8978 H   0  0  0  0  0  0  0  0  0  0  0  0
  120.7871  108.0033  106.6128 H   0  0  0  0  0  0  0  0  0  0  0  0
  122.0008  108.4247  105.3796 H   0  0  0  0  0  0  0  0  0  0  0  0
  120.5211  107.5955  104.8996 H   0  0  0  0  0  0  0  0  0  0  0  0
  118.3103  103.0972  106.0263 H   0  0  0  0  0  0  0  0  0  0  0  0
  119.5508  103.4731  107.2363 H   0  0  0  0  0  0  0  0  0  0  0  0
  117.8576  103.8238  107.5781 H   0  0  0  0  0  0  0  0  0  0  0  0
  119.0908  105.8977  106.9817 H   0  0  0  0  0  0  0  0  0  0  0  0
  124.5239  108.7950  104.5444 H   0  0  0  0  0  0  0  0  0  0  0  0
  125.8863  107.8440  104.9953 H   0  0  0  0  0  0  0  0  0  0  0  0
  119.7329  105.1997  104.2705 H   0  0  0  0  0  0  0  0  0  0  0  0
  113.8335  106.5520  102.9599 H   0  0  0  0  0  0  0  0  0  0  0  0
  1  4  1  0  0  0  0
  1  7  2  0  0  0  0
  2  5  2  0  0  0  0
  2  8  1  0  0  0  0
  3  6  1  0  0  0  0
  3  8  2  0  0  0  0
  4 10  2  0  0  0  0
  5 11  1  0  0  0  0
  6 11  2  0  0  0  0
  7 12  1  0  0  0  0
  8 15  1  0  0  0  0
  9 10  1  0  0  0  0
  9 12  2  0  0  0  0
  9 13  1  0  0  0  0
 10 17  1  0  0  0  0
 11 20  1  0  0  0  0
 12 21  1  0  0  0  0
 14 15  1  0  0  0  0
 15 17  1  0  0  0  0
 16 21  1  0  0  0  0
 18 21  2  0  0  0  0
 19 21  2  0  0  0  0
  1 22  1  0  0  0  0
  2 23  1  0  0  0  0
  3 24  1  0  0  0  0
  4 25  1  0  0  0  0
  5 26  1  0  0  0  0
  6 27  1  0  0  0  0
  7 28  1  0  0  0  0
 13 29  1  0  0  0  0
 13 30  1  0  0  0  0
 13 31  1  0  0  0  0
 14 32  1  0  0  0  0
 14 33  1  0  0  0  0
 14 34  1  0  0  0  0
 15 35  1  0  0  0  0
 16 36  1  0  0  0  0
 16 37  1  0  0  0  0
 17 38  1  0  0  0  0
 20 39  1  0  0  0  0
M  END
> <FRED Chemgauss4 score>
-6.812674

$$$$
C83694167	P130926929
  -OEChem-05182014473D

 29 29  0     1  0  0  0  0  0999 V2000
  120.4350  103.8971  105.8092 C   0  0  0  0  0  0  0  0  0  0  0  0
  120.8304  104.7135  104.6042 C   0  0  0  0  0  0  0  0  0  0  0  0
  119.7833  104.9384  106.6901 C   0  0  0  0  0  0  0  0  0  0  0  0
  121.2113  106.0532  105.2160 C   0  0  2  0  0  0  0  0  0  0  0  0
  122.6947  106.1557  105.5439 C   0  0  0  0  0  0  0  0  0  0  0  0
  124.1797  106.4497  108.0084 C   0  0  0  0  0  0  0  0  0  0  0  0
  125.4131  107.0920  105.9094 C   0  0  0  0  0  0  0  0  0  0  0  0
  124.2553  107.4354  106.8446 C   0  0  0  0  0  0  0  0  0  0  0  0
  122.9883  107.4355  106.1048 N   0  0  0  0  0  0  0  0  0  0  0  0
  120.4678  106.1735  106.4417 O   0  0  0  0  0  0  0  0  0  0  0  0
  125.1661  106.7868  108.9774 O   0  0  0  0  0  0  0  0  0  0  0  0
  125.4513  108.0312  104.8408 O   0  0  0  0  0  0  0  0  0  0  0  0
  119.6995  103.1377  105.5183 H   0  0  0  0  0  0  0  0  0  0  0  0
  121.2747  103.3916  106.2931 H   0  0  0  0  0  0  0  0  0  0  0  0
  121.6967  104.2456  104.1107 H   0  0  0  0  0  0  0  0  0  0  0  0
  120.0299  104.8012  103.8570 H   0  0  0  0  0  0  0  0  0  0  0  0
  118.7173  105.0584  106.4813 H   0  0  0  0  0  0  0  0  0  0  0  0
  119.9084  104.6957  107.7500 H   0  0  0  0  0  0  0  0  0  0  0  0
  120.9191  106.8752  104.5693 H   0  0  0  0  0  0  0  0  0  0  0  0
  123.2720  106.0301  104.6333 H   0  0  0  0  0  0  0  0  0  0  0  0
  122.9610  105.3878  106.2629 H   0  0  0  0  0  0  0  0  0  0  0  0
  124.3831  105.4294  107.6671 H   0  0  0  0  0  0  0  0  0  0  0  0
  123.1964  106.4732  108.4907 H   0  0  0  0  0  0  0  0  0  0  0  0
  125.3040  106.0876  105.4860 H   0  0  0  0  0  0  0  0  0  0  0  0
  126.3696  107.1510  106.4389 H   0  0  0  0  0  0  0  0  0  0  0  0
  124.3685  108.4586  107.2221 H   0  0  0  0  0  0  0  0  0  0  0  0
  122.2436  107.7291  106.7520 H   0  0  0  0  0  0  0  0  0  0  0  0
  125.0836  106.1392  109.6953 H   0  0  0  0  0  0  0  0  0  0  0  0
  126.1970  107.7776  104.2740 H   0  0  0  0  0  0  0  0  0  0  0  0
  1  2  1  0  0  0  0
  1  3  1  0  0  0  0
  2  4  1  0  0  0  0
  3 10  1  0  0  0  0
  4  5  1  0  0  0  0
  4 10  1  0  0  0  0
  5  9  1  0  0  0  0
  6  8  1  0  0  0  0
  6 11  1  0  0  0  0
  7  8  1  0  0  0  0
  7 12  1  0  0  0  0
  8  9  1  0  0  0  0
  1 13  1  0  0  0  0
  1 14  1  0  0  0  0
  2 15  1  0  0  0  0
  2 16  1  0  0  0  0
  3 17  1  0  0  0  0
  3 18  1  0  0  0  0
  4 19  1  0  0  0  0
  5 20  1  0  0  0  0
  5 21  1  0  0  0  0
  6 22  1  0  0  0  0
  6 23  1  0  0  0  0
  7 24  1  0  0  0  0
  7 25  1  0  0  0  0
  8 26  1  0  0  0  0
  9 27  1  0  0  0  0
 11 28  1  0  0  0  0
 12 29  1  0  0  0  0
M  END
> <FRED Chemgauss4 score>
-6.807743

$$$$
C95534816	P150162202
  -OEChem-05182014473D

 28 28  0     1  0  0  0  0  0999 V2000
  123.2599  106.7389  105.8980 C   0  0  0  0  0  0  0  0  0  0  0  0
  121.5190  106.3371  104.8187 C   0  0  0  0  0  0  0  0  0  0  0  0
  120.3642  106.3436  103.9027 C   0  0  0  0  0  0  0  0  0  0  0  0
  125.3661  106.0126  108.3002 C   0  0  0  0  0  0  0  0  0  0  0  0
  125.7403  105.2551  105.9527 C   0  0  0  0  0  0  0  0  0  0  0  0
  120.9466  104.1764  105.9880 C   0  0  0  0  0  0  0  0  0  0  0  0
  124.5180  107.4486  106.3655 C   0  0  1  0  0  0  0  0  0  0  0  0
  125.6253  106.4853  106.8640 C   0  0  0  0  0  0  0  0  0  0  0  0
  122.4726  107.2358  104.8990 N   0  0  0  0  0  0  0  0  0  0  0  0
  122.8534  105.5894  106.4408 N   0  0  0  0  0  0  0  0  0  0  0  0
  121.7382  105.3542  105.7328 N   0  0  0  0  0  0  0  0  0  0  0  0
  124.9817  108.2820  105.2770 N   0  0  0  0  0  0  0  0  0  0  0  0
  120.6005  105.8247  102.9585 H   0  0  0  0  0  0  0  0  0  0  0  0
  119.4811  105.8483  104.3432 H   0  0  0  0  0  0  0  0  0  0  0  0
  120.0411  107.3684  103.6482 H   0  0  0  0  0  0  0  0  0  0  0  0
  124.4049  105.4931  108.3786 H   0  0  0  0  0  0  0  0  0  0  0  0
  126.1503  105.3219  108.6288 H   0  0  0  0  0  0  0  0  0  0  0  0
  125.3596  106.8505  109.0041 H   0  0  0  0  0  0  0  0  0  0  0  0
  124.7999  104.6941  105.9236 H   0  0  0  0  0  0  0  0  0  0  0  0
  126.5254  104.5797  106.3095 H   0  0  0  0  0  0  0  0  0  0  0  0
  125.9989  105.5405  104.9281 H   0  0  0  0  0  0  0  0  0  0  0  0
  121.3199  103.3736  105.3467 H   0  0  0  0  0  0  0  0  0  0  0  0
  121.0376  103.8978  107.0415 H   0  0  0  0  0  0  0  0  0  0  0  0
  119.8979  104.3902  105.7634 H   0  0  0  0  0  0  0  0  0  0  0  0
  124.2699  108.1452  107.1770 H   0  0  0  0  0  0  0  0  0  0  0  0
  126.5970  106.9962  106.8456 H   0  0  0  0  0  0  0  0  0  0  0  0
  125.9386  108.5829  105.2739 H   0  0  0  0  0  0  0  0  0  0  0  0
  124.3033  108.7038  104.6701 H   0  0  0  0  0  0  0  0  0  0  0  0
  1  7  1  0  0  0  0
  1  9  1  0  0  0  0
  1 10  2  0  0  0  0
  2  3  1  0  0  0  0
  2  9  2  0  0  0  0
  2 11  1  0  0  0  0
  4  8  1  0  0  0  0
  5  8  1  0  0  0  0
  6 11  1  0  0  0  0
  7  8  1  0  0  0  0
  7 12  1  0  0  0  0
 10 11  1  0  0  0  0
  3 13  1  0  0  0  0
  3 14  1  0  0  0  0
  3 15  1  0  0  0  0
  4 16  1  0  0  0  0
  4 17  1  0  0  0  0
  4 18  1  0  0  0  0
  5 19  1  0  0  0  0
  5 20  1  0  0  0  0
  5 21  1  0  0  0  0
  6 22  1  0  0  0  0
  6 23  1  0  0  0  0
  6 24  1  0  0  0  0
  7 25  1  0  0  0  0
  8 26  1  0  0  0  0
 12 27  1  0  0  0  0
 12 28  1  0  0  0  0
M  END
> <FRED Chemgauss4 score>
-6.804775

$$$$
C45174993	P68086517
  -OEChem-05182014473D

 40 41  0     1  0  0  0  0  0999 V2000
  119.6534  104.6112  106.2141 C   0  0  0  0  0  0  0  0  0  0  0  0
  126.1670  105.6828  107.7620 C   0  0  0  0  0  0  0  0  0  0  0  0
  120.5812  104.6293  102.1042 C   0  0  0  0  0  0  0  0  0  0  0  0
  119.4133  105.5695  102.1864 C   0  0  0  0  0  0  0  0  0  0  0  0
  124.3998  107.3399  107.2251 C   0  0  0  0  0  0  0  0  0  0  0  0
  123.8632  104.8926  107.3407 C   0  0  0  0  0  0  0  0  0  0  0  0
  122.8973  107.6271  107.2371 C   0  0  0  0  0  0  0  0  0  0  0  0
  122.3787  105.2614  107.3475 C   0  0  0  0  0  0  0  0  0  0  0  0
  124.7166  106.0183  107.9223 C   0  0  0  0  0  0  0  0  0  0  0  0
  119.9730  104.9560  103.4384 C   0  0  0  0  0  0  0  0  0  0  0  0
  118.5753  106.5961  105.2294 C   0  0  0  0  0  0  0  0  0  0  0  0
  120.7137  106.8339  106.6007 C   0  0  0  0  0  0  0  0  0  0  0  0
  119.9082  105.9433  105.6250 C   0  0  1  0  0  0  0  0  0  0  0  0
  119.4517  103.5669  106.6787 N   0  0  0  0  0  0  0  0  0  0  0  0
  122.1425  106.5220  106.6302 N   0  0  0  0  0  0  0  0  0  0  0  0
  126.6842  104.9471  108.8019 N   0  0  0  0  0  0  0  0  0  0  0  0
  120.6987  105.7688  104.3978 N   0  0  0  0  0  0  0  0  0  0  0  0
  126.8119  106.0288  106.7752 O   0  0  0  0  0  0  0  0  0  0  0  0
  120.4074  103.6488  101.6776 H   0  0  0  0  0  0  0  0  0  0  0  0
  121.5521  105.0514  101.8745 H   0  0  0  0  0  0  0  0  0  0  0  0
  119.5999  106.6225  102.0146 H   0  0  0  0  0  0  0  0  0  0  0  0
  118.4578  105.2179  101.8163 H   0  0  0  0  0  0  0  0  0  0  0  0
  124.7584  107.3295  106.1965 H   0  0  0  0  0  0  0  0  0  0  0  0
  124.9165  108.1459  107.7487 H   0  0  0  0  0  0  0  0  0  0  0  0
  124.0079  103.9922  107.9416 H   0  0  0  0  0  0  0  0  0  0  0  0
  124.1744  104.6628  106.3209 H   0  0  0  0  0  0  0  0  0  0  0  0
  122.5854  107.7599  108.2795 H   0  0  0  0  0  0  0  0  0  0  0  0
  122.6946  108.5709  106.7160 H   0  0  0  0  0  0  0  0  0  0  0  0
  121.7835  104.4466  106.9160 H   0  0  0  0  0  0  0  0  0  0  0  0
  122.0628  105.3679  108.3929 H   0  0  0  0  0  0  0  0  0  0  0  0
  124.5320  106.1051  108.9820 H   0  0  0  0  0  0  0  0  0  0  0  0
  119.3781  104.1739  103.8995 H   0  0  0  0  0  0  0  0  0  0  0  0
  118.7298  107.5878  104.7883 H   0  0  0  0  0  0  0  0  0  0  0  0
  118.0327  105.9862  104.4957 H   0  0  0  0  0  0  0  0  0  0  0  0
  117.9097  106.7145  106.0927 H   0  0  0  0  0  0  0  0  0  0  0  0
  120.5985  107.8931  106.3360 H   0  0  0  0  0  0  0  0  0  0  0  0
  120.3260  106.7157  107.6203 H   0  0  0  0  0  0  0  0  0  0  0  0
  126.0727  104.6945  109.5712 H   0  0  0  0  0  0  0  0  0  0  0  0
  127.6531  104.6465  108.8310 H   0  0  0  0  0  0  0  0  0  0  0  0
  121.5743  105.3158  104.6406 H   0  0  0  0  0  0  0  0  0  0  0  0
  1 13  1  0  0  0  0
  1 14  3  0  0  0  0
  2  9  1  0  0  0  0
  2 16  1  0  0  0  0
  2 18  2  0  0  0  0
  3  4  1  0  0  0  0
  3 10  1  0  0  0  0
  4 10  1  0  0  0  0
  5  7  1  0  0  0  0
  5  9  1  0  0  0  0
  6  8  1  0  0  0  0
  6  9  1  0  0  0  0
  7 15  1  0  0  0  0
  8 15  1  0  0  0  0
 10 17  1  0  0  0  0
 11 13  1  0  0  0  0
 12 13  1  0  0  0  0
 12 15  1  0  0  0  0
 13 17  1  0  0  0  0
  3 19  1  0  0  0  0
  3 20  1  0  0  0  0
  4 21  1  0  0  0  0
  4 22  1  0  0  0  0
  5 23  1  0  0  0  0
  5 24  1  0  0  0  0
  6 25  1  0  0  0  0
  6 26  1  0  0  0  0
  7 27  1  0  0  0  0
  7 28  1  0  0  0  0
  8 29  1  0  0  0  0
  8 30  1  0  0  0  0
  9 31  1  0  0  0  0
 10 32  1  0  0  0  0
 11 33  1  0  0  0  0
 11 34  1  0  0  0  0
 11 35  1  0  0  0  0
 12 36  1  0  0  0  0
 12 37  1  0  0  0  0
 16 38  1  0  0  0  0
 16 39  1  0  0  0  0
 17 40  1  0  0  0  0
M  END
> <FRED Chemgauss4 score>
-6.804729

$$$$
C86434269	P135332511
  -OEChem-05182014473D

 28 27  0     0  0  0  0  0  0999 V2000
  118.7005  105.0247  100.5031 C   0  0  0  0  0  0  0  0  0  0  0  0
  121.1488  106.1888  104.2959 C   0  0  0  0  0  0  0  0  0  0  0  0
  120.0868  104.0048  104.7115 C   0  0  0  0  0  0  0  0  0  0  0  0
  119.6872  104.8704  101.5824 C   0  0  0  0  0  0  0  0  0  0  0  0
  122.0914  105.8397  105.4283 C   0  0  0  0  0  0  0  0  0  0  0  0
  119.1687  105.4121  102.9104 C   0  0  0  0  0  0  0  0  0  0  0  0
  124.9441  107.7342  106.7760 C   0  0  0  0  0  0  0  0  0  0  0  0
  123.9553  106.5900  106.6472 C   0  0  0  0  0  0  0  0  0  0  0  0
  117.9234  105.1455   99.6500 N   0  0  0  0  0  0  0  0  0  0  0  0
  125.7170  107.8665  105.5198 N   0  0  0  0  0  0  0  0  0  0  0  0
  120.1685  105.2533  103.9636 N   0  0  0  0  0  0  0  0  0  0  0  0
  121.2916  107.2706  103.7178 O   0  0  0  0  0  0  0  0  0  0  0  0
  123.0417  106.8707  105.5905 O   0  0  0  0  0  0  0  0  0  0  0  0
  119.4197  104.1237  105.5693 H   0  0  0  0  0  0  0  0  0  0  0  0
  121.0772  103.7154  105.0733 H   0  0  0  0  0  0  0  0  0  0  0  0
  119.6998  103.2062  104.0728 H   0  0  0  0  0  0  0  0  0  0  0  0
  120.5993  105.4137  101.3093 H   0  0  0  0  0  0  0  0  0  0  0  0
  119.9610  103.8136  101.6834 H   0  0  0  0  0  0  0  0  0  0  0  0
  121.5453  105.6777  106.3613 H   0  0  0  0  0  0  0  0  0  0  0  0
  122.6160  104.9078  105.1927 H   0  0  0  0  0  0  0  0  0  0  0  0
  118.9394  106.4777  102.8071 H   0  0  0  0  0  0  0  0  0  0  0  0
  118.2457  104.9015  103.2067 H   0  0  0  0  0  0  0  0  0  0  0  0
  124.4312  108.6827  106.9646 H   0  0  0  0  0  0  0  0  0  0  0  0
  125.6480  107.5394  107.5907 H   0  0  0  0  0  0  0  0  0  0  0  0
  123.3800  106.4860  107.5725 H   0  0  0  0  0  0  0  0  0  0  0  0
  124.4611  105.6429  106.4331 H   0  0  0  0  0  0  0  0  0  0  0  0
  126.6085  108.2863  105.5837 H   0  0  0  0  0  0  0  0  0  0  0  0
  125.2275  107.7203  104.6746 H   0  0  0  0  0  0  0  0  0  0  0  0
  1  4  1  0  0  0  0
  1  9  3  0  0  0  0
  2  5  1  0  0  0  0
  2 11  1  0  0  0  0
  2 12  2  0  0  0  0
  3 11  1  0  0  0  0
  4  6  1  0  0  0  0
  5 13  1  0  0  0  0
  6 11  1  0  0  0  0
  7  8  1  0  0  0  0
  7 10  1  0  0  0  0
  8 13  1  0  0  0  0
  3 14  1  0  0  0  0
  3 15  1  0  0  0  0
  3 16  1  0  0  0  0
  4 17  1  0  0  0  0
  4 18  1  0  0  0  0
  5 19  1  0  0  0  0
  5 20  1  0  0  0  0
  6 21  1  0  0  0  0
  6 22  1  0  0  0  0
  7 23  1  0  0  0  0
  7 24  1  0  0  0  0
  8 25  1  0  0  0  0
  8 26  1  0  0  0  0
 10 27  1  0  0  0  0
 10 28  1  0  0  0  0
M  END
> <FRED Chemgauss4 score>
-6.798490

$$$$
C37468781	P55706687
  -OEChem-05182014473D

 23 23  0     1  0  0  0  0  0999 V2000
  122.1455  105.2955  106.2273 C   0  0  0  0  0  0  0  0  0  0  0  0
  119.7578  104.6406  106.5423 C   0  0  0  0  0  0  0  0  0  0  0  0
  119.6064  103.8488  104.0385 C   0  0  0  0  0  0  0  0  0  0  0  0
  121.0585  104.3638  105.8010 C   0  0  1  0  0  0  0  0  0  0  0  0
  124.0447  105.5443  107.8128 C   0  0  0  0  0  0  0  0  0  0  0  0
  125.3147  105.2145  107.0500 C   0  0  0  0  0  0  0  0  0  0  0  0
  120.8245  104.5937  104.3679 N   0  0  0  0  0  0  0  0  0  0  0  0
  122.9360  104.8073  107.2502 N   0  0  0  0  0  0  0  0  0  0  0  0
  122.2641  106.3806  105.6704 O   0  0  0  0  0  0  0  0  0  0  0  0
  126.3955  105.9685  107.5839 O   0  0  0  0  0  0  0  0  0  0  0  0
  118.4908  103.9340  105.4627 S   0  0  0  0  0  0  0  0  0  0  0  0
  119.7402  104.1606  107.5253 H   0  0  0  0  0  0  0  0  0  0  0  0
  119.5637  105.7104  106.6742 H   0  0  0  0  0  0  0  0  0  0  0  0
  119.1257  104.2721  103.1525 H   0  0  0  0  0  0  0  0  0  0  0  0
  119.8408  102.7981  103.8389 H   0  0  0  0  0  0  0  0  0  0  0  0
  121.4030  103.3308  105.9714 H   0  0  0  0  0  0  0  0  0  0  0  0
  124.1351  105.2741  108.8697 H   0  0  0  0  0  0  0  0  0  0  0  0
  123.8195  106.6122  107.7340 H   0  0  0  0  0  0  0  0  0  0  0  0
  125.2005  105.4873  105.9963 H   0  0  0  0  0  0  0  0  0  0  0  0
  125.5604  104.1497  107.1184 H   0  0  0  0  0  0  0  0  0  0  0  0
  121.6089  104.2509  103.8150 H   0  0  0  0  0  0  0  0  0  0  0  0
  122.7279  103.8864  107.6245 H   0  0  0  0  0  0  0  0  0  0  0  0
  127.1838  105.7290  107.0706 H   0  0  0  0  0  0  0  0  0  0  0  0
  1  4  1  0  0  0  0
  1  8  1  0  0  0  0
  1  9  2  0  0  0  0
  2  4  1  0  0  0  0
  2 11  1  0  0  0  0
  3  7  1  0  0  0  0
  3 11  1  0  0  0  0
  4  7  1  0  0  0  0
  5  6  1  0  0  0  0
  5  8  1  0  0  0  0
  6 10  1  0  0  0  0
  2 12  1  0  0  0  0
  2 13  1  0  0  0  0
  3 14  1  0  0  0  0
  3 15  1  0  0  0  0
  4 16  1  0  0  0  0
  5 17  1  0  0  0  0
  5 18  1  0  0  0  0
  6 19  1  0  0  0  0
  6 20  1  0  0  0  0
  7 21  1  0  0  0  0
  8 22  1  0  0  0  0
 10 23  1  0  0  0  0
M  END
> <FRED Chemgauss4 score>
-6.796892

$$$$
C85420816	P133703560
  -OEChem-05182014473D

 23 23  0     0  0  0  0  0  0999 V2000
  121.6302  108.1922  107.8738 C   0  0  0  0  0  0  0  0  0  0  0  0
  123.7020  108.0249  107.6820 C   0  0  0  0  0  0  0  0  0  0  0  0
  124.9863  105.3269  107.0890 C   0  0  0  0  0  0  0  0  0  0  0  0
  124.9377  106.9033  105.1263 C   0  0  0  0  0  0  0  0  0  0  0  0
  125.4612  106.6713  106.5424 C   0  0  0  0  0  0  0  0  0  0  0  0
  122.5989  107.4574  107.2522 N   0  0  0  0  0  0  0  0  0  0  0  0
  122.0645  109.1786  108.6611 N   0  0  0  0  0  0  0  0  0  0  0  0
  123.3926  109.0499  108.5207 N   0  0  0  0  0  0  0  0  0  0  0  0
  120.3299  107.8698  107.6510 N   0  0  0  0  0  0  0  0  0  0  0  0
  125.0298  107.7417  107.4176 N   0  0  0  0  0  0  0  0  0  0  0  0
  125.4339  104.2835  106.2307 O   0  0  0  0  0  0  0  0  0  0  0  0
  125.4011  108.1625  104.6521 O   0  0  0  0  0  0  0  0  0  0  0  0
  123.8926  105.2853  107.1216 H   0  0  0  0  0  0  0  0  0  0  0  0
  125.3786  105.1418  108.0950 H   0  0  0  0  0  0  0  0  0  0  0  0
  123.8426  106.9022  105.0971 H   0  0  0  0  0  0  0  0  0  0  0  0
  125.3107  106.1327  104.4439 H   0  0  0  0  0  0  0  0  0  0  0  0
  126.5567  106.7171  106.5497 H   0  0  0  0  0  0  0  0  0  0  0  0
  124.0086  109.6813  109.0183 H   0  0  0  0  0  0  0  0  0  0  0  0
  120.0623  107.1257  106.9964 H   0  0  0  0  0  0  0  0  0  0  0  0
  119.5611  108.4174  108.0544 H   0  0  0  0  0  0  0  0  0  0  0  0
  125.7427  108.3089  107.8576 H   0  0  0  0  0  0  0  0  0  0  0  0
  125.1121  103.4517  106.6128 H   0  0  0  0  0  0  0  0  0  0  0  0
  125.0475  108.2692  103.7547 H   0  0  0  0  0  0  0  0  0  0  0  0
  1  6  1  0  0  0  0
  1  7  2  0  0  0  0
  1  9  1  0  0  0  0
  2  6  2  0  0  0  0
  2  8  1  0  0  0  0
  2 10  1  0  0  0  0
  3  5  1  0  0  0  0
  3 11  1  0  0  0  0
  4  5  1  0  0  0  0
  4 12  1  0  0  0  0
  5 10  1  0  0  0  0
  7  8  1  0  0  0  0
  3 13  1  0  0  0  0
  3 14  1  0  0  0  0
  4 15  1  0  0  0  0
  4 16  1  0  0  0  0
  5 17  1  0  0  0  0
  8 18  1  0  0  0  0
  9 19  1  0  0  0  0
  9 20  1  0  0  0  0
 10 21  1  0  0  0  0
 11 22  1  0  0  0  0
 12 23  1  0  0  0  0
M  END
> <FRED Chemgauss4 score>
-6.793277

$$$$
C42040894	P63623732
  -OEChem-05182014473D

 20 20  0     1  0  0  0  0  0999 V2000
  123.5634  104.9723  109.3610 C   0  0  0  0  0  0  0  0  0  0  0  0
  123.5098  105.8233  107.4558 C   0  0  0  0  0  0  0  0  0  0  0  0
  126.3605  106.2744  106.3482 C   0  0  0  0  0  0  0  0  0  0  0  0
  123.8080  106.5796  106.1685 C   0  0  2  0  0  0  0  0  0  0  0  0
  125.1988  107.2578  106.2210 C   0  0  2  0  0  0  0  0  0  0  0  0
  124.2873  105.7590  108.5116 N   0  0  0  0  0  0  0  0  0  0  0  0
  122.3770  105.1039  107.6772 N   0  0  0  0  0  0  0  0  0  0  0  0
  122.3869  104.5457  108.8972 N   0  0  0  0  0  0  0  0  0  0  0  0
  122.7391  107.5443  105.8869 N   0  0  0  0  0  0  0  0  0  0  0  0
  125.4024  107.9993  105.0133 O   0  0  0  0  0  0  0  0  0  0  0  0
  123.9199  104.7102  110.3485 H   0  0  0  0  0  0  0  0  0  0  0  0
  126.3556  105.5305  105.5467 H   0  0  0  0  0  0  0  0  0  0  0  0
  126.3299  105.7545  107.3121 H   0  0  0  0  0  0  0  0  0  0  0  0
  127.3165  106.8086  106.3104 H   0  0  0  0  0  0  0  0  0  0  0  0
  123.8180  105.8543  105.3438 H   0  0  0  0  0  0  0  0  0  0  0  0
  125.2576  107.9744  107.0482 H   0  0  0  0  0  0  0  0  0  0  0  0
  121.6277  103.9692  109.2496 H   0  0  0  0  0  0  0  0  0  0  0  0
  121.8124  107.2962  106.1460 H   0  0  0  0  0  0  0  0  0  0  0  0
  122.9480  108.3004  105.2766 H   0  0  0  0  0  0  0  0  0  0  0  0
  126.2526  108.4508  105.1142 H   0  0  0  0  0  0  0  0  0  0  0  0
  1  6  2  0  0  0  0
  1  8  1  0  0  0  0
  2  4  1  0  0  0  0
  2  6  1  0  0  0  0
  2  7  2  0  0  0  0
  3  5  1  0  0  0  0
  4  5  1  0  0  0  0
  4  9  1  0  0  0  0
  5 10  1  0  0  0  0
  7  8  1  0  0  0  0
  1 11  1  0  0  0  0
  3 12  1  0  0  0  0
  3 13  1  0  0  0  0
  3 14  1  0  0  0  0
  4 15  1  0  0  0  0
  5 16  1  0  0  0  0
  8 17  1  0  0  0  0
  9 18  1  0  0  0  0
  9 19  1  0  0  0  0
 10 20  1  0  0  0  0
M  END
> <FRED Chemgauss4 score>
-6.790888

$$$$
C05829972	P08722974
  -OEChem-05182014473D

 23 23  0     1  0  0  0  0  0999 V2000
  123.3936  105.0630  107.3154 C   0  0  1  0  0  0  0  0  0  0  0  0
  125.3898  105.5515  108.7693 C   0  0  1  0  0  0  0  0  0  0  0  0
  124.2681  104.5678  108.4640 C   0  0  1  0  0  0  0  0  0  0  0  0
  124.2641  105.4527  106.1131 C   0  0  1  0  0  0  0  0  0  0  0  0
  126.1627  105.8680  107.4895 C   0  0  1  0  0  0  0  0  0  0  0  0
  123.4352  106.0983  105.0073 C   0  0  0  0  0  0  0  0  0  0  0  0
  125.2742  106.3913  106.4989 O   0  0  0  0  0  0  0  0  0  0  0  0
  122.4974  104.0260  106.9294 O   0  0  0  0  0  0  0  0  0  0  0  0
  124.8266  106.7677  109.2679 O   0  0  0  0  0  0  0  0  0  0  0  0
  127.1861  106.8103  107.7951 O   0  0  0  0  0  0  0  0  0  0  0  0
  122.8127  107.2580  105.5293 O   0  0  0  0  0  0  0  0  0  0  0  0
  123.4961  104.4202  109.5756 F   0  0  0  0  0  0  0  0  0  0  0  0
  122.7949  105.9171  107.6571 H   0  0  0  0  0  0  0  0  0  0  0  0
  126.0508  105.1640  109.5511 H   0  0  0  0  0  0  0  0  0  0  0  0
  124.6786  103.5793  108.2299 H   0  0  0  0  0  0  0  0  0  0  0  0
  124.7457  104.5622  105.6895 H   0  0  0  0  0  0  0  0  0  0  0  0
  126.6467  104.9620  107.1017 H   0  0  0  0  0  0  0  0  0  0  0  0
  122.6700  105.4031  104.6618 H   0  0  0  0  0  0  0  0  0  0  0  0
  124.0799  106.3792  104.1745 H   0  0  0  0  0  0  0  0  0  0  0  0
  123.0453  103.2755  106.6511 H   0  0  0  0  0  0  0  0  0  0  0  0
  124.2466  107.1047  108.5694 H   0  0  0  0  0  0  0  0  0  0  0  0
  127.6554  106.9886  106.9651 H   0  0  0  0  0  0  0  0  0  0  0  0
  122.2915  107.6512  104.8086 H   0  0  0  0  0  0  0  0  0  0  0  0
  1  3  1  0  0  0  0
  1  4  1  0  0  0  0
  1  8  1  0  0  0  0
  2  3  1  0  0  0  0
  2  5  1  0  0  0  0
  2  9  1  0  0  0  0
  3 12  1  0  0  0  0
  4  6  1  0  0  0  0
  4  7  1  0  0  0  0
  5  7  1  0  0  0  0
  5 10  1  0  0  0  0
  6 11  1  0  0  0  0
  1 13  1  0  0  0  0
  2 14  1  0  0  0  0
  3 15  1  0  0  0  0
  4 16  1  0  0  0  0
  5 17  1  0  0  0  0
  6 18  1  0  0  0  0
  6 19  1  0  0  0  0
  8 20  1  0  0  0  0
  9 21  1  0  0  0  0
 10 22  1  0  0  0  0
 11 23  1  0  0  0  0
M  END
> <FRED Chemgauss4 score>
-6.787567

$$$$
C82774730	P129384350
  -OEChem-05182014473D

 25 25  0     0  0  0  0  0  0999 V2000
  122.5051  106.4134  105.5643 C   0  0  0  0  0  0  0  0  0  0  0  0
  125.7767  105.7642  107.1002 C   0  0  0  0  0  0  0  0  0  0  0  0
  123.7123  106.8932  106.3605 C   0  0  0  0  0  0  0  0  0  0  0  0
  122.6114  104.2540  106.8341 C   0  0  0  0  0  0  0  0  0  0  0  0
  123.4885  104.9641  107.8428 C   0  0  0  0  0  0  0  0  0  0  0  0
  120.7745  104.6826  105.2273 C   0  0  0  0  0  0  0  0  0  0  0  0
  126.4287  105.1989  108.3368 C   0  0  0  0  0  0  0  0  0  0  0  0
  121.9496  105.1865  105.9240 N   0  0  0  0  0  0  0  0  0  0  0  0
  124.3857  105.8489  107.1125 N   0  0  0  0  0  0  0  0  0  0  0  0
  126.0642  106.0499  109.4279 N   0  0  0  0  0  0  0  0  0  0  0  0
  122.0157  107.1679  104.7183 O   0  0  0  0  0  0  0  0  0  0  0  0
  126.4830  106.1188  106.1530 O   0  0  0  0  0  0  0  0  0  0  0  0
  124.4306  107.2991  105.6578 H   0  0  0  0  0  0  0  0  0  0  0  0
  123.3710  107.6687  107.0319 H   0  0  0  0  0  0  0  0  0  0  0  0
  123.2213  103.5556  106.2443 H   0  0  0  0  0  0  0  0  0  0  0  0
  121.8213  103.6758  107.3350 H   0  0  0  0  0  0  0  0  0  0  0  0
  122.8773  105.5202  108.5513 H   0  0  0  0  0  0  0  0  0  0  0  0
  124.1064  104.2562  108.3976 H   0  0  0  0  0  0  0  0  0  0  0  0
  121.0774  104.0789  104.3679 H   0  0  0  0  0  0  0  0  0  0  0  0
  120.1591  105.5144  104.8738 H   0  0  0  0  0  0  0  0  0  0  0  0
  120.1739  104.0629  105.8986 H   0  0  0  0  0  0  0  0  0  0  0  0
  127.5028  105.1957  108.1802 H   0  0  0  0  0  0  0  0  0  0  0  0
  126.0577  104.1892  108.4822 H   0  0  0  0  0  0  0  0  0  0  0  0
  125.9578  107.0431  109.2714 H   0  0  0  0  0  0  0  0  0  0  0  0
  126.1146  105.6965  110.3740 H   0  0  0  0  0  0  0  0  0  0  0  0
  1  3  1  0  0  0  0
  1  8  1  0  0  0  0
  1 11  2  0  0  0  0
  2  7  1  0  0  0  0
  2  9  1  0  0  0  0
  2 12  2  0  0  0  0
  3  9  1  0  0  0  0
  4  5  1  0  0  0  0
  4  8  1  0  0  0  0
  5  9  1  0  0  0  0
  6  8  1  0  0  0  0
  7 10  1  0  0  0  0
  3 13  1  0  0  0  0
  3 14  1  0  0  0  0
  4 15  1  0  0  0  0
  4 16  1  0  0  0  0
  5 17  1  0  0  0  0
  5 18  1  0  0  0  0
  6 19  1  0  0  0  0
  6 20  1  0  0  0  0
  6 21  1  0  0  0  0
  7 22  1  0  0  0  0
  7 23  1  0  0  0  0
 10 24  1  0  0  0  0
 10 25  1  0  0  0  0
M  END
> <FRED Chemgauss4 score>
-6.786467

$$$$
C91468339	P143138873
  -OEChem-05182014473D

 45 47  0     1  0  0  0  0  0999 V2000
  113.5944  107.5338  107.5662 C   0  0  0  0  0  0  0  0  0  0  0  0
  114.3739  107.2417  106.4327 C   0  0  0  0  0  0  0  0  0  0  0  0
  114.1186  105.9149  106.1776 C   0  0  0  0  0  0  0  0  0  0  0  0
  118.5046  107.4267  105.5147 C   0  0  0  0  0  0  0  0  0  0  0  0
  124.3987  107.7093  106.4951 C   0  0  0  0  0  0  0  0  0  0  0  0
  115.2786  108.0714  105.5965 C   0  0  0  0  0  0  0  0  0  0  0  0
  114.7058  105.0895  105.0970 C   0  0  0  0  0  0  0  0  0  0  0  0
  115.3866  106.0091  104.0594 C   0  0  0  0  0  0  0  0  0  0  0  0
  120.3950  105.8174  105.4152 C   0  0  0  0  0  0  0  0  0  0  0  0
  120.4489  107.7552  107.0475 C   0  0  0  0  0  0  0  0  0  0  0  0
  121.4160  106.5817  104.5658 C   0  0  0  0  0  0  0  0  0  0  0  0
  121.4775  108.4263  106.1300 C   0  0  0  0  0  0  0  0  0  0  0  0
  119.5720  106.7389  106.3158 C   0  0  0  0  0  0  0  0  0  0  0  0
  116.1699  107.1882  104.6890 C   0  0  2  0  0  0  0  0  0  0  0  0
  123.2650  106.7769  106.1351 C   0  0  0  0  0  0  0  0  0  0  0  0
  112.9028  106.4734  108.0007 N   0  0  0  0  0  0  0  0  0  0  0  0
  113.2446  105.4999  107.1342 N   0  0  0  0  0  0  0  0  0  0  0  0
  122.2763  107.4907  105.3312 N   0  0  0  0  0  0  0  0  0  0  0  0
  124.9698  107.3949  107.7095 N   0  0  0  0  0  0  0  0  0  0  0  0
  117.3274  106.7101  105.4135 N   0  0  0  0  0  0  0  0  0  0  0  0
  118.7310  108.5271  105.0254 O   0  0  0  0  0  0  0  0  0  0  0  0
  124.7976  108.6156  105.7688 O   0  0  0  0  0  0  0  0  0  0  0  0
  113.4964  108.4711  108.0949 H   0  0  0  0  0  0  0  0  0  0  0  0
  114.6572  108.7150  104.9610 H   0  0  0  0  0  0  0  0  0  0  0  0
  115.8901  108.7265  106.2276 H   0  0  0  0  0  0  0  0  0  0  0  0
  115.4489  104.4078  105.5267 H   0  0  0  0  0  0  0  0  0  0  0  0
  113.9402  104.4790  104.6058 H   0  0  0  0  0  0  0  0  0  0  0  0
  116.0460  105.4057  103.4237 H   0  0  0  0  0  0  0  0  0  0  0  0
  114.6130  106.4277  103.4015 H   0  0  0  0  0  0  0  0  0  0  0  0
  119.7402  105.2373  104.7564 H   0  0  0  0  0  0  0  0  0  0  0  0
  120.9314  105.0985  106.0458 H   0  0  0  0  0  0  0  0  0  0  0  0
  120.9821  107.2421  107.8596 H   0  0  0  0  0  0  0  0  0  0  0  0
  119.8280  108.5286  107.5176 H   0  0  0  0  0  0  0  0  0  0  0  0
  122.0439  105.8331  104.0406 H   0  0  0  0  0  0  0  0  0  0  0  0
  120.8851  107.1344  103.7612 H   0  0  0  0  0  0  0  0  0  0  0  0
  120.9678  109.1649  105.4734 H   0  0  0  0  0  0  0  0  0  0  0  0
  122.1523  109.0310  106.7722 H   0  0  0  0  0  0  0  0  0  0  0  0
  119.0377  106.1286  107.0560 H   0  0  0  0  0  0  0  0  0  0  0  0
  116.5750  107.8171  103.8842 H   0  0  0  0  0  0  0  0  0  0  0  0
  122.7657  106.4041  107.0336 H   0  0  0  0  0  0  0  0  0  0  0  0
  123.6526  105.9393  105.5488 H   0  0  0  0  0  0  0  0  0  0  0  0
  112.8434  104.5789  107.2619 H   0  0  0  0  0  0  0  0  0  0  0  0
  124.6286  106.6135  108.2594 H   0  0  0  0  0  0  0  0  0  0  0  0
  125.7448  107.9224  108.0987 H   0  0  0  0  0  0  0  0  0  0  0  0
  117.2721  105.8043  105.8696 H   0  0  0  0  0  0  0  0  0  0  0  0
  1  2  1  0  0  0  0
  1 16  2  0  0  0  0
  2  3  2  0  0  0  0
  2  6  1  0  0  0  0
  3  7  1  0  0  0  0
  3 17  1  0  0  0  0
  4 13  1  0  0  0  0
  4 20  1  0  0  0  0
  4 21  2  0  0  0  0
  5 15  1  0  0  0  0
  5 19  1  0  0  0  0
  5 22  2  0  0  0  0
  6 14  1  0  0  0  0
  7  8  1  0  0  0  0
  8 14  1  0  0  0  0
  9 11  1  0  0  0  0
  9 13  1  0  0  0  0
 10 12  1  0  0  0  0
 10 13  1  0  0  0  0
 11 18  1  0  0  0  0
 12 18  1  0  0  0  0
 14 20  1  0  0  0  0
 15 18  1  0  0  0  0
 16 17  1  0  0  0  0
  1 23  1  0  0  0  0
  6 24  1  0  0  0  0
  6 25  1  0  0  0  0
  7 26  1  0  0  0  0
  7 27  1  0  0  0  0
  8 28  1  0  0  0  0
  8 29  1  0  0  0  0
  9 30  1  0  0  0  0
  9 31  1  0  0  0  0
 10 32  1  0  0  0  0
 10 33  1  0  0  0  0
 11 34  1  0  0  0  0
 11 35  1  0  0  0  0
 12 36  1  0  0  0  0
 12 37  1  0  0  0  0
 13 38  1  0  0  0  0
 14 39  1  0  0  0  0
 15 40  1  0  0  0  0
 15 41  1  0  0  0  0
 17 42  1  0  0  0  0
 19 43  1  0  0  0  0
 19 44  1  0  0  0  0
 20 45  1  0  0  0  0
M  END
> <FRED Chemgauss4 score>
-6.782890

$$$$
C40710778	P61812575
  -OEChem-05182014473D

 28 28  0     1  0  0  0  0  0999 V2000
  121.2153  106.0843  105.5792 C   0  0  0  0  0  0  0  0  0  0  0  0
  122.8481  105.2970  106.5760 C   0  0  0  0  0  0  0  0  0  0  0  0
  118.0451  105.4247  103.4769 C   0  0  0  0  0  0  0  0  0  0  0  0
  119.8420  106.2546  105.0919 C   0  0  0  0  0  0  0  0  0  0  0  0
  119.4811  105.2739  103.9531 C   0  0  0  0  0  0  0  0  0  0  0  0
  125.2757  105.1441  107.3583 C   0  0  0  0  0  0  0  0  0  0  0  0
  125.4303  106.3443  108.2866 C   0  0  0  0  0  0  0  0  0  0  0  0
  123.8674  104.5290  107.3911 C   0  0  1  0  0  0  0  0  0  0  0  0
  121.5720  105.0594  106.4063 N   0  0  0  0  0  0  0  0  0  0  0  0
  122.1969  106.9249  105.2391 N   0  0  0  0  0  0  0  0  0  0  0  0
  123.4224  104.3970  108.7619 N   0  0  0  0  0  0  0  0  0  0  0  0
  123.3029  106.3928  105.9136 O   0  0  0  0  0  0  0  0  0  0  0  0
  126.7548  106.8471  108.1657 O   0  0  0  0  0  0  0  0  0  0  0  0
  117.3406  105.2706  104.3005 H   0  0  0  0  0  0  0  0  0  0  0  0
  117.8732  106.4216  103.0587 H   0  0  0  0  0  0  0  0  0  0  0  0
  117.8243  104.6873  102.6989 H   0  0  0  0  0  0  0  0  0  0  0  0
  119.0969  106.1222  105.9069 H   0  0  0  0  0  0  0  0  0  0  0  0
  119.6611  107.2884  104.7236 H   0  0  0  0  0  0  0  0  0  0  0  0
  120.1589  105.4341  103.1058 H   0  0  0  0  0  0  0  0  0  0  0  0
  119.6395  104.2439  104.2952 H   0  0  0  0  0  0  0  0  0  0  0  0
  126.0130  104.3826  107.6481 H   0  0  0  0  0  0  0  0  0  0  0  0
  125.5608  105.4332  106.3381 H   0  0  0  0  0  0  0  0  0  0  0  0
  124.7354  107.1468  108.0220 H   0  0  0  0  0  0  0  0  0  0  0  0
  125.2630  106.0550  109.3289 H   0  0  0  0  0  0  0  0  0  0  0  0
  123.9351  103.5007  107.0142 H   0  0  0  0  0  0  0  0  0  0  0  0
  124.1035  104.2082  109.4739 H   0  0  0  0  0  0  0  0  0  0  0  0
  122.4410  104.2934  108.9424 H   0  0  0  0  0  0  0  0  0  0  0  0
  126.8213  107.6069  108.7661 H   0  0  0  0  0  0  0  0  0  0  0  0
  1  4  1  0  0  0  0
  1  9  1  0  0  0  0
  1 10  2  0  0  0  0
  2  8  1  0  0  0  0
  2  9  2  0  0  0  0
  2 12  1  0  0  0  0
  3  5  1  0  0  0  0
  4  5  1  0  0  0  0
  6  7  1  0  0  0  0
  6  8  1  0  0  0  0
  7 13  1  0  0  0  0
  8 11  1  0  0  0  0
 10 12  1  0  0  0  0
  3 14  1  0  0  0  0
  3 15  1  0  0  0  0
  3 16  1  0  0  0  0
  4 17  1  0  0  0  0
  4 18  1  0  0  0  0
  5 19  1  0  0  0  0
  5 20  1  0  0  0  0
  6 21  1  0  0  0  0
  6 22  1  0  0  0  0
  7 23  1  0  0  0  0
  7 24  1  0  0  0  0
  8 25  1  0  0  0  0
 11 26  1  0  0  0  0
 11 27  1  0  0  0  0
 13 28  1  0  0  0  0
M  END
> <FRED Chemgauss4 score>
-6.778485

$$$$
C13544124	P57737090
  -OEChem-05182014473D

 25 25  0     1  0  0  0  0  0999 V2000
  125.2248  106.2537  106.7842 C   0  0  1  0  0  0  0  0  0  0  0  0
  124.5391  105.7047  108.0383 C   0  0  2  0  0  0  0  0  0  0  0  0
  124.5145  107.5204  106.3061 C   0  0  2  0  0  0  0  0  0  0  0  0
  123.0358  105.5282  107.7896 C   0  0  1  0  0  0  0  0  0  0  0  0
  123.0075  107.2793  106.1312 C   0  0  1  0  0  0  0  0  0  0  0  0
  122.2863  105.0985  109.0464 C   0  0  0  0  0  0  0  0  0  0  0  0
  122.7037  106.4412  104.9679 N   0  0  0  0  0  0  0  0  0  0  0  0
  122.4446  106.7599  107.3442 O   0  0  0  0  0  0  0  0  0  0  0  0
  126.5876  106.5590  107.0685 O   0  0  0  0  0  0  0  0  0  0  0  0
  124.7239  106.6184  109.1224 O   0  0  0  0  0  0  0  0  0  0  0  0
  125.0779  107.9776  105.0800 O   0  0  0  0  0  0  0  0  0  0  0  0
  122.0731  106.2398  109.8572 O   0  0  0  0  0  0  0  0  0  0  0  0
  125.2265  105.4994  105.9903 H   0  0  0  0  0  0  0  0  0  0  0  0
  125.0023  104.7566  108.3347 H   0  0  0  0  0  0  0  0  0  0  0  0
  124.6713  108.3201  107.0422 H   0  0  0  0  0  0  0  0  0  0  0  0
  122.8789  104.7607  107.0265 H   0  0  0  0  0  0  0  0  0  0  0  0
  122.5255  108.2473  105.9530 H   0  0  0  0  0  0  0  0  0  0  0  0
  122.8762  104.3683  109.6009 H   0  0  0  0  0  0  0  0  0  0  0  0
  121.3235  104.6640  108.7764 H   0  0  0  0  0  0  0  0  0  0  0  0
  123.2777  106.5406  104.1619 H   0  0  0  0  0  0  0  0  0  0  0  0
  121.8302  105.9657  104.9543 H   0  0  0  0  0  0  0  0  0  0  0  0
  127.0033  105.7296  107.3508 H   0  0  0  0  0  0  0  0  0  0  0  0
  124.3219  107.4543  108.8443 H   0  0  0  0  0  0  0  0  0  0  0  0
  124.5882  108.7771  104.8315 H   0  0  0  0  0  0  0  0  0  0  0  0
  121.5953  105.9415  110.6498 H   0  0  0  0  0  0  0  0  0  0  0  0
  1  2  1  0  0  0  0
  1  3  1  0  0  0  0
  1  9  1  0  0  0  0
  2  4  1  0  0  0  0
  2 10  1  0  0  0  0
  3  5  1  0  0  0  0
  3 11  1  0  0  0  0
  4  6  1  0  0  0  0
  4  8  1  0  0  0  0
  5  7  1  0  0  0  0
  5  8  1  0  0  0  0
  6 12  1  0  0  0  0
  1 13  1  0  0  0  0
  2 14  1  0  0  0  0
  3 15  1  0  0  0  0
  4 16  1  0  0  0  0
  5 17  1  0  0  0  0
  6 18  1  0  0  0  0
  6 19  1  0  0  0  0
  7 20  1  0  0  0  0
  7 21  1  0  0  0  0
  9 22  1  0  0  0  0
 10 23  1  0  0  0  0
 11 24  1  0  0  0  0
 12 25  1  0  0  0  0
M  END
> <FRED Chemgauss4 score>
-6.777762

$$$$
C68645088	P105396542
  -OEChem-05182014473D

 50 51  0     1  0  0  0  0  0999 V2000
  126.2955  106.2476  107.5566 C   0  0  0  0  0  0  0  0  0  0  0  0
  120.6739  103.7079  103.0842 C   0  0  0  0  0  0  0  0  0  0  0  0
  121.3250  104.9819  102.5842 C   0  0  0  0  0  0  0  0  0  0  0  0
  119.7109  107.5746  105.7249 C   0  0  0  0  0  0  0  0  0  0  0  0
  119.5746  104.1773  104.0254 C   0  0  0  0  0  0  0  0  0  0  0  0
  119.2091  106.1747  105.3647 C   0  0  0  0  0  0  0  0  0  0  0  0
  121.1038  107.5721  106.3683 C   0  0  0  0  0  0  0  0  0  0  0  0
  122.1240  105.9737  104.7974 C   0  0  0  0  0  0  0  0  0  0  0  0
  121.0610  106.0096  103.6859 C   0  0  2  0  0  0  0  0  0  0  0  0
  124.6083  107.6495  105.2093 C   0  0  0  0  0  0  0  0  0  0  0  0
  124.6047  107.4596  108.9748 C   0  0  0  0  0  0  0  0  0  0  0  0
  125.1024  103.8179  108.3097 C   0  0  0  0  0  0  0  0  0  0  0  0
  123.8001  106.0831  107.0142 C   0  0  0  0  0  0  0  0  0  0  0  0
  123.4871  107.3667  106.2109 C   0  0  2  0  0  0  0  0  0  0  0  0
  124.8694  106.2001  108.1320 C   0  0  1  0  0  0  0  0  0  0  0  0
  119.7136  105.6344  104.1094 N   0  0  1  0  0  0  0  0  0  0  0  0
  122.2257  107.2787  105.4681 N   0  0  2  0  0  0  0  0  0  0  0  0
  127.2930  106.3061  108.5068 N   0  0  0  0  0  0  0  0  0  0  0  0
  124.8047  105.0419  109.0326 N   0  0  0  0  0  0  0  0  0  0  0  0
  126.5406  106.2319  106.3506 O   0  0  0  0  0  0  0  0  0  0  0  0
  120.2523  103.1245  102.2582 H   0  0  0  0  0  0  0  0  0  0  0  0
  121.4077  103.0802  103.6023 H   0  0  0  0  0  0  0  0  0  0  0  0
  122.4043  104.8210  102.4428 H   0  0  0  0  0  0  0  0  0  0  0  0
  120.9110  105.3022  101.6191 H   0  0  0  0  0  0  0  0  0  0  0  0
  119.7630  108.1677  104.8177 H   0  0  0  0  0  0  0  0  0  0  0  0
  119.0027  108.0606  106.3875 H   0  0  0  0  0  0  0  0  0  0  0  0
  118.5863  103.8905  103.6181 H   0  0  0  0  0  0  0  0  0  0  0  0
  119.6670  103.7040  105.0186 H   0  0  0  0  0  0  0  0  0  0  0  0
  119.5378  105.4962  106.1905 H   0  0  0  0  0  0  0  0  0  0  0  0
  118.0889  106.1320  105.4116 H   0  0  0  0  0  0  0  0  0  0  0  0
  121.2754  108.5560  106.7925 H   0  0  0  0  0  0  0  0  0  0  0  0
  121.0728  106.8575  107.1847 H   0  0  0  0  0  0  0  0  0  0  0  0
  121.9516  105.1554  105.5165 H   0  0  0  0  0  0  0  0  0  0  0  0
  123.0835  105.7354  104.3083 H   0  0  0  0  0  0  0  0  0  0  0  0
  121.0556  107.0154  103.2200 H   0  0  0  0  0  0  0  0  0  0  0  0
  124.7123  106.8200  104.5014 H   0  0  0  0  0  0  0  0  0  0  0  0
  125.5708  107.7689  105.7197 H   0  0  0  0  0  0  0  0  0  0  0  0
  124.4147  108.5615  104.6331 H   0  0  0  0  0  0  0  0  0  0  0  0
  123.5931  107.4518  109.3981 H   0  0  0  0  0  0  0  0  0  0  0  0
  125.3169  107.5430  109.8042 H   0  0  0  0  0  0  0  0  0  0  0  0
  124.6954  108.3735  108.3772 H   0  0  0  0  0  0  0  0  0  0  0  0
  126.1079  103.8681  107.8839 H   0  0  0  0  0  0  0  0  0  0  0  0
  124.3835  103.6737  107.4985 H   0  0  0  0  0  0  0  0  0  0  0  0
  125.0479  102.9584  108.9832 H   0  0  0  0  0  0  0  0  0  0  0  0
  122.8662  105.6984  107.4498 H   0  0  0  0  0  0  0  0  0  0  0  0
  124.1222  105.3125  106.3002 H   0  0  0  0  0  0  0  0  0  0  0  0
  123.4254  108.2223  106.8922 H   0  0  0  0  0  0  0  0  0  0  0  0
  127.1054  106.3156  109.5037 H   0  0  0  0  0  0  0  0  0  0  0  0
  128.2690  106.3395  108.2314 H   0  0  0  0  0  0  0  0  0  0  0  0
  123.8696  104.9897  109.4259 H   0  0  0  0  0  0  0  0  0  0  0  0
  1 15  1  0  0  0  0
  1 18  1  0  0  0  0
  1 20  2  0  0  0  0
  2  3  1  0  0  0  0
  2  5  1  0  0  0  0
  3  9  1  0  0  0  0
  4  6  1  0  0  0  0
  4  7  1  0  0  0  0
  5 16  1  0  0  0  0
  6 16  1  0  0  0  0
  7 17  1  0  0  0  0
  8  9  1  0  0  0  0
  8 17  1  0  0  0  0
  9 16  1  0  0  0  0
 10 14  1  0  0  0  0
 11 15  1  0  0  0  0
 12 19  1  0  0  0  0
 13 14  1  0  0  0  0
 13 15  1  0  0  0  0
 14 17  1  0  0  0  0
 15 19  1  0  0  0  0
  2 21  1  0  0  0  0
  2 22  1  0  0  0  0
  3 23  1  0  0  0  0
  3 24  1  0  0  0  0
  4 25  1  0  0  0  0
  4 26  1  0  0  0  0
  5 27  1  0  0  0  0
  5 28  1  0  0  0  0
  6 29  1  0  0  0  0
  6 30  1  0  0  0  0
  7 31  1  0  0  0  0
  7 32  1  0  0  0  0
  8 33  1  0  0  0  0
  8 34  1  0  0  0  0
  9 35  1  0  0  0  0
 10 36  1  0  0  0  0
 10 37  1  0  0  0  0
 10 38  1  0  0  0  0
 11 39  1  0  0  0  0
 11 40  1  0  0  0  0
 11 41  1  0  0  0  0
 12 42  1  0  0  0  0
 12 43  1  0  0  0  0
 12 44  1  0  0  0  0
 13 45  1  0  0  0  0
 13 46  1  0  0  0  0
 14 47  1  0  0  0  0
 18 48  1  0  0  0  0
 18 49  1  0  0  0  0
 19 50  1  0  0  0  0
M  END
> <FRED Chemgauss4 score>
-6.775405

$$$$
C86434335	P135332703
  -OEChem-05182014473D

 28 27  0     0  0  0  0  0  0999 V2000
  119.8958  103.8236  106.6482 C   0  0  0  0  0  0  0  0  0  0  0  0
  120.7890  106.1763  104.4783 C   0  0  0  0  0  0  0  0  0  0  0  0
  119.9160  104.1299  103.4197 C   0  0  0  0  0  0  0  0  0  0  0  0
  121.0004  103.9197  105.6213 C   0  0  0  0  0  0  0  0  0  0  0  0
  121.4954  106.8217  105.6518 C   0  0  0  0  0  0  0  0  0  0  0  0
  125.0945  107.3108  106.2443 C   0  0  0  0  0  0  0  0  0  0  0  0
  123.6046  107.3784  106.5260 C   0  0  0  0  0  0  0  0  0  0  0  0
  120.2269  102.9934  107.6975 N   0  0  0  0  0  0  0  0  0  0  0  0
  125.3916  108.0078  104.9721 N   0  0  0  0  0  0  0  0  0  0  0  0
  120.5840  104.7973  104.5303 N   0  0  0  0  0  0  0  0  0  0  0  0
  118.8410  104.4489  106.5808 O   0  0  0  0  0  0  0  0  0  0  0  0
  120.4355  106.8893  103.5340 O   0  0  0  0  0  0  0  0  0  0  0  0
  122.8914  106.7817  105.4465 O   0  0  0  0  0  0  0  0  0  0  0  0
  120.6515  103.8058  102.6789 H   0  0  0  0  0  0  0  0  0  0  0  0
  119.2092  104.8117  102.9390 H   0  0  0  0  0  0  0  0  0  0  0  0
  119.3689  103.2541  103.7790 H   0  0  0  0  0  0  0  0  0  0  0  0
  121.2268  102.9373  105.1982 H   0  0  0  0  0  0  0  0  0  0  0  0
  121.8959  104.3414  106.0859 H   0  0  0  0  0  0  0  0  0  0  0  0
  121.1630  107.8532  105.7946 H   0  0  0  0  0  0  0  0  0  0  0  0
  121.2561  106.2732  106.5688 H   0  0  0  0  0  0  0  0  0  0  0  0
  125.6712  107.7909  107.0413 H   0  0  0  0  0  0  0  0  0  0  0  0
  125.4167  106.2697  106.1463 H   0  0  0  0  0  0  0  0  0  0  0  0
  123.2853  108.4222  106.6059 H   0  0  0  0  0  0  0  0  0  0  0  0
  123.3457  106.8541  107.4516 H   0  0  0  0  0  0  0  0  0  0  0  0
  121.1261  102.5245  107.7276 H   0  0  0  0  0  0  0  0  0  0  0  0
  119.5960  102.8196  108.4734 H   0  0  0  0  0  0  0  0  0  0  0  0
  126.2074  107.7316  104.4891 H   0  0  0  0  0  0  0  0  0  0  0  0
  124.8833  108.8333  104.7836 H   0  0  0  0  0  0  0  0  0  0  0  0
  1  4  1  0  0  0  0
  1  8  1  0  0  0  0
  1 11  2  0  0  0  0
  2  5  1  0  0  0  0
  2 10  1  0  0  0  0
  2 12  2  0  0  0  0
  3 10  1  0  0  0  0
  4 10  1  0  0  0  0
  5 13  1  0  0  0  0
  6  7  1  0  0  0  0
  6  9  1  0  0  0  0
  7 13  1  0  0  0  0
  3 14  1  0  0  0  0
  3 15  1  0  0  0  0
  3 16  1  0  0  0  0
  4 17  1  0  0  0  0
  4 18  1  0  0  0  0
  5 19  1  0  0  0  0
  5 20  1  0  0  0  0
  6 21  1  0  0  0  0
  6 22  1  0  0  0  0
  7 23  1  0  0  0  0
  7 24  1  0  0  0  0
  8 25  1  0  0  0  0
  8 26  1  0  0  0  0
  9 27  1  0  0  0  0
  9 28  1  0  0  0  0
M  END
> <FRED Chemgauss4 score>
-6.772215

$$$$
C39060572	P59188184
  -OEChem-05182014473D

 19 19  0     1  0  0  0  0  0999 V2000
  125.8486  106.4947  106.7636 C   0  0  0  0  0  0  0  0  0  0  0  0
  124.9632  107.0422  105.9222 C   0  0  0  0  0  0  0  0  0  0  0  0
  123.5617  106.5503  105.9732 C   0  0  0  0  0  0  0  0  0  0  0  0
  125.4810  105.4555  107.7894 C   0  0  1  0  0  0  0  0  0  0  0  0
  123.2981  105.3529  106.8700 C   0  0  1  0  0  0  0  0  0  0  0  0
  126.1801  105.7235  109.1170 C   0  0  0  0  0  0  0  0  0  0  0  0
  122.6892  107.0803  105.2905 O   0  0  0  0  0  0  0  0  0  0  0  0
  124.0723  105.4561  108.0515 O   0  0  0  0  0  0  0  0  0  0  0  0
  125.3127  108.0088  105.0102 O   0  0  0  0  0  0  0  0  0  0  0  0
  121.9132  105.3164  107.1667 O   0  0  0  0  0  0  0  0  0  0  0  0
  125.7919  107.0038  109.5818 O   0  0  0  0  0  0  0  0  0  0  0  0
  126.8898  106.8030  106.7085 H   0  0  0  0  0  0  0  0  0  0  0  0
  125.7761  104.4627  107.4275 H   0  0  0  0  0  0  0  0  0  0  0  0
  123.5403  104.4453  106.3278 H   0  0  0  0  0  0  0  0  0  0  0  0
  127.2617  105.7035  108.9800 H   0  0  0  0  0  0  0  0  0  0  0  0
  125.8892  104.9712  109.8508 H   0  0  0  0  0  0  0  0  0  0  0  0
  124.5410  108.2764  104.4973 H   0  0  0  0  0  0  0  0  0  0  0  0
  121.4421  105.2324  106.3202 H   0  0  0  0  0  0  0  0  0  0  0  0
  126.2495  107.1511  110.4270 H   0  0  0  0  0  0  0  0  0  0  0  0
  1  2  2  0  0  0  0
  1  4  1  0  0  0  0
  2  3  1  0  0  0  0
  2  9  1  0  0  0  0
  3  5  1  0  0  0  0
  3  7  2  0  0  0  0
  4  6  1  0  0  0  0
  4  8  1  0  0  0  0
  5  8  1  0  0  0  0
  5 10  1  0  0  0  0
  6 11  1  0  0  0  0
  1 12  1  0  0  0  0
  4 13  1  0  0  0  0
  5 14  1  0  0  0  0
  6 15  1  0  0  0  0
  6 16  1  0  0  0  0
  9 17  1  0  0  0  0
 10 18  1  0  0  0  0
 11 19  1  0  0  0  0
M  END
> <FRED Chemgauss4 score>
-6.769431

$$$$
C40545288	P61562844
  -OEChem-05182014473D

 24 24  0     1  0  0  0  0  0999 V2000
  122.9841  105.9147  107.7273 C   0  0  0  0  0  0  0  0  0  0  0  0
  124.2820  106.5779  108.1718 C   0  0  1  0  0  0  0  0  0  0  0  0
  124.8719  107.4426  107.0564 C   0  0  2  0  0  0  0  0  0  0  0  0
  124.9281  106.6532  105.7484 C   0  0  1  0  0  0  0  0  0  0  0  0
  123.5893  105.9820  105.4284 C   0  0  1  0  0  0  0  0  0  0  0  0
  121.3524  106.2869  104.7331 C   0  0  0  0  0  0  0  0  0  0  0  0
  123.1593  105.1703  106.5244 O   0  0  0  0  0  0  0  0  0  0  0  0
  124.0067  107.3755  109.3184 O   0  0  0  0  0  0  0  0  0  0  0  0
  126.2055  107.8193  107.4049 O   0  0  0  0  0  0  0  0  0  0  0  0
  125.3089  107.5224  104.6874 O   0  0  0  0  0  0  0  0  0  0  0  0
  120.3746  107.1854  104.2290 O   0  0  0  0  0  0  0  0  0  0  0  0
  122.5912  106.9194  105.0279 O   0  0  0  0  0  0  0  0  0  0  0  0
  122.6387  105.2234  108.5042 H   0  0  0  0  0  0  0  0  0  0  0  0
  122.1795  106.6501  107.6024 H   0  0  0  0  0  0  0  0  0  0  0  0
  125.0063  105.8093  108.4673 H   0  0  0  0  0  0  0  0  0  0  0  0
  124.3064  108.3712  106.9331 H   0  0  0  0  0  0  0  0  0  0  0  0
  125.7074  105.8868  105.8384 H   0  0  0  0  0  0  0  0  0  0  0  0
  123.7393  105.2955  104.5627 H   0  0  0  0  0  0  0  0  0  0  0  0
  120.9599  105.7502  105.6046 H   0  0  0  0  0  0  0  0  0  0  0  0
  121.5491  105.5494  103.9497 H   0  0  0  0  0  0  0  0  0  0  0  0
  123.6649  106.7747  109.9992 H   0  0  0  0  0  0  0  0  0  0  0  0
  126.7049  106.9952  107.5073 H   0  0  0  0  0  0  0  0  0  0  0  0
  125.3319  106.9831  103.8811 H   0  0  0  0  0  0  0  0  0  0  0  0
  119.5695  106.6681  104.0580 H   0  0  0  0  0  0  0  0  0  0  0  0
  1  2  1  0  0  0  0
  1  7  1  0  0  0  0
  2  3  1  0  0  0  0
  2  8  1  0  0  0  0
  3  4  1  0  0  0  0
  3  9  1  0  0  0  0
  4  5  1  0  0  0  0
  4 10  1  0  0  0  0
  5  7  1  0  0  0  0
  5 12  1  0  0  0  0
  6 11  1  0  0  0  0
  6 12  1  0  0  0  0
  1 13  1  0  0  0  0
  1 14  1  0  0  0  0
  2 15  1  0  0  0  0
  3 16  1  0  0  0  0
  4 17  1  0  0  0  0
  5 18  1  0  0  0  0
  6 19  1  0  0  0  0
  6 20  1  0  0  0  0
  8 21  1  0  0  0  0
  9 22  1  0  0  0  0
 10 23  1  0  0  0  0
 11 24  1  0  0  0  0
M  END
> <FRED Chemgauss4 score>
-6.767695

$$$$
C93848609	P147064787
  -OEChem-05182014473D

 36 37  0     1  0  0  0  0  0999 V2000
  118.7002  104.9147  106.0174 C   0  0  0  0  0  0  0  0  0  0  0  0
  119.0642  106.1008  106.5218 C   0  0  0  0  0  0  0  0  0  0  0  0
  119.4028  103.7017  106.4983 C   0  0  0  0  0  0  0  0  0  0  0  0
  120.6509  105.2438  107.8732 C   0  0  0  0  0  0  0  0  0  0  0  0
  124.6349  107.5599  105.5233 C   0  0  0  0  0  0  0  0  0  0  0  0
  124.3717  106.6192  108.9445 C   0  0  0  0  0  0  0  0  0  0  0  0
  125.3252  107.1605  107.8803 C   0  0  0  0  0  0  0  0  0  0  0  0
  123.5783  105.7537  106.8672 C   0  0  0  0  0  0  0  0  0  0  0  0
  123.0828  106.3858  108.1682 C   0  0  1  0  0  0  0  0  0  0  0  0
  124.8942  106.4889  106.5691 C   0  0  1  0  0  0  0  0  0  0  0  0
  127.2697  103.5149  106.6307 C   0  0  0  0  0  0  0  0  0  0  0  0
  126.2366  104.4735  107.1813 C   0  0  0  0  0  0  0  0  0  0  0  0
  120.0441  106.3103  107.4607 N   0  0  0  0  0  0  0  0  0  0  0  0
  120.3785  103.9646  107.4405 N   0  0  0  0  0  0  0  0  0  0  0  0
  125.9230  105.4998  106.1520 N   0  3  0  0  0  0  0  0  0  0  0  0
  123.4517  107.9973  105.4814 O   0  5  0  0  0  0  0  0  0  0  0  0
  119.1140  102.5881  106.0742 O   0  0  0  0  0  0  0  0  0  0  0  0
  125.6408  107.8755  104.8278 O   0  0  0  0  0  0  0  0  0  0  0  0
  121.9181  105.3243  109.0613 S   0  0  0  0  0  0  0  0  0  0  0  0
  117.9186  104.8127  105.2756 H   0  0  0  0  0  0  0  0  0  0  0  0
  118.5599  106.9984  106.1783 H   0  0  0  0  0  0  0  0  0  0  0  0
  124.7748  105.6829  109.3513 H   0  0  0  0  0  0  0  0  0  0  0  0
  124.2453  107.3253  109.7714 H   0  0  0  0  0  0  0  0  0  0  0  0
  125.2216  108.2517  107.8262 H   0  0  0  0  0  0  0  0  0  0  0  0
  126.3660  106.9544  108.1545 H   0  0  0  0  0  0  0  0  0  0  0  0
  123.7550  104.6778  107.0005 H   0  0  0  0  0  0  0  0  0  0  0  0
  122.8355  105.8649  106.0684 H   0  0  0  0  0  0  0  0  0  0  0  0
  122.5911  107.3430  107.9577 H   0  0  0  0  0  0  0  0  0  0  0  0
  126.8744  102.9975  105.7512 H   0  0  0  0  0  0  0  0  0  0  0  0
  128.1805  104.0438  106.3313 H   0  0  0  0  0  0  0  0  0  0  0  0
  127.5438  102.7586  107.3736 H   0  0  0  0  0  0  0  0  0  0  0  0
  126.6067  105.0047  108.0625 H   0  0  0  0  0  0  0  0  0  0  0  0
  125.2997  103.9635  107.4223 H   0  0  0  0  0  0  0  0  0  0  0  0
  120.9102  103.1903  107.8261 H   0  0  0  0  0  0  0  0  0  0  0  0
  125.6096  105.0295  105.2919 H   0  0  0  0  0  0  0  0  0  0  0  0
  126.7872  105.9986  105.8992 H   0  0  0  0  0  0  0  0  0  0  0  0
  1  2  2  0  0  0  0
  1  3  1  0  0  0  0
  2 13  1  0  0  0  0
  3 14  1  0  0  0  0
  3 17  2  0  0  0  0
  4 13  2  0  0  0  0
  4 14  1  0  0  0  0
  4 19  1  0  0  0  0
  5 10  1  0  0  0  0
  5 16  1  0  0  0  0
  5 18  2  0  0  0  0
  6  7  1  0  0  0  0
  6  9  1  0  0  0  0
  7 10  1  0  0  0  0
  8  9  1  0  0  0  0
  8 10  1  0  0  0  0
  9 19  1  0  0  0  0
 10 15  1  0  0  0  0
 11 12  1  0  0  0  0
 12 15  1  0  0  0  0
  1 20  1  0  0  0  0
  2 21  1  0  0  0  0
  6 22  1  0  0  0  0
  6 23  1  0  0  0  0
  7 24  1  0  0  0  0
  7 25  1  0  0  0  0
  8 26  1  0  0  0  0
  8 27  1  0  0  0  0
  9 28  1  0  0  0  0
 11 29  1  0  0  0  0
 11 30  1  0  0  0  0
 11 31  1  0  0  0  0
 12 32  1  0  0  0  0
 12 33  1  0  0  0  0
 14 34  1  0  0  0  0
 15 35  1  0  0  0  0
 15 36  1  0  0  0  0
M  CHG  2  15   1  16  -1
M  END
> <FRED Chemgauss4 score>
-6.761789

$$$$
C83746314	P131018925
  -OEChem-05182014473D

 29 30  0     1  0  0  0  0  0999 V2000
  120.7293  107.0364  105.2077 C   0  0  0  0  0  0  0  0  0  0  0  0
  120.7701  104.9072  105.7552 C   0  0  0  0  0  0  0  0  0  0  0  0
  126.8587  105.9194  108.3567 C   0  0  0  0  0  0  0  0  0  0  0  0
  121.3919  106.1017  106.0257 C   0  0  0  0  0  0  0  0  0  0  0  0
  125.0409  105.9809  107.3326 C   0  0  0  0  0  0  0  0  0  0  0  0
  117.5011  104.3418  104.8308 C   0  0  0  0  0  0  0  0  0  0  0  0
  122.5331  106.3528  106.9847 C   0  0  0  0  0  0  0  0  0  0  0  0
  118.8937  104.2460  104.2318 C   0  0  0  0  0  0  0  0  0  0  0  0
  123.9238  106.2054  106.3278 C   0  0  1  0  0  0  0  0  0  0  0  0
  119.7610  106.4833  104.4726 N   0  0  0  0  0  0  0  0  0  0  0  0
  126.2906  106.3588  107.1953 N   0  0  0  0  0  0  0  0  0  0  0  0
  124.8830  105.3462  108.5250 N   0  0  0  0  0  0  0  0  0  0  0  0
  126.0391  105.2933  109.2039 N   0  0  0  0  0  0  0  0  0  0  0  0
  119.8106  105.1881  104.8276 N   0  0  0  0  0  0  0  0  0  0  0  0
  124.1986  107.3821  105.4921 N   0  0  0  0  0  0  0  0  0  0  0  0
  120.9106  108.0979  105.1143 H   0  0  0  0  0  0  0  0  0  0  0  0
  120.9257  103.9059  106.1335 H   0  0  0  0  0  0  0  0  0  0  0  0
  127.9074  106.0685  108.5777 H   0  0  0  0  0  0  0  0  0  0  0  0
  117.5199  104.1501  105.9089 H   0  0  0  0  0  0  0  0  0  0  0  0
  116.8365  103.6075  104.3652 H   0  0  0  0  0  0  0  0  0  0  0  0
  117.0718  105.3373  104.6764 H   0  0  0  0  0  0  0  0  0  0  0  0
  122.4346  105.6367  107.8126 H   0  0  0  0  0  0  0  0  0  0  0  0
  122.4180  107.3439  107.4432 H   0  0  0  0  0  0  0  0  0  0  0  0
  118.8646  104.4392  103.1535 H   0  0  0  0  0  0  0  0  0  0  0  0
  119.3058  103.2401  104.3710 H   0  0  0  0  0  0  0  0  0  0  0  0
  123.8957  105.3459  105.6458 H   0  0  0  0  0  0  0  0  0  0  0  0
  126.1261  104.8582  110.1182 H   0  0  0  0  0  0  0  0  0  0  0  0
  123.4296  107.8098  105.0323 H   0  0  0  0  0  0  0  0  0  0  0  0
  125.1456  107.5718  105.2617 H   0  0  0  0  0  0  0  0  0  0  0  0
  1  4  1  0  0  0  0
  1 10  2  0  0  0  0
  2  4  2  0  0  0  0
  2 14  1  0  0  0  0
  3 11  2  0  0  0  0
  3 13  1  0  0  0  0
  4  7  1  0  0  0  0
  5  9  1  0  0  0  0
  5 11  1  0  0  0  0
  5 12  2  0  0  0  0
  6  8  1  0  0  0  0
  7  9  1  0  0  0  0
  8 14  1  0  0  0  0
  9 15  1  0  0  0  0
 10 14  1  0  0  0  0
 12 13  1  0  0  0  0
  1 16  1  0  0  0  0
  2 17  1  0  0  0  0
  3 18  1  0  0  0  0
  6 19  1  0  0  0  0
  6 20  1  0  0  0  0
  6 21  1  0  0  0  0
  7 22  1  0  0  0  0
  7 23  1  0  0  0  0
  8 24  1  0  0  0  0
  8 25  1  0  0  0  0
  9 26  1  0  0  0  0
 13 27  1  0  0  0  0
 15 28  1  0  0  0  0
 15 29  1  0  0  0  0
M  END
> <FRED Chemgauss4 score>
-6.761647

$$$$
C50673182	P75791398
  -OEChem-05182014473D

 33 34  0     0  0  0  0  0  0999 V2000
  122.5742  105.1078  106.8816 C   0  0  0  0  0  0  0  0  0  0  0  0
  121.5441  106.1927  105.0326 C   0  0  0  0  0  0  0  0  0  0  0  0
  119.9421  107.8626  108.4615 C   0  0  0  0  0  0  0  0  0  0  0  0
  123.6612  105.9629  106.7387 C   0  0  0  0  0  0  0  0  0  0  0  0
  121.4914  105.2183  106.0163 C   0  0  0  0  0  0  0  0  0  0  0  0
  120.9449  108.7312  108.0845 C   0  0  0  0  0  0  0  0  0  0  0  0
  123.6169  106.9037  105.7225 C   0  0  0  0  0  0  0  0  0  0  0  0
  122.1580  107.3002  109.2206 C   0  0  0  0  0  0  0  0  0  0  0  0
  120.7687  109.9504  107.2709 C   0  0  0  0  0  0  0  0  0  0  0  0
  125.4925  107.8403  104.3694 C   0  0  0  0  0  0  0  0  0  0  0  0
  123.3431  106.6362  109.8598 C   0  0  0  0  0  0  0  0  0  0  0  0
  122.5827  107.0413  104.8628 N   0  0  0  0  0  0  0  0  0  0  0  0
  122.2161  108.4105  108.5192 N   0  0  0  0  0  0  0  0  0  0  0  0
  124.7186  107.7809  105.5665 N   0  0  0  0  0  0  0  0  0  0  0  0
  124.5805  106.8714  109.1020 N   0  0  0  0  0  0  0  0  0  0  0  0
  125.0510  104.4526  108.3505 O   0  0  0  0  0  0  0  0  0  0  0  0
  126.1900  106.3523  107.1596 O   0  0  0  0  0  0  0  0  0  0  0  0
  120.6066  106.5880  109.3969 S   0  0  0  0  0  0  0  0  0  0  0  0
  125.0156  105.8138  107.8322 S   0  0  0  0  0  0  0  0  0  0  0  0
  119.9996  104.0801  106.1765 Br  0  0  0  0  0  0  0  0  0  0  0  0
  122.5741  104.3568  107.6680 H   0  0  0  0  0  0  0  0  0  0  0  0
  120.7317  106.3314  104.3256 H   0  0  0  0  0  0  0  0  0  0  0  0
  118.8851  107.9107  108.2407 H   0  0  0  0  0  0  0  0  0  0  0  0
  120.5676  110.8272  107.9078 H   0  0  0  0  0  0  0  0  0  0  0  0
  121.6620  110.1749  106.6635 H   0  0  0  0  0  0  0  0  0  0  0  0
  119.9318  109.8545  106.5582 H   0  0  0  0  0  0  0  0  0  0  0  0
  125.1042  107.1294  103.6354 H   0  0  0  0  0  0  0  0  0  0  0  0
  126.5361  107.5926  104.5813 H   0  0  0  0  0  0  0  0  0  0  0  0
  125.4508  108.8457  103.9418 H   0  0  0  0  0  0  0  0  0  0  0  0
  123.4941  107.0124  110.8775 H   0  0  0  0  0  0  0  0  0  0  0  0
  123.1954  105.5535  109.9319 H   0  0  0  0  0  0  0  0  0  0  0  0
  124.9375  108.3680  106.3454 H   0  0  0  0  0  0  0  0  0  0  0  0
  124.9125  107.8431  109.0717 H   0  0  0  0  0  0  0  0  0  0  0  0
  1  4  1  0  0  0  0
  1  5  2  0  0  0  0
  2  5  1  0  0  0  0
  2 12  2  0  0  0  0
  3  6  2  0  0  0  0
  3 18  1  0  0  0  0
  4  7  2  0  0  0  0
  4 19  1  0  0  0  0
  5 20  1  0  0  0  0
  6  9  1  0  0  0  0
  6 13  1  0  0  0  0
  7 12  1  0  0  0  0
  7 14  1  0  0  0  0
  8 11  1  0  0  0  0
  8 13  2  0  0  0  0
  8 18  1  0  0  0  0
 10 14  1  0  0  0  0
 11 15  1  0  0  0  0
 15 19  1  0  0  0  0
 16 19  2  0  0  0  0
 17 19  2  0  0  0  0
  1 21  1  0  0  0  0
  2 22  1  0  0  0  0
  3 23  1  0  0  0  0
  9 24  1  0  0  0  0
  9 25  1  0  0  0  0
  9 26  1  0  0  0  0
 10 27  1  0  0  0  0
 10 28  1  0  0  0  0
 10 29  1  0  0  0  0
 11 30  1  0  0  0  0
 11 31  1  0  0  0  0
 14 32  1  0  0  0  0
 15 33  1  0  0  0  0
M  END
> <FRED Chemgauss4 score>
-6.754962

$$$$
C00162126	P05572008
  -OEChem-05182014473D

 28 28  0     1  0  0  0  0  0999 V2000
  120.5454  104.3894  106.6836 C   0  0  0  0  0  0  0  0  0  0  0  0
  122.4848  106.3584  105.8886 C   0  0  0  0  0  0  0  0  0  0  0  0
  120.0925  105.7161  106.0892 C   0  0  2  0  0  0  0  0  0  0  0  0
  122.6123  105.6549  107.2330 C   0  0  2  0  0  0  0  0  0  0  0  0
  118.8649  105.5542  105.2074 C   0  0  0  0  0  0  0  0  0  0  0  0
  124.0634  105.3888  107.5994 C   0  0  0  0  0  0  0  0  0  0  0  0
  117.5843  105.5146  106.0256 C   0  0  0  0  0  0  0  0  0  0  0  0
  124.7251  106.6145  108.2085 C   0  0  0  0  0  0  0  0  0  0  0  0
  121.2187  106.2461  105.3345 N   0  0  0  0  0  0  0  0  0  0  0  0
  121.8568  104.4148  107.1331 N   0  0  0  0  0  0  0  0  0  0  0  0
  119.7939  103.4324  106.8542 O   0  0  0  0  0  0  0  0  0  0  0  0
  123.3740  107.0513  105.4000 O   0  0  0  0  0  0  0  0  0  0  0  0
  116.4828  105.3476  105.1437 O   0  0  0  0  0  0  0  0  0  0  0  0
  126.0773  106.3014  108.5122 O   0  0  0  0  0  0  0  0  0  0  0  0
  119.8790  106.4097  106.9108 H   0  0  0  0  0  0  0  0  0  0  0  0
  122.1376  106.2804  107.9978 H   0  0  0  0  0  0  0  0  0  0  0  0
  118.9532  104.6366  104.6148 H   0  0  0  0  0  0  0  0  0  0  0  0
  118.8165  106.3771  104.4852 H   0  0  0  0  0  0  0  0  0  0  0  0
  124.6185  105.0739  106.7084 H   0  0  0  0  0  0  0  0  0  0  0  0
  124.1201  104.5505  108.3030 H   0  0  0  0  0  0  0  0  0  0  0  0
  117.5960  104.6775  106.7309 H   0  0  0  0  0  0  0  0  0  0  0  0
  117.4465  106.4471  106.5822 H   0  0  0  0  0  0  0  0  0  0  0  0
  124.7110  107.4558  107.5082 H   0  0  0  0  0  0  0  0  0  0  0  0
  124.2205  106.9128  109.1331 H   0  0  0  0  0  0  0  0  0  0  0  0
  121.0728  106.5423  104.3739 H   0  0  0  0  0  0  0  0  0  0  0  0
  122.3033  103.5425  107.4004 H   0  0  0  0  0  0  0  0  0  0  0  0
  115.6833  105.3262  105.6943 H   0  0  0  0  0  0  0  0  0  0  0  0
  126.4706  107.1009  108.8979 H   0  0  0  0  0  0  0  0  0  0  0  0
  1  3  1  0  0  0  0
  1 10  1  0  0  0  0
  1 11  2  0  0  0  0
  2  4  1  0  0  0  0
  2  9  1  0  0  0  0
  2 12  2  0  0  0  0
  3  5  1  0  0  0  0
  3  9  1  0  0  0  0
  4  6  1  0  0  0  0
  4 10  1  0  0  0  0
  5  7  1  0  0  0  0
  6  8  1  0  0  0  0
  7 13  1  0  0  0  0
  8 14  1  0  0  0  0
  3 15  1  0  0  0  0
  4 16  1  0  0  0  0
  5 17  1  0  0  0  0
  5 18  1  0  0  0  0
  6 19  1  0  0  0  0
  6 20  1  0  0  0  0
  7 21  1  0  0  0  0
  7 22  1  0  0  0  0
  8 23  1  0  0  0  0
  8 24  1  0  0  0  0
  9 25  1  0  0  0  0
 10 26  1  0  0  0  0
 13 27  1  0  0  0  0
 14 28  1  0  0  0  0
M  END
> <FRED Chemgauss4 score>
-6.753464

$$$$
C80531825	P125774743
  -OEChem-05182014473D

 40 41  0     1  0  0  0  0  0999 V2000
  120.9450  104.3070  102.3602 C   0  0  0  0  0  0  0  0  0  0  0  0
  118.6509  104.9398  102.7771 C   0  0  0  0  0  0  0  0  0  0  0  0
  121.1911  104.2947  103.7331 C   0  0  0  0  0  0  0  0  0  0  0  0
  118.8970  104.9275  104.1501 C   0  0  0  0  0  0  0  0  0  0  0  0
  119.6748  104.6295  101.8822 C   0  0  0  0  0  0  0  0  0  0  0  0
  120.1671  104.6049  104.6280 C   0  0  0  0  0  0  0  0  0  0  0  0
  124.6074  106.2399  106.3390 C   0  0  0  0  0  0  0  0  0  0  0  0
  122.6574  106.8705  105.9427 C   0  0  0  0  0  0  0  0  0  0  0  0
  125.7522  105.6623  107.0528 C   0  0  0  0  0  0  0  0  0  0  0  0
  118.3226  103.6513   99.9800 C   0  0  0  0  0  0  0  0  0  0  0  0
  119.0941  106.8239  107.1778 C   0  0  0  0  0  0  0  0  0  0  0  0
  121.1950  107.2104  105.9541 C   0  0  0  0  0  0  0  0  0  0  0  0
  119.4116  104.6435  100.4143 C   0  0  1  0  0  0  0  0  0  0  0  0
  123.3598  106.2958  106.8913 N   0  0  0  0  0  0  0  0  0  0  0  0
  124.7211  106.7439  105.1084 N   0  0  0  0  0  0  0  0  0  0  0  0
  123.4601  107.1404  104.8784 N   0  0  0  0  0  0  0  0  0  0  0  0
  119.0609  105.9672   99.9280 N   0  0  0  0  0  0  0  0  0  0  0  0
  120.4101  106.2605  106.7830 N   0  0  2  0  0  0  0  0  0  0  0  0
  119.3723  103.8894  106.9997 O   0  0  0  0  0  0  0  0  0  0  0  0
  121.8317  104.0976  106.5617 O   0  0  0  0  0  0  0  0  0  0  0  0
  120.4788  104.5873  106.3713 S   0  0  0  0  0  0  0  0  0  0  0  0
  121.7490  104.0643  101.6705 H   0  0  0  0  0  0  0  0  0  0  0  0
  117.6583  105.1926  102.4138 H   0  0  0  0  0  0  0  0  0  0  0  0
  122.1844  104.0426  104.0950 H   0  0  0  0  0  0  0  0  0  0  0  0
  118.0921  105.1712  104.8384 H   0  0  0  0  0  0  0  0  0  0  0  0
  125.8513  104.5798  106.8522 H   0  0  0  0  0  0  0  0  0  0  0  0
  126.7104  106.1375  106.7687 H   0  0  0  0  0  0  0  0  0  0  0  0
  125.6724  105.7867  108.1496 H   0  0  0  0  0  0  0  0  0  0  0  0
  117.3795  103.8614  100.4963 H   0  0  0  0  0  0  0  0  0  0  0  0
  118.1391  103.7095   98.9012 H   0  0  0  0  0  0  0  0  0  0  0  0
  118.6063  102.6165  100.2027 H   0  0  0  0  0  0  0  0  0  0  0  0
  118.5431  106.1014  107.7853 H   0  0  0  0  0  0  0  0  0  0  0  0
  118.5023  107.0605  106.2893 H   0  0  0  0  0  0  0  0  0  0  0  0
  119.2338  107.7390  107.7596 H   0  0  0  0  0  0  0  0  0  0  0  0
  121.0359  108.2179  106.3538 H   0  0  0  0  0  0  0  0  0  0  0  0
  120.7796  107.1931  104.9411 H   0  0  0  0  0  0  0  0  0  0  0  0
  120.3283  104.3758   99.8596 H   0  0  0  0  0  0  0  0  0  0  0  0
  123.2319  107.5762  103.9926 H   0  0  0  0  0  0  0  0  0  0  0  0
  118.5412  106.0394   99.0763 H   0  0  0  0  0  0  0  0  0  0  0  0
  119.5141  106.7600  100.3364 H   0  0  0  0  0  0  0  0  0  0  0  0
  1  3  2  0  0  0  0
  1  5  1  0  0  0  0
  2  4  1  0  0  0  0
  2  5  2  0  0  0  0
  3  6  1  0  0  0  0
  4  6  2  0  0  0  0
  5 13  1  0  0  0  0
  6 21  1  0  0  0  0
  7  9  1  0  0  0  0
  7 14  1  0  0  0  0
  7 15  2  0  0  0  0
  8 12  1  0  0  0  0
  8 14  2  0  0  0  0
  8 16  1  0  0  0  0
 10 13  1  0  0  0  0
 11 18  1  0  0  0  0
 12 18  1  0  0  0  0
 13 17  1  0  0  0  0
 15 16  1  0  0  0  0
 18 21  1  0  0  0  0
 19 21  2  0  0  0  0
 20 21  2  0  0  0  0
  1 22  1  0  0  0  0
  2 23  1  0  0  0  0
  3 24  1  0  0  0  0
  4 25  1  0  0  0  0
  9 26  1  0  0  0  0
  9 27  1  0  0  0  0
  9 28  1  0  0  0  0
 10 29  1  0  0  0  0
 10 30  1  0  0  0  0
 10 31  1  0  0  0  0
 11 32  1  0  0  0  0
 11 33  1  0  0  0  0
 11 34  1  0  0  0  0
 12 35  1  0  0  0  0
 12 36  1  0  0  0  0
 13 37  1  0  0  0  0
 16 38  1  0  0  0  0
 17 39  1  0  0  0  0
 17 40  1  0  0  0  0
M  END
> <FRED Chemgauss4 score>
-6.750628

$$$$
C82996710	P129767449
  -OEChem-05182014473D

 33 33  0     1  0  0  0  0  0999 V2000
  120.0766  104.1443  104.2081 C   0  0  0  0  0  0  0  0  0  0  0  0
  121.0360  103.5803  102.1301 C   0  0  0  0  0  0  0  0  0  0  0  0
  120.7821  105.0800  102.1572 C   0  0  0  0  0  0  0  0  0  0  0  0
  124.5828  105.4041  108.3543 C   0  0  0  0  0  0  0  0  0  0  0  0
  124.2815  106.8238  106.2931 C   0  0  0  0  0  0  0  0  0  0  0  0
  119.9604  106.6677  103.9504 C   0  0  0  0  0  0  0  0  0  0  0  0
  122.7585  106.8595  106.4095 C   0  0  0  0  0  0  0  0  0  0  0  0
  120.6576  107.0069  105.2572 C   0  0  0  0  0  0  0  0  0  0  0  0
  124.9948  106.6868  107.6434 C   0  0  2  0  0  0  0  0  0  0  0  0
  120.4990  103.0948  103.3758 N   0  0  0  0  0  0  0  0  0  0  0  0
  120.2785  105.3413  103.4940 N   0  0  0  0  0  0  0  0  0  0  0  0
  122.1151  106.9617  105.1289 N   0  0  0  0  0  0  0  0  0  0  0  0
  119.6198  104.0237  105.3372 O   0  0  0  0  0  0  0  0  0  0  0  0
  126.4029  106.6603  107.4274 O   0  0  0  0  0  0  0  0  0  0  0  0
  120.5346  103.0829  101.2956 H   0  0  0  0  0  0  0  0  0  0  0  0
  122.1044  103.3466  102.1019 H   0  0  0  0  0  0  0  0  0  0  0  0
  121.6945  105.6577  101.9826 H   0  0  0  0  0  0  0  0  0  0  0  0
  120.0174  105.3737  101.4312 H   0  0  0  0  0  0  0  0  0  0  0  0
  124.8001  104.5258  107.7364 H   0  0  0  0  0  0  0  0  0  0  0  0
  125.0997  105.2968  109.3127 H   0  0  0  0  0  0  0  0  0  0  0  0
  123.5031  105.3985  108.5392 H   0  0  0  0  0  0  0  0  0  0  0  0
  124.5452  105.9671  105.6599 H   0  0  0  0  0  0  0  0  0  0  0  0
  124.6308  107.7301  105.7834 H   0  0  0  0  0  0  0  0  0  0  0  0
  120.2431  107.3640  103.1544 H   0  0  0  0  0  0  0  0  0  0  0  0
  118.8747  106.7104  104.0814 H   0  0  0  0  0  0  0  0  0  0  0  0
  122.3996  105.9350  106.8733 H   0  0  0  0  0  0  0  0  0  0  0  0
  122.4184  107.6982  107.0241 H   0  0  0  0  0  0  0  0  0  0  0  0
  120.3943  108.0204  105.5750 H   0  0  0  0  0  0  0  0  0  0  0  0
  120.3754  106.3095  106.0524 H   0  0  0  0  0  0  0  0  0  0  0  0
  124.7664  107.5460  108.2832 H   0  0  0  0  0  0  0  0  0  0  0  0
  120.4716  102.1163  103.6443 H   0  0  0  0  0  0  0  0  0  0  0  0
  122.3625  106.1571  104.5417 H   0  0  0  0  0  0  0  0  0  0  0  0
  126.8159  106.5961  108.3026 H   0  0  0  0  0  0  0  0  0  0  0  0
  1 10  1  0  0  0  0
  1 11  1  0  0  0  0
  1 13  2  0  0  0  0
  2  3  1  0  0  0  0
  2 10  1  0  0  0  0
  3 11  1  0  0  0  0
  4  9  1  0  0  0  0
  5  7  1  0  0  0  0
  5  9  1  0  0  0  0
  6  8  1  0  0  0  0
  6 11  1  0  0  0  0
  7 12  1  0  0  0  0
  8 12  1  0  0  0  0
  9 14  1  0  0  0  0
  2 15  1  0  0  0  0
  2 16  1  0  0  0  0
  3 17  1  0  0  0  0
  3 18  1  0  0  0  0
  4 19  1  0  0  0  0
  4 20  1  0  0  0  0
  4 21  1  0  0  0  0
  5 22  1  0  0  0  0
  5 23  1  0  0  0  0
  6 24  1  0  0  0  0
  6 25  1  0  0  0  0
  7 26  1  0  0  0  0
  7 27  1  0  0  0  0
  8 28  1  0  0  0  0
  8 29  1  0  0  0  0
  9 30  1  0  0  0  0
 10 31  1  0  0  0  0
 12 32  1  0  0  0  0
 14 33  1  0  0  0  0
M  END
> <FRED Chemgauss4 score>
-6.749989

$$$$
C39941433	P60608795
  -OEChem-05182014473D

 22 23  0     1  0  0  0  0  0999 V2000
  122.6887  104.9018  109.0671 C   0  0  0  0  0  0  0  0  0  0  0  0
  122.6254  106.0053  108.2137 C   0  0  0  0  0  0  0  0  0  0  0  0
  123.8541  104.1231  109.1454 C   0  0  0  0  0  0  0  0  0  0  0  0
  123.7430  106.3154  107.4555 C   0  0  0  0  0  0  0  0  0  0  0  0
  124.9076  105.5402  107.5378 C   0  0  0  0  0  0  0  0  0  0  0  0
  124.9742  104.4375  108.3728 C   0  0  0  0  0  0  0  0  0  0  0  0
  125.9619  106.0525  106.6083 C   0  0  0  0  0  0  0  0  0  0  0  0
  123.9016  107.4194  106.4523 C   0  0  1  0  0  0  0  0  0  0  0  0
  125.4421  107.4743  106.3263 C   0  0  2  0  0  0  0  0  0  0  0  0
  123.2357  107.0944  105.2177 N   0  0  0  0  0  0  0  0  0  0  0  0
  125.8763  107.9498  105.0657 O   0  0  0  0  0  0  0  0  0  0  0  0
  126.0819  103.6897  108.4442 F   0  0  0  0  0  0  0  0  0  0  0  0
  121.8313  104.6465  109.6835 H   0  0  0  0  0  0  0  0  0  0  0  0
  121.7213  106.6006  108.1562 H   0  0  0  0  0  0  0  0  0  0  0  0
  123.8871  103.2717  109.8200 H   0  0  0  0  0  0  0  0  0  0  0  0
  126.9243  106.0794  107.1297 H   0  0  0  0  0  0  0  0  0  0  0  0
  126.0298  105.4456  105.7003 H   0  0  0  0  0  0  0  0  0  0  0  0
  123.5142  108.3220  106.8752 H   0  0  0  0  0  0  0  0  0  0  0  0
  125.8644  108.1968  107.0894 H   0  0  0  0  0  0  0  0  0  0  0  0
  123.5524  107.5337  104.3776 H   0  0  0  0  0  0  0  0  0  0  0  0
  122.3631  106.6087  105.2628 H   0  0  0  0  0  0  0  0  0  0  0  0
  126.8443  107.9504  105.0945 H   0  0  0  0  0  0  0  0  0  0  0  0
  1  2  1  0  0  0  0
  1  3  2  0  0  0  0
  2  4  2  0  0  0  0
  3  6  1  0  0  0  0
  4  5  1  0  0  0  0
  4  8  1  0  0  0  0
  5  6  2  0  0  0  0
  5  7  1  0  0  0  0
  6 12  1  0  0  0  0
  7  9  1  0  0  0  0
  8  9  1  0  0  0  0
  8 10  1  0  0  0  0
  9 11  1  0  0  0  0
  1 13  1  0  0  0  0
  2 14  1  0  0  0  0
  3 15  1  0  0  0  0
  7 16  1  0  0  0  0
  7 17  1  0  0  0  0
  8 18  1  0  0  0  0
  9 19  1  0  0  0  0
 10 20  1  0  0  0  0
 10 21  1  0  0  0  0
 11 22  1  0  0  0  0
M  END
> <FRED Chemgauss4 score>
-6.749690

$$$$
C77293168	P120587004
  -OEChem-05182014473D

 28 28  0     1  0  0  0  0  0999 V2000
  124.8275  107.0222  106.0703 C   0  0  1  0  0  0  0  0  0  0  0  0
  123.4186  106.4817  105.7834 C   0  0  1  0  0  0  0  0  0  0  0  0
  125.6760  105.9784  106.7880 C   0  0  2  0  0  0  0  0  0  0  0  0
  123.0538  105.2957  106.6932 C   0  0  2  0  0  0  0  0  0  0  0  0
  124.9908  105.5007  108.0775 C   0  0  1  0  0  0  0  0  0  0  0  0
  120.9243  105.9694  107.8406 C   0  0  0  0  0  0  0  0  0  0  0  0
  121.5537  105.0537  106.8029 C   0  0  2  0  0  0  0  0  0  0  0  0
  123.5623  105.5374  108.0059 O   0  0  0  0  0  0  0  0  0  0  0  0
  125.4575  107.3598  104.8342 O   0  0  0  0  0  0  0  0  0  0  0  0
  122.4980  107.5615  105.9564 O   0  0  0  0  0  0  0  0  0  0  0  0
  126.9565  106.5205  107.1118 O   0  0  0  0  0  0  0  0  0  0  0  0
  125.4566  104.1819  108.3632 O   0  0  0  0  0  0  0  0  0  0  0  0
  121.1886  105.4399  109.1354 O   0  0  0  0  0  0  0  0  0  0  0  0
  121.3406  103.7027  107.1996 O   0  0  0  0  0  0  0  0  0  0  0  0
  124.7733  107.9561  106.6499 H   0  0  0  0  0  0  0  0  0  0  0  0
  123.3704  106.1790  104.7369 H   0  0  0  0  0  0  0  0  0  0  0  0
  125.8537  105.1178  106.1215 H   0  0  0  0  0  0  0  0  0  0  0  0
  123.5035  104.4076  106.3265 H   0  0  0  0  0  0  0  0  0  0  0  0
  125.3346  106.1313  108.9380 H   0  0  0  0  0  0  0  0  0  0  0  0
  121.3525  106.9762  107.7954 H   0  0  0  0  0  0  0  0  0  0  0  0
  119.8389  106.0277  107.7127 H   0  0  0  0  0  0  0  0  0  0  0  0
  121.0787  105.1941  105.8289 H   0  0  0  0  0  0  0  0  0  0  0  0
  125.4943  106.5426  104.3154 H   0  0  0  0  0  0  0  0  0  0  0  0
  122.7547  108.2495  105.3223 H   0  0  0  0  0  0  0  0  0  0  0  0
  126.7934  107.2827  107.6876 H   0  0  0  0  0  0  0  0  0  0  0  0
  125.0109  103.9056  109.1778 H   0  0  0  0  0  0  0  0  0  0  0  0
  120.7757  106.0443  109.7722 H   0  0  0  0  0  0  0  0  0  0  0  0
  121.7789  103.5933  108.0580 H   0  0  0  0  0  0  0  0  0  0  0  0
  1  2  1  0  0  0  0
  1  3  1  0  0  0  0
  1  9  1  0  0  0  0
  2  4  1  0  0  0  0
  2 10  1  0  0  0  0
  3  5  1  0  0  0  0
  3 11  1  0  0  0  0
  4  7  1  0  0  0  0
  4  8  1  0  0  0  0
  5  8  1  0  0  0  0
  5 12  1  0  0  0  0
  6  7  1  0  0  0  0
  6 13  1  0  0  0  0
  7 14  1  0  0  0  0
  1 15  1  0  0  0  0
  2 16  1  0  0  0  0
  3 17  1  0  0  0  0
  4 18  1  0  0  0  0
  5 19  1  0  0  0  0
  6 20  1  0  0  0  0
  6 21  1  0  0  0  0
  7 22  1  0  0  0  0
  9 23  1  0  0  0  0
 10 24  1  0  0  0  0
 11 25  1  0  0  0  0
 12 26  1  0  0  0  0
 13 27  1  0  0  0  0
 14 28  1  0  0  0  0
M  END
> <FRED Chemgauss4 score>
-6.746644

$$$$
C54138565	P81447022
  -OEChem-05182014473D

 21 20  0     0  0  0  0  0  0999 V2000
  118.8607  104.4556  106.1078 C   0  0  0  0  0  0  0  0  0  0  0  0
  123.1173  106.9290  105.8326 C   0  0  0  0  0  0  0  0  0  0  0  0
  119.9505  103.4973  106.3380 C   0  0  0  0  0  0  0  0  0  0  0  0
  124.5689  107.3319  105.7808 C   0  0  0  0  0  0  0  0  0  0  0  0
  121.3118  104.1367  106.0553 C   0  0  0  0  0  0  0  0  0  0  0  0
  121.6141  105.3079  106.9843 C   0  0  0  0  0  0  0  0  0  0  0  0
  117.9989  105.2111  105.9270 N   0  0  0  0  0  0  0  0  0  0  0  0
  124.7413  108.4324  104.8212 N   0  0  0  0  0  0  0  0  0  0  0  0
  122.9117  105.8916  106.7308 N   0  0  0  0  0  0  0  0  0  0  0  0
  122.2424  107.4660  105.1583 O   0  0  0  0  0  0  0  0  0  0  0  0
  119.9058  103.1432  107.3739 H   0  0  0  0  0  0  0  0  0  0  0  0
  119.8092  102.6232  105.6917 H   0  0  0  0  0  0  0  0  0  0  0  0
  124.8949  107.6632  106.7711 H   0  0  0  0  0  0  0  0  0  0  0  0
  125.1790  106.4807  105.4646 H   0  0  0  0  0  0  0  0  0  0  0  0
  121.3550  104.4706  105.0104 H   0  0  0  0  0  0  0  0  0  0  0  0
  122.0992  103.3819  106.1777 H   0  0  0  0  0  0  0  0  0  0  0  0
  120.8644  106.0990  106.8836 H   0  0  0  0  0  0  0  0  0  0  0  0
  121.6140  104.9694  108.0252 H   0  0  0  0  0  0  0  0  0  0  0  0
  125.6417  108.5576  104.4231 H   0  0  0  0  0  0  0  0  0  0  0  0
  124.0219  109.1140  104.7702 H   0  0  0  0  0  0  0  0  0  0  0  0
  123.7131  105.5241  107.2354 H   0  0  0  0  0  0  0  0  0  0  0  0
  1  3  1  0  0  0  0
  1  7  3  0  0  0  0
  2  4  1  0  0  0  0
  2  9  1  0  0  0  0
  2 10  2  0  0  0  0
  3  5  1  0  0  0  0
  4  8  1  0  0  0  0
  5  6  1  0  0  0  0
  6  9  1  0  0  0  0
  3 11  1  0  0  0  0
  3 12  1  0  0  0  0
  4 13  1  0  0  0  0
  4 14  1  0  0  0  0
  5 15  1  0  0  0  0
  5 16  1  0  0  0  0
  6 17  1  0  0  0  0
  6 18  1  0  0  0  0
  8 19  1  0  0  0  0
  8 20  1  0  0  0  0
  9 21  1  0  0  0  0
M  END
> <FRED Chemgauss4 score>
-6.743800

$$$$
C22062005	P32835722
  -OEChem-05182014473D

 24 24  0     1  0  0  0  0  0999 V2000
  123.6365  106.3945  105.9464 C   0  0  1  0  0  0  0  0  0  0  0  0
  125.1074  106.6256  105.5632 C   0  0  2  0  0  0  0  0  0  0  0  0
  125.7563  107.1495  106.8470 C   0  0  2  0  0  0  0  0  0  0  0  0
  125.0441  106.3678  107.9716 C   0  0  2  0  0  0  0  0  0  0  0  0
  123.8135  105.6937  107.3093 C   0  0  1  0  0  0  0  0  0  0  0  0
  122.8283  104.2424  109.4106 C   0  0  0  0  0  0  0  0  0  0  0  0
  122.8812  107.6468  106.0098 N   0  0  0  0  0  0  0  0  0  0  0  0
  125.2788  107.5036  104.4689 O   0  0  0  0  0  0  0  0  0  0  0  0
  125.5333  108.5491  106.9870 O   0  0  0  0  0  0  0  0  0  0  0  0
  124.7240  107.2288  109.0514 O   0  0  0  0  0  0  0  0  0  0  0  0
  122.3109  105.5931  108.3290 S   0  0  0  0  0  0  0  0  0  0  0  0
  123.1953  105.7373  105.2749 H   0  0  0  0  0  0  0  0  0  0  0  0
  125.5989  105.6447  105.2508 H   0  0  0  0  0  0  0  0  0  0  0  0
  126.8113  106.9560  106.8533 H   0  0  0  0  0  0  0  0  0  0  0  0
  125.7465  105.5912  108.3935 H   0  0  0  0  0  0  0  0  0  0  0  0
  124.0783  104.6449  107.0807 H   0  0  0  0  0  0  0  0  0  0  0  0
  122.0356  104.0160  110.1279 H   0  0  0  0  0  0  0  0  0  0  0  0
  123.7311  104.5287  109.9558 H   0  0  0  0  0  0  0  0  0  0  0  0
  123.0378  103.3500  108.8158 H   0  0  0  0  0  0  0  0  0  0  0  0
  122.0795  107.6873  106.6050 H   0  0  0  0  0  0  0  0  0  0  0  0
  123.0609  108.3443  105.3170 H   0  0  0  0  0  0  0  0  0  0  0  0
  124.8176  107.1019  103.7159 H   0  0  0  0  0  0  0  0  0  0  0  0
  125.9302  108.9838  106.2117 H   0  0  0  0  0  0  0  0  0  0  0  0
  124.2822  106.6821  109.7198 H   0  0  0  0  0  0  0  0  0  0  0  0
  1  2  1  0  0  0  0
  1  5  1  0  0  0  0
  1  7  1  0  0  0  0
  2  3  1  0  0  0  0
  2  8  1  0  0  0  0
  3  4  1  0  0  0  0
  3  9  1  0  0  0  0
  4  5  1  0  0  0  0
  4 10  1  0  0  0  0
  5 11  1  0  0  0  0
  6 11  1  0  0  0  0
  1 12  1  0  0  0  0
  2 13  1  0  0  0  0
  3 14  1  0  0  0  0
  4 15  1  0  0  0  0
  5 16  1  0  0  0  0
  6 17  1  0  0  0  0
  6 18  1  0  0  0  0
  6 19  1  0  0  0  0
  7 20  1  0  0  0  0
  7 21  1  0  0  0  0
  8 22  1  0  0  0  0
  9 23  1  0  0  0  0
 10 24  1  0  0  0  0
M  END
> <FRED Chemgauss4 score>
-6.741991

$$$$
C83676414	P130905360
  -OEChem-05182014473D

 37 37  0     1  0  0  0  0  0999 V2000
  121.4233  104.4036  105.3039 C   0  0  0  0  0  0  0  0  0  0  0  0
  119.9392  106.1789  105.9991 C   0  0  0  0  0  0  0  0  0  0  0  0
  122.1896  105.3941  104.4184 C   0  0  0  0  0  0  0  0  0  0  0  0
  120.7081  107.1660  105.1121 C   0  0  0  0  0  0  0  0  0  0  0  0
  125.3012  107.5228  106.7931 C   0  0  0  0  0  0  0  0  0  0  0  0
  117.7889  103.9052  106.0574 C   0  0  0  0  0  0  0  0  0  0  0  0
  119.2952  103.8757  106.3080 C   0  0  0  0  0  0  0  0  0  0  0  0
  122.9502  107.0361  106.0407 C   0  0  0  0  0  0  0  0  0  0  0  0
  117.3973  103.5835  104.6168 C   0  0  0  0  0  0  0  0  0  0  0  0
  124.3940  107.2609  105.5984 C   0  0  1  0  0  0  0  0  0  0  0  0
  120.0238  104.8167  105.4597 N   0  0  0  0  0  0  0  0  0  0  0  0
  122.1064  106.7875  104.8736 N   0  0  0  0  0  0  0  0  0  0  0  0
  117.9431  104.5211  103.6740 N   0  0  0  0  0  0  0  0  0  0  0  0
  124.4350  108.3970  104.7369 O   0  0  0  0  0  0  0  0  0  0  0  0
  121.4892  103.3960  104.8718 H   0  0  0  0  0  0  0  0  0  0  0  0
  121.9118  104.3703  106.2852 H   0  0  0  0  0  0  0  0  0  0  0  0
  120.3763  106.2075  107.0045 H   0  0  0  0  0  0  0  0  0  0  0  0
  118.8930  106.5015  106.0884 H   0  0  0  0  0  0  0  0  0  0  0  0
  123.2515  105.0724  104.3428 H   0  0  0  0  0  0  0  0  0  0  0  0
  121.7836  105.3181  103.3885 H   0  0  0  0  0  0  0  0  0  0  0  0
  120.1760  107.2403  104.1412 H   0  0  0  0  0  0  0  0  0  0  0  0
  120.6511  108.1825  105.5600 H   0  0  0  0  0  0  0  0  0  0  0  0
  124.9554  108.3830  107.3744 H   0  0  0  0  0  0  0  0  0  0  0  0
  125.3457  106.6477  107.4510 H   0  0  0  0  0  0  0  0  0  0  0  0
  126.3264  107.7183  106.4604 H   0  0  0  0  0  0  0  0  0  0  0  0
  117.4098  104.8998  106.3225 H   0  0  0  0  0  0  0  0  0  0  0  0
  117.2968  103.1852  106.7226 H   0  0  0  0  0  0  0  0  0  0  0  0
  119.5331  104.1110  107.3498 H   0  0  0  0  0  0  0  0  0  0  0  0
  119.6899  102.8786  106.0881 H   0  0  0  0  0  0  0  0  0  0  0  0
  122.8790  106.1742  106.7129 H   0  0  0  0  0  0  0  0  0  0  0  0
  122.5657  107.9154  106.5677 H   0  0  0  0  0  0  0  0  0  0  0  0
  116.3087  103.6225  104.5092 H   0  0  0  0  0  0  0  0  0  0  0  0
  117.7302  102.5829  104.3245 H   0  0  0  0  0  0  0  0  0  0  0  0
  124.7627  106.3960  105.0350 H   0  0  0  0  0  0  0  0  0  0  0  0
  117.9979  105.4958  103.9248 H   0  0  0  0  0  0  0  0  0  0  0  0
  118.0722  104.2364  102.7156 H   0  0  0  0  0  0  0  0  0  0  0  0
  125.3588  108.5004  104.4619 H   0  0  0  0  0  0  0  0  0  0  0  0
  1  3  1  0  0  0  0
  1 11  1  0  0  0  0
  2  4  1  0  0  0  0
  2 11  1  0  0  0  0
  3 12  1  0  0  0  0
  4 12  1  0  0  0  0
  5 10  1  0  0  0  0
  6  7  1  0  0  0  0
  6  9  1  0  0  0  0
  7 11  1  0  0  0  0
  8 10  1  0  0  0  0
  8 12  1  0  0  0  0
  9 13  1  0  0  0  0
 10 14  1  0  0  0  0
  1 15  1  0  0  0  0
  1 16  1  0  0  0  0
  2 17  1  0  0  0  0
  2 18  1  0  0  0  0
  3 19  1  0  0  0  0
  3 20  1  0  0  0  0
  4 21  1  0  0  0  0
  4 22  1  0  0  0  0
  5 23  1  0  0  0  0
  5 24  1  0  0  0  0
  5 25  1  0  0  0  0
  6 26  1  0  0  0  0
  6 27  1  0  0  0  0
  7 28  1  0  0  0  0
  7 29  1  0  0  0  0
  8 30  1  0  0  0  0
  8 31  1  0  0  0  0
  9 32  1  0  0  0  0
  9 33  1  0  0  0  0
 10 34  1  0  0  0  0
 13 35  1  0  0  0  0
 13 36  1  0  0  0  0
 14 37  1  0  0  0  0
M  END
> <FRED Chemgauss4 score>
-6.740518

$$$$
C85619496	P134078010
  -OEChem-05182014473D

 32 32  0     1  0  0  0  0  0999 V2000
  122.5597  106.0694  106.0357 C   0  0  0  0  0  0  0  0  0  0  0  0
  118.2849  103.8035  104.9633 C   0  0  0  0  0  0  0  0  0  0  0  0
  119.8879  105.4468  104.2820 C   0  0  0  0  0  0  0  0  0  0  0  0
  118.4601  104.2485  106.4094 C   0  0  0  0  0  0  0  0  0  0  0  0
  120.0456  105.9058  105.7348 C   0  0  2  0  0  0  0  0  0  0  0  0
  123.7582  104.4955  107.5703 C   0  0  0  0  0  0  0  0  0  0  0  0
  121.2849  105.3340  106.4216 C   0  0  0  0  0  0  0  0  0  0  0  0
  125.0405  106.2180  106.3619 C   0  0  0  0  0  0  0  0  0  0  0  0
  125.2967  107.3380  107.3536 C   0  0  0  0  0  0  0  0  0  0  0  0
  119.5166  104.0327  104.2074 N   0  0  0  0  0  0  0  0  0  0  0  0
  123.7391  105.6117  106.6328 N   0  0  0  0  0  0  0  0  0  0  0  0
  122.5224  107.0120  105.2403 O   0  0  0  0  0  0  0  0  0  0  0  0
  118.8553  105.6190  106.4801 O   0  0  0  0  0  0  0  0  0  0  0  0
  126.5791  107.9014  107.1088 O   0  0  0  0  0  0  0  0  0  0  0  0
  118.0274  102.7374  104.9258 H   0  0  0  0  0  0  0  0  0  0  0  0
  117.4636  104.3605  104.4997 H   0  0  0  0  0  0  0  0  0  0  0  0
  119.1139  106.0471  103.7809 H   0  0  0  0  0  0  0  0  0  0  0  0
  120.8259  105.6025  103.7244 H   0  0  0  0  0  0  0  0  0  0  0  0
  117.5382  104.1044  106.9919 H   0  0  0  0  0  0  0  0  0  0  0  0
  119.2446  103.6511  106.8910 H   0  0  0  0  0  0  0  0  0  0  0  0
  120.1617  107.0396  105.7368 H   0  0  0  0  0  0  0  0  0  0  0  0
  123.9048  103.5554  107.0321 H   0  0  0  0  0  0  0  0  0  0  0  0
  122.8125  104.4444  108.1166 H   0  0  0  0  0  0  0  0  0  0  0  0
  124.5722  104.6198  108.2895 H   0  0  0  0  0  0  0  0  0  0  0  0
  121.3853  104.2807  106.1409 H   0  0  0  0  0  0  0  0  0  0  0  0
  121.1489  105.4070  107.5054 H   0  0  0  0  0  0  0  0  0  0  0  0
  125.0372  106.5919  105.3331 H   0  0  0  0  0  0  0  0  0  0  0  0
  125.8053  105.4415  106.4584 H   0  0  0  0  0  0  0  0  0  0  0  0
  125.2904  106.9434  108.3744 H   0  0  0  0  0  0  0  0  0  0  0  0
  124.5434  108.1283  107.2718 H   0  0  0  0  0  0  0  0  0  0  0  0
  120.2654  103.4637  104.5972 H   0  0  0  0  0  0  0  0  0  0  0  0
  126.7024  108.6097  107.7610 H   0  0  0  0  0  0  0  0  0  0  0  0
  1  7  1  0  0  0  0
  1 11  1  0  0  0  0
  1 12  2  0  0  0  0
  2  4  1  0  0  0  0
  2 10  1  0  0  0  0
  3  5  1  0  0  0  0
  3 10  1  0  0  0  0
  4 13  1  0  0  0  0
  5  7  1  0  0  0  0
  5 13  1  0  0  0  0
  6 11  1  0  0  0  0
  8  9  1  0  0  0  0
  8 11  1  0  0  0  0
  9 14  1  0  0  0  0
  2 15  1  0  0  0  0
  2 16  1  0  0  0  0
  3 17  1  0  0  0  0
  3 18  1  0  0  0  0
  4 19  1  0  0  0  0
  4 20  1  0  0  0  0
  5 21  1  0  0  0  0
  6 22  1  0  0  0  0
  6 23  1  0  0  0  0
  6 24  1  0  0  0  0
  7 25  1  0  0  0  0
  7 26  1  0  0  0  0
  8 27  1  0  0  0  0
  8 28  1  0  0  0  0
  9 29  1  0  0  0  0
  9 30  1  0  0  0  0
 10 31  1  0  0  0  0
 14 32  1  0  0  0  0
M  END
> <FRED Chemgauss4 score>
-6.739599

$$$$
C50141891	P128496873
  -OEChem-05182014473D

 23 22  0     0  0  0  0  0  0999 V2000
  124.3965  106.2535  105.8113 C   0  0  0  0  0  0  0  0  0  0  0  0
  124.7039  107.5321  105.5274 C   0  0  0  0  0  0  0  0  0  0  0  0
  122.3209  105.3390  106.5765 C   0  0  0  0  0  0  0  0  0  0  0  0
  124.4168  105.1349  107.9274 C   0  0  0  0  0  0  0  0  0  0  0  0
  121.3487  106.4199  106.1467 C   0  0  0  0  0  0  0  0  0  0  0  0
  125.6836  105.8767  108.3058 C   0  0  0  0  0  0  0  0  0  0  0  0
  123.6199  105.9715  106.9734 N   0  3  0  0  0  0  0  0  0  0  0  0
  125.3632  108.0393  104.5817 O   0  5  0  0  0  0  0  0  0  0  0  0
  121.8714  107.1087  105.0184 O   0  0  0  0  0  0  0  0  0  0  0  0
  126.4618  105.0730  109.1828 O   0  0  0  0  0  0  0  0  0  0  0  0
  124.7212  105.4296  105.1843 H   0  0  0  0  0  0  0  0  0  0  0  0
  124.3047  108.2442  106.2533 H   0  0  0  0  0  0  0  0  0  0  0  0
  122.5517  104.6451  105.7633 H   0  0  0  0  0  0  0  0  0  0  0  0
  121.9577  104.7930  107.4512 H   0  0  0  0  0  0  0  0  0  0  0  0
  123.7716  104.9537  108.7917 H   0  0  0  0  0  0  0  0  0  0  0  0
  124.6365  104.1956  107.4130 H   0  0  0  0  0  0  0  0  0  0  0  0
  120.3958  105.9678  105.8545 H   0  0  0  0  0  0  0  0  0  0  0  0
  121.1644  107.1408  106.9498 H   0  0  0  0  0  0  0  0  0  0  0  0
  126.2804  106.0740  107.4098 H   0  0  0  0  0  0  0  0  0  0  0  0
  125.4627  106.8294  108.7980 H   0  0  0  0  0  0  0  0  0  0  0  0
  123.4002  106.8586  107.4481 H   0  0  0  0  0  0  0  0  0  0  0  0
  121.2202  107.7877  104.7787 H   0  0  0  0  0  0  0  0  0  0  0  0
  127.2586  105.5843  109.3979 H   0  0  0  0  0  0  0  0  0  0  0  0
  1  2  2  0  0  0  0
  1  7  1  0  0  0  0
  2  8  1  0  0  0  0
  3  5  1  0  0  0  0
  3  7  1  0  0  0  0
  4  6  1  0  0  0  0
  4  7  1  0  0  0  0
  5  9  1  0  0  0  0
  6 10  1  0  0  0  0
  1 11  1  0  0  0  0
  2 12  1  0  0  0  0
  3 13  1  0  0  0  0
  3 14  1  0  0  0  0
  4 15  1  0  0  0  0
  4 16  1  0  0  0  0
  5 17  1  0  0  0  0
  5 18  1  0  0  0  0
  6 19  1  0  0  0  0
  6 20  1  0  0  0  0
  7 21  1  0  0  0  0
  9 22  1  0  0  0  0
 10 23  1  0  0  0  0
M  CHG  2   7   1   8  -1
M  END
> <FRED Chemgauss4 score>
-6.737792

$$$$
C04329332	P05730540
  -OEChem-05182014473D

 23 23  0     1  0  0  0  0  0999 V2000
  125.6754  106.1934  107.6435 C   0  0  2  0  0  0  0  0  0  0  0  0
  125.2531  107.5712  107.1369 C   0  0  2  0  0  0  0  0  0  0  0  0
  124.4783  105.2540  107.7056 C   0  0  2  0  0  0  0  0  0  0  0  0
  123.7380  105.2350  106.3704 C   0  0  1  0  0  0  0  0  0  0  0  0
  124.4412  107.4526  105.8442 C   0  0  1  0  0  0  0  0  0  0  0  0
  122.4810  104.3790  106.4429 C   0  0  0  0  0  0  0  0  0  0  0  0
  123.3385  106.5640  106.0189 O   0  0  0  0  0  0  0  0  0  0  0  0
  126.2523  106.3220  108.9390 O   0  0  0  0  0  0  0  0  0  0  0  0
  126.4157  108.3641  106.8982 O   0  0  0  0  0  0  0  0  0  0  0  0
  123.9636  108.7541  105.5065 O   0  0  0  0  0  0  0  0  0  0  0  0
  121.6281  104.9086  107.4428 O   0  0  0  0  0  0  0  0  0  0  0  0
  123.6214  105.7176  108.6630 F   0  0  0  0  0  0  0  0  0  0  0  0
  126.4495  105.7802  106.9853 H   0  0  0  0  0  0  0  0  0  0  0  0
  124.6665  108.0919  107.9129 H   0  0  0  0  0  0  0  0  0  0  0  0
  124.7857  104.2494  108.0137 H   0  0  0  0  0  0  0  0  0  0  0  0
  124.3884  104.8414  105.5794 H   0  0  0  0  0  0  0  0  0  0  0  0
  125.0731  107.1083  105.0156 H   0  0  0  0  0  0  0  0  0  0  0  0
  122.7411  103.3513  106.7016 H   0  0  0  0  0  0  0  0  0  0  0  0
  121.9608  104.3937  105.4838 H   0  0  0  0  0  0  0  0  0  0  0  0
  126.5044  105.4285  109.2202 H   0  0  0  0  0  0  0  0  0  0  0  0
  126.9367  107.8928  106.2306 H   0  0  0  0  0  0  0  0  0  0  0  0
  123.4541  108.6555  104.6879 H   0  0  0  0  0  0  0  0  0  0  0  0
  120.8360  104.3457  107.4683 H   0  0  0  0  0  0  0  0  0  0  0  0
  1  2  1  0  0  0  0
  1  3  1  0  0  0  0
  1  8  1  0  0  0  0
  2  5  1  0  0  0  0
  2  9  1  0  0  0  0
  3  4  1  0  0  0  0
  3 12  1  0  0  0  0
  4  6  1  0  0  0  0
  4  7  1  0  0  0  0
  5  7  1  0  0  0  0
  5 10  1  0  0  0  0
  6 11  1  0  0  0  0
  1 13  1  0  0  0  0
  2 14  1  0  0  0  0
  3 15  1  0  0  0  0
  4 16  1  0  0  0  0
  5 17  1  0  0  0  0
  6 18  1  0  0  0  0
  6 19  1  0  0  0  0
  8 20  1  0  0  0  0
  9 21  1  0  0  0  0
 10 22  1  0  0  0  0
 11 23  1  0  0  0  0
M  END
> <FRED Chemgauss4 score>
-6.734172

$$$$
C05600631	P89906419
  -OEChem-05182014473D

 24 24  0     1  0  0  0  0  0999 V2000
  124.0014  104.5332  108.6037 C   0  0  0  0  0  0  0  0  0  0  0  0
  125.5030  104.4184  108.4442 C   0  0  1  0  0  0  0  0  0  0  0  0
  125.9483  105.8730  108.4202 C   0  0  1  0  0  0  0  0  0  0  0  0
  124.7760  106.6051  107.7524 C   0  0  1  0  0  0  0  0  0  0  0  0
  123.9750  107.8426  105.7102 C   0  0  0  0  0  0  0  0  0  0  0  0
  125.1198  107.0574  106.3355 C   0  0  1  0  0  0  0  0  0  0  0  0
  123.6454  105.6480  107.7211 N   0  0  0  0  0  0  0  0  0  0  0  0
  126.1059  103.6917  109.4942 O   0  0  0  0  0  0  0  0  0  0  0  0
  126.1264  106.3752  109.7438 O   0  0  0  0  0  0  0  0  0  0  0  0
  122.9812  106.9279  105.2602 O   0  0  0  0  0  0  0  0  0  0  0  0
  126.2677  107.9018  106.3888 O   0  0  0  0  0  0  0  0  0  0  0  0
  123.5157  103.6267  108.2456 H   0  0  0  0  0  0  0  0  0  0  0  0
  123.6958  104.7417  109.6249 H   0  0  0  0  0  0  0  0  0  0  0  0
  125.7816  103.9038  107.4843 H   0  0  0  0  0  0  0  0  0  0  0  0
  126.8683  105.9936  107.8664 H   0  0  0  0  0  0  0  0  0  0  0  0
  124.4860  107.4780  108.3266 H   0  0  0  0  0  0  0  0  0  0  0  0
  123.5088  108.5133  106.4395 H   0  0  0  0  0  0  0  0  0  0  0  0
  124.3184  108.4223  104.8477 H   0  0  0  0  0  0  0  0  0  0  0  0
  125.3739  106.1948  105.7110 H   0  0  0  0  0  0  0  0  0  0  0  0
  123.4862  105.3067  106.7801 H   0  0  0  0  0  0  0  0  0  0  0  0
  125.7114  102.8055  109.4806 H   0  0  0  0  0  0  0  0  0  0  0  0
  126.4091  107.3028  109.6636 H   0  0  0  0  0  0  0  0  0  0  0  0
  122.2704  107.4602  104.8694 H   0  0  0  0  0  0  0  0  0  0  0  0
  126.9828  107.3706  106.7713 H   0  0  0  0  0  0  0  0  0  0  0  0
  1  2  1  0  0  0  0
  1  7  1  0  0  0  0
  2  3  1  0  0  0  0
  2  8  1  0  0  0  0
  3  4  1  0  0  0  0
  3  9  1  0  0  0  0
  4  6  1  0  0  0  0
  4  7  1  0  0  0  0
  5  6  1  0  0  0  0
  5 10  1  0  0  0  0
  6 11  1  0  0  0  0
  1 12  1  0  0  0  0
  1 13  1  0  0  0  0
  2 14  1  0  0  0  0
  3 15  1  0  0  0  0
  4 16  1  0  0  0  0
  5 17  1  0  0  0  0
  5 18  1  0  0  0  0
  6 19  1  0  0  0  0
  7 20  1  0  0  0  0
  8 21  1  0  0  0  0
  9 22  1  0  0  0  0
 10 23  1  0  0  0  0
 11 24  1  0  0  0  0
M  END
> <FRED Chemgauss4 score>
-6.734141

$$$$
C97762331	P155116902
  -OEChem-05182014473D

 45 45  0     1  0  0  0  0  0999 V2000
  119.4882  104.2916  104.3729 C   0  0  0  0  0  0  0  0  0  0  0  0
  120.5245  105.1841  105.0511 C   0  0  0  0  0  0  0  0  0  0  0  0
  118.1735  105.0328  104.1588 C   0  0  0  0  0  0  0  0  0  0  0  0
  118.6420  106.4890  106.1068 C   0  0  0  0  0  0  0  0  0  0  0  0
  119.9706  105.7662  106.3583 C   0  0  2  0  0  0  0  0  0  0  0  0
  123.1135  108.2957  108.3403 C   0  0  0  0  0  0  0  0  0  0  0  0
  125.1321  105.1928  106.5342 C   0  0  0  0  0  0  0  0  0  0  0  0
  115.2581  104.5407  105.9117 C   0  0  0  0  0  0  0  0  0  0  0  0
  120.9845  106.7094  107.0015 C   0  0  0  0  0  0  0  0  0  0  0  0
  122.1387  105.9742  107.7119 C   0  0  1  0  0  0  0  0  0  0  0  0
  123.3931  106.8519  107.9311 C   0  0  1  0  0  0  0  0  0  0  0  0
  117.6732  105.5500  105.4656 N   0  0  1  0  0  0  0  0  0  0  0  0
  122.5932  104.3972  109.3773 N   0  0  0  0  0  0  0  0  0  0  0  0
  121.6988  105.4419  109.0073 N   0  0  0  0  0  0  0  0  0  0  0  0
  123.6023  106.9349  105.3269 O   0  0  0  0  0  0  0  0  0  0  0  0
  125.5266  107.7692  106.7315 O   0  0  0  0  0  0  0  0  0  0  0  0
  115.6546  106.3943  104.1133 O   0  0  0  0  0  0  0  0  0  0  0  0
  115.8525  107.0016  106.5582 O   0  0  0  0  0  0  0  0  0  0  0  0
  124.4486  106.8304  106.4977 S   0  0  0  0  0  0  0  0  0  0  0  0
  116.0398  106.0701  105.4686 S   0  0  0  0  0  0  0  0  0  0  0  0
  119.8762  103.9393  103.4108 H   0  0  0  0  0  0  0  0  0  0  0  0
  119.3128  103.4051  104.9951 H   0  0  0  0  0  0  0  0  0  0  0  0
  121.4318  104.6024  105.2519 H   0  0  0  0  0  0  0  0  0  0  0  0
  120.8085  105.9951  104.3683 H   0  0  0  0  0  0  0  0  0  0  0  0
  118.3072  105.8655  103.4587 H   0  0  0  0  0  0  0  0  0  0  0  0
  117.4388  104.3393  103.7355 H   0  0  0  0  0  0  0  0  0  0  0  0
  118.2295  106.8306  107.0632 H   0  0  0  0  0  0  0  0  0  0  0  0
  118.7841  107.3646  105.4619 H   0  0  0  0  0  0  0  0  0  0  0  0
  119.7888  104.9352  107.0534 H   0  0  0  0  0  0  0  0  0  0  0  0
  122.4995  108.8143  107.5982 H   0  0  0  0  0  0  0  0  0  0  0  0
  122.5728  108.3241  109.2931 H   0  0  0  0  0  0  0  0  0  0  0  0
  124.0392  108.8628  108.4827 H   0  0  0  0  0  0  0  0  0  0  0  0
  125.8033  105.0807  105.6813 H   0  0  0  0  0  0  0  0  0  0  0  0
  125.6790  105.0687  107.4701 H   0  0  0  0  0  0  0  0  0  0  0  0
  124.3119  104.4760  106.4723 H   0  0  0  0  0  0  0  0  0  0  0  0
  114.1805  104.7054  105.9580 H   0  0  0  0  0  0  0  0  0  0  0  0
  115.4989  103.7975  105.1500 H   0  0  0  0  0  0  0  0  0  0  0  0
  115.6394  104.2285  106.8850 H   0  0  0  0  0  0  0  0  0  0  0  0
  120.4522  107.3642  107.7012 H   0  0  0  0  0  0  0  0  0  0  0  0
  121.3853  107.3516  106.2105 H   0  0  0  0  0  0  0  0  0  0  0  0
  122.4317  105.1152  107.0949 H   0  0  0  0  0  0  0  0  0  0  0  0
  124.0102  106.3890  108.7132 H   0  0  0  0  0  0  0  0  0  0  0  0
  123.3549  104.3428  108.7016 H   0  0  0  0  0  0  0  0  0  0  0  0
  123.0265  104.6456  110.2658 H   0  0  0  0  0  0  0  0  0  0  0  0
  120.7595  105.0690  108.9081 H   0  0  0  0  0  0  0  0  0  0  0  0
  1  2  1  0  0  0  0
  1  3  1  0  0  0  0
  2  5  1  0  0  0  0
  3 12  1  0  0  0  0
  4  5  1  0  0  0  0
  4 12  1  0  0  0  0
  5  9  1  0  0  0  0
  6 11  1  0  0  0  0
  7 19  1  0  0  0  0
  8 20  1  0  0  0  0
  9 10  1  0  0  0  0
 10 11  1  0  0  0  0
 10 14  1  0  0  0  0
 11 19  1  0  0  0  0
 12 20  1  0  0  0  0
 13 14  1  0  0  0  0
 15 19  2  0  0  0  0
 16 19  2  0  0  0  0
 17 20  2  0  0  0  0
 18 20  2  0  0  0  0
  1 21  1  0  0  0  0
  1 22  1  0  0  0  0
  2 23  1  0  0  0  0
  2 24  1  0  0  0  0
  3 25  1  0  0  0  0
  3 26  1  0  0  0  0
  4 27  1  0  0  0  0
  4 28  1  0  0  0  0
  5 29  1  0  0  0  0
  6 30  1  0  0  0  0
  6 31  1  0  0  0  0
  6 32  1  0  0  0  0
  7 33  1  0  0  0  0
  7 34  1  0  0  0  0
  7 35  1  0  0  0  0
  8 36  1  0  0  0  0
  8 37  1  0  0  0  0
  8 38  1  0  0  0  0
  9 39  1  0  0  0  0
  9 40  1  0  0  0  0
 10 41  1  0  0  0  0
 11 42  1  0  0  0  0
 13 43  1  0  0  0  0
 13 44  1  0  0  0  0
 14 45  1  0  0  0  0
M  END
> <FRED Chemgauss4 score>
-6.732820

$$$$
C63065286	P128791481
  -OEChem-05182014473D

 26 26  0     1  0  0  0  0  0999 V2000
  121.4274  104.7147  105.3627 C   0  0  0  0  0  0  0  0  0  0  0  0
  122.2779  104.7014  106.4494 C   0  0  0  0  0  0  0  0  0  0  0  0
  121.5225  105.8213  104.5438 C   0  0  0  0  0  0  0  0  0  0  0  0
  123.1548  106.7115  105.8515 C   0  0  0  0  0  0  0  0  0  0  0  0
  119.8111  104.8299  103.2232 C   0  0  0  0  0  0  0  0  0  0  0  0
  125.5966  107.3697  106.1113 C   0  0  0  0  0  0  0  0  0  0  0  0
  123.8172  108.5363  107.4654 C   0  0  0  0  0  0  0  0  0  0  0  0
  124.1345  107.8451  106.1294 C   0  0  2  0  0  0  0  0  0  0  0  0
  123.1575  105.6866  106.7250 N   0  0  0  0  0  0  0  0  0  0  0  0
  122.3780  106.8421  104.7592 N   0  0  0  0  0  0  0  0  0  0  0  0
  125.9480  106.8347  104.7738 N   0  0  0  0  0  0  0  0  0  0  0  0
  124.3206  107.7525  108.5417 O   0  0  0  0  0  0  0  0  0  0  0  0
  120.7110  105.9096  103.4438 O   0  0  0  0  0  0  0  0  0  0  0  0
  120.7334  103.9066  105.1714 H   0  0  0  0  0  0  0  0  0  0  0  0
  122.2755  103.8731  107.1497 H   0  0  0  0  0  0  0  0  0  0  0  0
  119.2253  105.0213  102.3208 H   0  0  0  0  0  0  0  0  0  0  0  0
  119.1479  104.7252  104.0856 H   0  0  0  0  0  0  0  0  0  0  0  0
  120.3852  103.9094  103.0937 H   0  0  0  0  0  0  0  0  0  0  0  0
  125.7953  106.5981  106.8622 H   0  0  0  0  0  0  0  0  0  0  0  0
  126.2696  108.2109  106.3131 H   0  0  0  0  0  0  0  0  0  0  0  0
  124.2538  109.5385  107.5285 H   0  0  0  0  0  0  0  0  0  0  0  0
  122.7338  108.6245  107.6007 H   0  0  0  0  0  0  0  0  0  0  0  0
  124.0118  108.5965  105.3363 H   0  0  0  0  0  0  0  0  0  0  0  0
  125.2670  106.2835  104.3202 H   0  0  0  0  0  0  0  0  0  0  0  0
  126.8968  106.8856  104.5077 H   0  0  0  0  0  0  0  0  0  0  0  0
  124.0977  108.2262  109.3586 H   0  0  0  0  0  0  0  0  0  0  0  0
  1  2  2  0  0  0  0
  1  3  1  0  0  0  0
  2  9  1  0  0  0  0
  3 10  2  0  0  0  0
  3 13  1  0  0  0  0
  4  8  1  0  0  0  0
  4  9  2  0  0  0  0
  4 10  1  0  0  0  0
  5 13  1  0  0  0  0
  6  8  1  0  0  0  0
  6 11  1  0  0  0  0
  7  8  1  0  0  0  0
  7 12  1  0  0  0  0
  1 14  1  0  0  0  0
  2 15  1  0  0  0  0
  5 16  1  0  0  0  0
  5 17  1  0  0  0  0
  5 18  1  0  0  0  0
  6 19  1  0  0  0  0
  6 20  1  0  0  0  0
  7 21  1  0  0  0  0
  7 22  1  0  0  0  0
  8 23  1  0  0  0  0
 11 24  1  0  0  0  0
 11 25  1  0  0  0  0
 12 26  1  0  0  0  0
M  END
> <FRED Chemgauss4 score>
-6.729904

$$$$
C82463068	P128876951
  -OEChem-05182014473D

 30 30  0     1  0  0  0  0  0999 V2000
  124.6841  107.6719  105.8993 C   0  0  0  0  0  0  0  0  0  0  0  0
  118.6421  103.9157  105.6926 C   0  0  0  0  0  0  0  0  0  0  0  0
  119.0108  105.8605  104.3352 C   0  0  0  0  0  0  0  0  0  0  0  0
  119.6774  104.4311  106.6866 C   0  0  0  0  0  0  0  0  0  0  0  0
  120.0355  106.3801  105.3515 C   0  0  2  0  0  0  0  0  0  0  0  0
  117.9870  103.9002  103.3723 C   0  0  0  0  0  0  0  0  0  0  0  0
  123.7407  106.5162  105.6576 C   0  0  0  0  0  0  0  0  0  0  0  0
  121.4844  106.1177  104.9429 C   0  0  0  0  0  0  0  0  0  0  0  0
  118.9648  104.3918  104.3413 N   0  0  2  0  0  0  0  0  0  0  0  0
  124.4342  108.3109  107.0947 N   0  0  0  0  0  0  0  0  0  0  0  0
  122.3556  107.0022  105.6438 N   0  0  0  0  0  0  0  0  0  0  0  0
  125.5993  107.9797  105.1406 O   0  0  0  0  0  0  0  0  0  0  0  0
  119.7556  105.8561  106.6551 O   0  0  0  0  0  0  0  0  0  0  0  0
  118.6282  102.8175  105.7163 H   0  0  0  0  0  0  0  0  0  0  0  0
  117.6503  104.2730  105.9949 H   0  0  0  0  0  0  0  0  0  0  0  0
  118.0182  106.2668  104.5852 H   0  0  0  0  0  0  0  0  0  0  0  0
  119.2683  106.2243  103.3261 H   0  0  0  0  0  0  0  0  0  0  0  0
  119.4548  104.0997  107.7117 H   0  0  0  0  0  0  0  0  0  0  0  0
  120.6694  104.0388  106.4282 H   0  0  0  0  0  0  0  0  0  0  0  0
  119.9151  107.5116  105.4257 H   0  0  0  0  0  0  0  0  0  0  0  0
  118.2368  104.2604  102.3709 H   0  0  0  0  0  0  0  0  0  0  0  0
  116.9856  104.2529  103.6336 H   0  0  0  0  0  0  0  0  0  0  0  0
  117.9819  102.8069  103.3619 H   0  0  0  0  0  0  0  0  0  0  0  0
  123.8291  105.7677  106.4497 H   0  0  0  0  0  0  0  0  0  0  0  0
  123.9605  106.0613  104.6879 H   0  0  0  0  0  0  0  0  0  0  0  0
  121.5859  106.2882  103.8778 H   0  0  0  0  0  0  0  0  0  0  0  0
  121.7441  105.0951  105.1880 H   0  0  0  0  0  0  0  0  0  0  0  0
  123.6879  107.9983  107.7069 H   0  0  0  0  0  0  0  0  0  0  0  0
  124.9783  109.1078  107.4095 H   0  0  0  0  0  0  0  0  0  0  0  0
  122.0527  107.1160  106.6219 H   0  0  0  0  0  0  0  0  0  0  0  0
  1  7  1  0  0  0  0
  1 10  1  0  0  0  0
  1 12  2  0  0  0  0
  2  4  1  0  0  0  0
  2  9  1  0  0  0  0
  3  5  1  0  0  0  0
  3  9  1  0  0  0  0
  4 13  1  0  0  0  0
  5  8  1  0  0  0  0
  5 13  1  0  0  0  0
  6  9  1  0  0  0  0
  7 11  1  0  0  0  0
  8 11  1  0  0  0  0
  2 14  1  0  0  0  0
  2 15  1  0  0  0  0
  3 16  1  0  0  0  0
  3 17  1  0  0  0  0
  4 18  1  0  0  0  0
  4 19  1  0  0  0  0
  5 20  1  0  0  0  0
  6 21  1  0  0  0  0
  6 22  1  0  0  0  0
  6 23  1  0  0  0  0
  7 24  1  0  0  0  0
  7 25  1  0  0  0  0
  8 26  1  0  0  0  0
  8 27  1  0  0  0  0
 10 28  1  0  0  0  0
 10 29  1  0  0  0  0
 11 30  1  0  0  0  0
M  END
> <FRED Chemgauss4 score>
-6.725220

$$$$
C82882993	P129561702
  -OEChem-05182014473D

 37 37  0     1  0  0  0  0  0999 V2000
  119.1857  104.3435  106.3620 C   0  0  0  0  0  0  0  0  0  0  0  0
  120.4601  104.1974  107.1854 C   0  0  0  0  0  0  0  0  0  0  0  0
  121.1834  104.4709  104.9983 C   0  0  0  0  0  0  0  0  0  0  0  0
  119.6635  104.5798  104.9273 C   0  0  1  0  0  0  0  0  0  0  0  0
  119.5821  103.9216  102.6336 C   0  0  0  0  0  0  0  0  0  0  0  0
  117.6305  103.7169  104.0201 C   0  0  0  0  0  0  0  0  0  0  0  0
  123.8375  105.6048  106.3148 C   0  0  0  0  0  0  0  0  0  0  0  0
  122.8240  104.5610  106.7827 C   0  0  0  0  0  0  0  0  0  0  0  0
  124.8368  107.8846  106.7445 C   0  0  0  0  0  0  0  0  0  0  0  0
  123.5885  107.0115  106.8765 C   0  0  1  0  0  0  0  0  0  0  0  0
  121.4650  104.8842  106.3734 N   0  0  2  0  0  0  0  0  0  0  0  0
  122.4813  107.6552  106.1181 N   0  0  0  0  0  0  0  0  0  0  0  0
  119.0938  103.6529  103.9883 N   0  0  0  0  0  0  0  0  0  0  0  0
  125.2074  108.0126  105.3761 O   0  0  0  0  0  0  0  0  0  0  0  0
  118.5533  103.4547  106.4669 H   0  0  0  0  0  0  0  0  0  0  0  0
  118.5972  105.2047  106.7013 H   0  0  0  0  0  0  0  0  0  0  0  0
  120.3527  104.6496  108.1764 H   0  0  0  0  0  0  0  0  0  0  0  0
  120.6976  103.1331  107.3111 H   0  0  0  0  0  0  0  0  0  0  0  0
  121.5166  103.4398  104.8179 H   0  0  0  0  0  0  0  0  0  0  0  0
  121.6681  105.1227  104.2635 H   0  0  0  0  0  0  0  0  0  0  0  0
  119.3852  105.5957  104.6320 H   0  0  0  0  0  0  0  0  0  0  0  0
  119.1428  103.2115  101.9282 H   0  0  0  0  0  0  0  0  0  0  0  0
  120.6707  103.8251  102.5982 H   0  0  0  0  0  0  0  0  0  0  0  0
  119.3100  104.9354  102.3279 H   0  0  0  0  0  0  0  0  0  0  0  0
  117.2078  103.0086  103.3028 H   0  0  0  0  0  0  0  0  0  0  0  0
  117.2906  104.7237  103.7625 H   0  0  0  0  0  0  0  0  0  0  0  0
  117.2629  103.4678  105.0191 H   0  0  0  0  0  0  0  0  0  0  0  0
  123.8197  105.6477  105.2183 H   0  0  0  0  0  0  0  0  0  0  0  0
  124.8405  105.2658  106.6044 H   0  0  0  0  0  0  0  0  0  0  0  0
  123.0654  103.5878  106.3432 H   0  0  0  0  0  0  0  0  0  0  0  0
  122.8291  104.4476  107.8709 H   0  0  0  0  0  0  0  0  0  0  0  0
  124.6684  108.8908  107.1429 H   0  0  0  0  0  0  0  0  0  0  0  0
  125.6849  107.4439  107.2790 H   0  0  0  0  0  0  0  0  0  0  0  0
  123.2814  106.9630  107.9274 H   0  0  0  0  0  0  0  0  0  0  0  0
  122.4581  108.6389  106.1214 H   0  0  0  0  0  0  0  0  0  0  0  0
  121.7401  107.0710  105.8391 H   0  0  0  0  0  0  0  0  0  0  0  0
  125.9994  108.5726  105.3539 H   0  0  0  0  0  0  0  0  0  0  0  0
  1  2  1  0  0  0  0
  1  4  1  0  0  0  0
  2 11  1  0  0  0  0
  3  4  1  0  0  0  0
  3 11  1  0  0  0  0
  4 13  1  0  0  0  0
  5 13  1  0  0  0  0
  6 13  1  0  0  0  0
  7  8  1  0  0  0  0
  7 10  1  0  0  0  0
  8 11  1  0  0  0  0
  9 10  1  0  0  0  0
  9 14  1  0  0  0  0
 10 12  1  0  0  0  0
  1 15  1  0  0  0  0
  1 16  1  0  0  0  0
  2 17  1  0  0  0  0
  2 18  1  0  0  0  0
  3 19  1  0  0  0  0
  3 20  1  0  0  0  0
  4 21  1  0  0  0  0
  5 22  1  0  0  0  0
  5 23  1  0  0  0  0
  5 24  1  0  0  0  0
  6 25  1  0  0  0  0
  6 26  1  0  0  0  0
  6 27  1  0  0  0  0
  7 28  1  0  0  0  0
  7 29  1  0  0  0  0
  8 30  1  0  0  0  0
  8 31  1  0  0  0  0
  9 32  1  0  0  0  0
  9 33  1  0  0  0  0
 10 34  1  0  0  0  0
 12 35  1  0  0  0  0
 12 36  1  0  0  0  0
 14 37  1  0  0  0  0
M  END
> <FRED Chemgauss4 score>
-6.722343

$$$$
C71791139	P111281991
  -OEChem-05182014473D

 21 21  0     1  0  0  0  0  0999 V2000
  123.2668  106.5136  108.7937 C   0  0  0  0  0  0  0  0  0  0  0  0
  123.3531  107.8718  108.3166 C   0  0  0  0  0  0  0  0  0  0  0  0
  124.3324  105.7001  108.7722 C   0  0  0  0  0  0  0  0  0  0  0  0
  124.4108  108.2937  107.6075 C   0  0  0  0  0  0  0  0  0  0  0  0
  125.6735  106.1514  108.2472 C   0  0  1  0  0  0  0  0  0  0  0  0
  125.5829  107.3896  107.3025 C   0  0  2  0  0  0  0  0  0  0  0  0
  126.5933  106.4574  109.3903 N   0  3  0  0  0  0  0  0  0  0  0  0
  126.4222  105.9672  105.3671 O   0  5  0  0  0  0  0  0  0  0  0  0
  123.9931  106.1529  105.7479 O   0  0  0  0  0  0  0  0  0  0  0  0
  125.2556  108.0836  104.8768 O   0  0  0  0  0  0  0  0  0  0  0  0
  126.7947  108.1422  107.3368 O   0  0  0  0  0  0  0  0  0  0  0  0
  125.2773  106.8322  105.6245 S   0  0  0  0  0  0  0  0  0  0  0  0
  122.3060  106.1604  109.1524 H   0  0  0  0  0  0  0  0  0  0  0  0
  122.5549  108.5551  108.5821 H   0  0  0  0  0  0  0  0  0  0  0  0
  124.2237  104.6720  109.1131 H   0  0  0  0  0  0  0  0  0  0  0  0
  124.4366  109.3283  107.2746 H   0  0  0  0  0  0  0  0  0  0  0  0
  126.1192  105.3017  107.7478 H   0  0  0  0  0  0  0  0  0  0  0  0
  127.2138  105.6658  109.5691 H   0  0  0  0  0  0  0  0  0  0  0  0
  126.0553  106.6469  110.2380 H   0  0  0  0  0  0  0  0  0  0  0  0
  127.1647  107.2771  109.1773 H   0  0  0  0  0  0  0  0  0  0  0  0
  127.5082  107.5187  107.1360 H   0  0  0  0  0  0  0  0  0  0  0  0
  1  2  1  0  0  0  0
  1  3  2  0  0  0  0
  2  4  2  0  0  0  0
  3  5  1  0  0  0  0
  4  6  1  0  0  0  0
  5  6  1  0  0  0  0
  5  7  1  0  0  0  0
  6 11  1  0  0  0  0
  6 12  1  0  0  0  0
  8 12  1  0  0  0  0
  9 12  2  0  0  0  0
 10 12  2  0  0  0  0
  1 13  1  0  0  0  0
  2 14  1  0  0  0  0
  3 15  1  0  0  0  0
  4 16  1  0  0  0  0
  5 17  1  0  0  0  0
  7 18  1  0  0  0  0
  7 19  1  0  0  0  0
  7 20  1  0  0  0  0
 11 21  1  0  0  0  0
M  CHG  2   7   1   8  -1
M  END
> <FRED Chemgauss4 score>
-6.721599

$$$$
C95869931	P150894235
  -OEChem-05182014473D

 32 33  0     1  0  0  0  0  0999 V2000
  123.7415  105.2103  107.4112 C   0  0  0  0  0  0  0  0  0  0  0  0
  124.5676  107.4224  106.6420 C   0  0  0  0  0  0  0  0  0  0  0  0
  125.3994  106.3732  108.5438 C   0  0  0  0  0  0  0  0  0  0  0  0
  122.2128  103.9358  105.9082 C   0  0  0  0  0  0  0  0  0  0  0  0
  123.3712  106.5056  106.7305 C   0  0  1  0  0  0  0  0  0  0  0  0
  121.7435  105.2923  105.3775 C   0  0  1  0  0  0  0  0  0  0  0  0
  117.9853  105.6558  106.3663 C   0  0  0  0  0  0  0  0  0  0  0  0
  120.5093  105.8092  106.1223 C   0  0  1  0  0  0  0  0  0  0  0  0
  119.2216  105.1275  105.6481 C   0  0  2  0  0  0  0  0  0  0  0  0
  124.7012  105.2084  108.2887 N   0  0  0  0  0  0  0  0  0  0  0  0
  125.3616  107.4232  107.7638 N   0  0  0  0  0  0  0  0  0  0  0  0
  123.0158  104.0795  107.1058 N   0  0  0  0  0  0  0  0  0  0  0  0
  122.8594  106.2491  105.3838 N   0  0  0  0  0  0  0  0  0  0  0  0
  126.1870  106.3989  109.6701 N   0  0  0  0  0  0  0  0  0  0  0  0
  124.7613  108.1678  105.6855 O   0  0  0  0  0  0  0  0  0  0  0  0
  120.6941  105.5733  107.5142 O   0  0  0  0  0  0  0  0  0  0  0  0
  119.0429  105.3160  104.2457 O   0  0  0  0  0  0  0  0  0  0  0  0
  121.3633  103.2746  106.1100 H   0  0  0  0  0  0  0  0  0  0  0  0
  122.8311  103.4437  105.1477 H   0  0  0  0  0  0  0  0  0  0  0  0
  122.6239  107.0210  107.3458 H   0  0  0  0  0  0  0  0  0  0  0  0
  121.4440  105.1526  104.3339 H   0  0  0  0  0  0  0  0  0  0  0  0
  117.8726  106.7341  106.2201 H   0  0  0  0  0  0  0  0  0  0  0  0
  117.0747  105.1554  106.0197 H   0  0  0  0  0  0  0  0  0  0  0  0
  118.0581  105.4559  107.4410 H   0  0  0  0  0  0  0  0  0  0  0  0
  120.4287  106.8896  105.9725 H   0  0  0  0  0  0  0  0  0  0  0  0
  119.2968  104.0479  105.8196 H   0  0  0  0  0  0  0  0  0  0  0  0
  123.2243  103.2230  107.6117 H   0  0  0  0  0  0  0  0  0  0  0  0
  122.5473  107.1287  104.9717 H   0  0  0  0  0  0  0  0  0  0  0  0
  126.2148  105.5869  110.2389 H   0  0  0  0  0  0  0  0  0  0  0  0
  126.6943  107.2283  109.8664 H   0  0  0  0  0  0  0  0  0  0  0  0
  119.9008  105.9090  107.9604 H   0  0  0  0  0  0  0  0  0  0  0  0
  118.2497  104.8158  103.9997 H   0  0  0  0  0  0  0  0  0  0  0  0
  1  5  1  0  0  0  0
  1 10  2  0  0  0  0
  1 12  1  0  0  0  0
  2  5  1  0  0  0  0
  2 11  1  0  0  0  0
  2 15  2  0  0  0  0
  3 10  1  0  0  0  0
  3 11  2  0  0  0  0
  3 14  1  0  0  0  0
  4  6  1  0  0  0  0
  4 12  1  0  0  0  0
  5 13  1  0  0  0  0
  6  8  1  0  0  0  0
  6 13  1  0  0  0  0
  7  9  1  0  0  0  0
  8  9  1  0  0  0  0
  8 16  1  0  0  0  0
  9 17  1  0  0  0  0
  4 18  1  0  0  0  0
  4 19  1  0  0  0  0
  5 20  1  0  0  0  0
  6 21  1  0  0  0  0
  7 22  1  0  0  0  0
  7 23  1  0  0  0  0
  7 24  1  0  0  0  0
  8 25  1  0  0  0  0
  9 26  1  0  0  0  0
 12 27  1  0  0  0  0
 13 28  1  0  0  0  0
 14 29  1  0  0  0  0
 14 30  1  0  0  0  0
 16 31  1  0  0  0  0
 17 32  1  0  0  0  0
M  END
> <FRED Chemgauss4 score>
-6.715451

$$$$
C41012614	P62260088
  -OEChem-05182014473D

 34 35  0     1  0  0  0  0  0999 V2000
  121.9347  104.5614  107.2836 C   0  0  0  0  0  0  0  0  0  0  0  0
  121.2069  104.5012  106.0953 C   0  0  0  0  0  0  0  0  0  0  0  0
  123.0297  105.4192  107.3882 C   0  0  0  0  0  0  0  0  0  0  0  0
  122.6691  106.1564  105.1159 C   0  0  0  0  0  0  0  0  0  0  0  0
  116.6703  104.2676  104.2733 C   0  0  0  0  0  0  0  0  0  0  0  0
  116.4276  104.4176  105.6227 C   0  0  0  0  0  0  0  0  0  0  0  0
  121.5741  105.2987  105.0114 C   0  0  0  0  0  0  0  0  0  0  0  0
  123.3969  106.2167  106.3043 C   0  0  0  0  0  0  0  0  0  0  0  0
  118.1312  105.8474  104.6975 C   0  0  0  0  0  0  0  0  0  0  0  0
  121.6370  104.7889  102.5359 C   0  0  0  0  0  0  0  0  0  0  0  0
  119.2134  106.8698  104.5037 C   0  0  0  0  0  0  0  0  0  0  0  0
  120.7953  105.2337  103.7411 C   0  0  2  0  0  0  0  0  0  0  0  0
  117.6465  105.0869  103.7410 N   0  0  0  0  0  0  0  0  0  0  0  0
  124.0169  108.7093  107.0164 N   0  0  0  0  0  0  0  0  0  0  0  0
  120.1358  106.4930  103.4394 N   0  0  0  0  0  0  0  0  0  0  0  0
  125.6583  106.7730  107.4660 O   0  0  0  0  0  0  0  0  0  0  0  0
  125.2836  107.5468  105.0978 O   0  0  0  0  0  0  0  0  0  0  0  0
  117.4592  105.6296  106.2614 S   0  0  0  0  0  0  0  0  0  0  0  0
  124.7683  107.2889  106.4353 S   0  0  0  0  0  0  0  0  0  0  0  0
  121.6485  103.9410  108.1279 H   0  0  0  0  0  0  0  0  0  0  0  0
  120.3545  103.8307  106.0233 H   0  0  0  0  0  0  0  0  0  0  0  0
  123.5898  105.4574  108.3186 H   0  0  0  0  0  0  0  0  0  0  0  0
  122.9540  106.7778  104.2702 H   0  0  0  0  0  0  0  0  0  0  0  0
  116.1587  103.5682  103.6258 H   0  0  0  0  0  0  0  0  0  0  0  0
  115.7185  103.8887  106.2435 H   0  0  0  0  0  0  0  0  0  0  0  0
  122.4810  105.4699  102.3809 H   0  0  0  0  0  0  0  0  0  0  0  0
  122.0378  103.7795  102.6819 H   0  0  0  0  0  0  0  0  0  0  0  0
  121.0447  104.7696  101.6141 H   0  0  0  0  0  0  0  0  0  0  0  0
  118.7828  107.8440  104.2476 H   0  0  0  0  0  0  0  0  0  0  0  0
  119.7969  107.0031  105.4207 H   0  0  0  0  0  0  0  0  0  0  0  0
  119.9691  104.5071  103.8367 H   0  0  0  0  0  0  0  0  0  0  0  0
  124.1872  108.9797  107.9927 H   0  0  0  0  0  0  0  0  0  0  0  0
  123.9303  109.5062  106.3739 H   0  0  0  0  0  0  0  0  0  0  0  0
  119.6167  106.4028  102.5651 H   0  0  0  0  0  0  0  0  0  0  0  0
  1  2  2  0  0  0  0
  1  3  1  0  0  0  0
  2  7  1  0  0  0  0
  3  8  2  0  0  0  0
  4  7  2  0  0  0  0
  4  8  1  0  0  0  0
  5  6  2  0  0  0  0
  5 13  1  0  0  0  0
  6 18  1  0  0  0  0
  7 12  1  0  0  0  0
  8 19  1  0  0  0  0
  9 11  1  0  0  0  0
  9 13  2  0  0  0  0
  9 18  1  0  0  0  0
 10 12  1  0  0  0  0
 11 15  1  0  0  0  0
 12 15  1  0  0  0  0
 14 19  1  0  0  0  0
 16 19  2  0  0  0  0
 17 19  2  0  0  0  0
  1 20  1  0  0  0  0
  2 21  1  0  0  0  0
  3 22  1  0  0  0  0
  4 23  1  0  0  0  0
  5 24  1  0  0  0  0
  6 25  1  0  0  0  0
 10 26  1  0  0  0  0
 10 27  1  0  0  0  0
 10 28  1  0  0  0  0
 11 29  1  0  0  0  0
 11 30  1  0  0  0  0
 12 31  1  0  0  0  0
 14 32  1  0  0  0  0
 14 33  1  0  0  0  0
 15 34  1  0  0  0  0
M  END
> <FRED Chemgauss4 score>
-6.714985

$$$$
C31963761	P48096834
  -OEChem-05182014473D

 26 26  0     0  0  0  0  0  0999 V2000
  120.4713  106.6042  103.2922 C   0  0  0  0  0  0  0  0  0  0  0  0
  120.7628  105.2756  103.0643 C   0  0  0  0  0  0  0  0  0  0  0  0
  121.8667  106.2832  104.9534 C   0  0  0  0  0  0  0  0  0  0  0  0
  123.6186  107.3939  106.0533 C   0  0  0  0  0  0  0  0  0  0  0  0
  119.5570  107.4429  102.4902 C   0  0  0  0  0  0  0  0  0  0  0  0
  120.2734  104.3607  102.0139 C   0  0  0  0  0  0  0  0  0  0  0  0
  124.3805  107.4899  107.3952 C   0  0  0  0  0  0  0  0  0  0  0  0
  125.5914  106.5658  107.4415 C   0  0  0  0  0  0  0  0  0  0  0  0
  121.1031  107.1835  104.3752 N   0  0  0  0  0  0  0  0  0  0  0  0
  122.6712  106.4922  106.0895 N   0  0  0  0  0  0  0  0  0  0  0  0
  126.2495  106.6549  108.7683 N   0  3  0  0  0  0  0  0  0  0  0  0
  123.9854  108.1695  105.1418 O   0  5  0  0  0  0  0  0  0  0  0  0
  121.8734  104.7192  104.2469 S   0  0  0  0  0  0  0  0  0  0  0  0
  118.5279  107.3919  102.8806 H   0  0  0  0  0  0  0  0  0  0  0  0
  119.8638  108.5023  102.4884 H   0  0  0  0  0  0  0  0  0  0  0  0
  119.5314  107.1303  101.4327 H   0  0  0  0  0  0  0  0  0  0  0  0
  120.9258  104.3905  101.1261 H   0  0  0  0  0  0  0  0  0  0  0  0
  120.2303  103.3151  102.3635 H   0  0  0  0  0  0  0  0  0  0  0  0
  119.2507  104.6154  101.6875 H   0  0  0  0  0  0  0  0  0  0  0  0
  123.6983  107.2258  108.2141 H   0  0  0  0  0  0  0  0  0  0  0  0
  124.6839  108.5313  107.5636 H   0  0  0  0  0  0  0  0  0  0  0  0
  125.2931  105.5213  107.3137 H   0  0  0  0  0  0  0  0  0  0  0  0
  126.3485  106.8250  106.6958 H   0  0  0  0  0  0  0  0  0  0  0  0
  125.7612  107.3211  109.3760 H   0  0  0  0  0  0  0  0  0  0  0  0
  127.2221  106.9667  108.6744 H   0  0  0  0  0  0  0  0  0  0  0  0
  126.2537  105.7429  109.2375 H   0  0  0  0  0  0  0  0  0  0  0  0
  1  2  2  0  0  0  0
  1  5  1  0  0  0  0
  1  9  1  0  0  0  0
  2  6  1  0  0  0  0
  2 13  1  0  0  0  0
  3  9  2  0  0  0  0
  3 10  1  0  0  0  0
  3 13  1  0  0  0  0
  4  7  1  0  0  0  0
  4 10  2  0  0  0  0
  4 12  1  0  0  0  0
  7  8  1  0  0  0  0
  8 11  1  0  0  0  0
  5 14  1  0  0  0  0
  5 15  1  0  0  0  0
  5 16  1  0  0  0  0
  6 17  1  0  0  0  0
  6 18  1  0  0  0  0
  6 19  1  0  0  0  0
  7 20  1  0  0  0  0
  7 21  1  0  0  0  0
  8 22  1  0  0  0  0
  8 23  1  0  0  0  0
 11 24  1  0  0  0  0
 11 25  1  0  0  0  0
 11 26  1  0  0  0  0
M  CHG  2  11   1  12  -1
M  END
> <FRED Chemgauss4 score>
-6.710263

$$$$
C36264756	P53889251
  -OEChem-05182014473D

 19 19  0     1  0  0  0  0  0999 V2000
  122.9555  108.2055  109.3609 C   0  0  0  0  0  0  0  0  0  0  0  0
  122.6180  106.9583  108.5884 C   0  0  2  0  0  0  0  0  0  0  0  0
  123.2323  108.1406  107.8850 C   0  0  2  0  0  0  0  0  0  0  0  0
  125.4586  105.8432  106.2182 C   0  0  0  0  0  0  0  0  0  0  0  0
  121.2176  106.6065  108.3393 N   0  0  0  0  0  0  0  0  0  0  0  0
  124.6081  108.0925  107.3641 N   0  0  0  0  0  0  0  0  0  0  0  0
  123.4296  107.1555  105.2505 O   0  0  0  0  0  0  0  0  0  0  0  0
  125.7446  108.1514  105.0384 O   0  0  0  0  0  0  0  0  0  0  0  0
  124.6309  105.1570  107.0458 F   0  0  0  0  0  0  0  0  0  0  0  0
  126.6327  105.9998  106.8786 F   0  0  0  0  0  0  0  0  0  0  0  0
  124.7515  107.4088  105.7892 S   0  0  0  0  0  0  0  0  0  0  0  0
  122.1469  108.8454  109.6932 H   0  0  0  0  0  0  0  0  0  0  0  0
  123.7958  108.1614  110.0435 H   0  0  0  0  0  0  0  0  0  0  0  0
  123.2590  106.0987  108.7581 H   0  0  0  0  0  0  0  0  0  0  0  0
  122.5948  108.7352  107.2399 H   0  0  0  0  0  0  0  0  0  0  0  0
  125.6247  105.2540  105.3130 H   0  0  0  0  0  0  0  0  0  0  0  0
  120.6331  106.4423  109.1272 H   0  0  0  0  0  0  0  0  0  0  0  0
  120.9616  106.3487  107.4133 H   0  0  0  0  0  0  0  0  0  0  0  0
  125.1031  108.9907  107.4914 H   0  0  0  0  0  0  0  0  0  0  0  0
  1  2  1  0  0  0  0
  1  3  1  0  0  0  0
  2  3  1  0  0  0  0
  2  5  1  0  0  0  0
  3  6  1  0  0  0  0
  4  9  1  0  0  0  0
  4 10  1  0  0  0  0
  4 11  1  0  0  0  0
  6 11  1  0  0  0  0
  7 11  2  0  0  0  0
  8 11  2  0  0  0  0
  1 12  1  0  0  0  0
  1 13  1  0  0  0  0
  2 14  1  0  0  0  0
  3 15  1  0  0  0  0
  4 16  1  0  0  0  0
  5 17  1  0  0  0  0
  5 18  1  0  0  0  0
  6 19  1  0  0  0  0
M  END
> <FRED Chemgauss4 score>
-6.703079

$$$$
C82841439	P129491441
  -OEChem-05182014473D

 23 23  0     1  0  0  0  0  0999 V2000
  123.8750  106.1870  107.7043 C   0  0  0  0  0  0  0  0  0  0  0  0
  122.4929  107.5407  106.3209 C   0  0  0  0  0  0  0  0  0  0  0  0
  124.7043  107.2740  105.7583 C   0  0  0  0  0  0  0  0  0  0  0  0
  122.6248  106.7356  107.4408 C   0  0  0  0  0  0  0  0  0  0  0  0
  124.9399  106.4565  106.8519 C   0  0  0  0  0  0  0  0  0  0  0  0
  121.4654  106.4654  108.3326 C   0  0  0  0  0  0  0  0  0  0  0  0
  126.3465  105.0568  108.4032 C   0  0  0  0  0  0  0  0  0  0  0  0
  126.2889  105.8833  107.1052 C   0  0  2  0  0  0  0  0  0  0  0  0
  123.5040  107.8251  105.4698 N   0  0  0  0  0  0  0  0  0  0  0  0
  126.0061  105.8774  109.5437 N   0  0  0  0  0  0  0  0  0  0  0  0
  127.2491  106.9473  107.1888 O   0  0  0  0  0  0  0  0  0  0  0  0
  124.0197  105.5502  108.5737 H   0  0  0  0  0  0  0  0  0  0  0  0
  121.5410  107.9962  106.0647 H   0  0  0  0  0  0  0  0  0  0  0  0
  125.4969  107.5192  105.0579 H   0  0  0  0  0  0  0  0  0  0  0  0
  121.4072  107.2195  109.1289 H   0  0  0  0  0  0  0  0  0  0  0  0
  120.5178  106.4783  107.7757 H   0  0  0  0  0  0  0  0  0  0  0  0
  121.5409  105.4740  108.8014 H   0  0  0  0  0  0  0  0  0  0  0  0
  127.3539  104.6533  108.5529 H   0  0  0  0  0  0  0  0  0  0  0  0
  125.6469  104.2148  108.3613 H   0  0  0  0  0  0  0  0  0  0  0  0
  126.6137  105.2515  106.2582 H   0  0  0  0  0  0  0  0  0  0  0  0
  126.3229  106.8298  109.5662 H   0  0  0  0  0  0  0  0  0  0  0  0
  125.6445  105.4333  110.3683 H   0  0  0  0  0  0  0  0  0  0  0  0
  126.9623  107.5070  107.9231 H   0  0  0  0  0  0  0  0  0  0  0  0
  1  4  1  0  0  0  0
  1  5  2  0  0  0  0
  2  4  2  0  0  0  0
  2  9  1  0  0  0  0
  3  5  1  0  0  0  0
  3  9  2  0  0  0  0
  4  6  1  0  0  0  0
  5  8  1  0  0  0  0
  7  8  1  0  0  0  0
  7 10  1  0  0  0  0
  8 11  1  0  0  0  0
  1 12  1  0  0  0  0
  2 13  1  0  0  0  0
  3 14  1  0  0  0  0
  6 15  1  0  0  0  0
  6 16  1  0  0  0  0
  6 17  1  0  0  0  0
  7 18  1  0  0  0  0
  7 19  1  0  0  0  0
  8 20  1  0  0  0  0
 10 21  1  0  0  0  0
 10 22  1  0  0  0  0
 11 23  1  0  0  0  0
M  END
> <FRED Chemgauss4 score>
-6.702713

$$$$
C62314433	P95618880
  -OEChem-05182014473D

 23 23  0     1  0  0  0  0  0999 V2000
  123.7591  105.8673  106.8372 C   0  0  0  0  0  0  0  0  0  0  0  0
  124.1327  106.8703  105.9783 C   0  0  0  0  0  0  0  0  0  0  0  0
  125.4442  107.5121  105.8209 C   0  0  0  0  0  0  0  0  0  0  0  0
  121.5262  104.7113  107.1591 C   0  0  0  0  0  0  0  0  0  0  0  0
  119.2608  105.7031  106.6852 C   0  0  0  0  0  0  0  0  0  0  0  0
  120.2246  104.5636  106.3686 C   0  0  2  0  0  0  0  0  0  0  0  0
  123.0626  107.2418  105.2126 N   0  0  0  0  0  0  0  0  0  0  0  0
  122.0244  106.4949  105.5721 N   0  0  0  0  0  0  0  0  0  0  0  0
  122.4440  105.6716  106.5464 N   0  0  0  0  0  0  0  0  0  0  0  0
  125.6223  107.9503  104.4714 O   0  0  0  0  0  0  0  0  0  0  0  0
  118.3220  105.8207  105.6217 O   0  0  0  0  0  0  0  0  0  0  0  0
  119.6051  103.3313  106.7416 O   0  0  0  0  0  0  0  0  0  0  0  0
  124.2876  105.3023  107.5919 H   0  0  0  0  0  0  0  0  0  0  0  0
  125.5656  108.3947  106.4782 H   0  0  0  0  0  0  0  0  0  0  0  0
  126.2787  106.8270  106.0655 H   0  0  0  0  0  0  0  0  0  0  0  0
  122.0636  103.7574  107.2213 H   0  0  0  0  0  0  0  0  0  0  0  0
  121.3325  105.0523  108.1834 H   0  0  0  0  0  0  0  0  0  0  0  0
  119.7912  106.6570  106.7729 H   0  0  0  0  0  0  0  0  0  0  0  0
  118.7057  105.5059  107.6075 H   0  0  0  0  0  0  0  0  0  0  0  0
  120.4169  104.5174  105.2902 H   0  0  0  0  0  0  0  0  0  0  0  0
  126.4983  108.3614  104.4330 H   0  0  0  0  0  0  0  0  0  0  0  0
  117.7276  106.5511  105.8552 H   0  0  0  0  0  0  0  0  0  0  0  0
  120.2362  102.6307  106.5194 H   0  0  0  0  0  0  0  0  0  0  0  0
  1  2  2  0  0  0  0
  1  9  1  0  0  0  0
  2  3  1  0  0  0  0
  2  7  1  0  0  0  0
  3 10  1  0  0  0  0
  4  6  1  0  0  0  0
  4  9  1  0  0  0  0
  5  6  1  0  0  0  0
  5 11  1  0  0  0  0
  6 12  1  0  0  0  0
  7  8  2  0  0  0  0
  8  9  1  0  0  0  0
  1 13  1  0  0  0  0
  3 14  1  0  0  0  0
  3 15  1  0  0  0  0
  4 16  1  0  0  0  0
  4 17  1  0  0  0  0
  5 18  1  0  0  0  0
  5 19  1  0  0  0  0
  6 20  1  0  0  0  0
 10 21  1  0  0  0  0
 11 22  1  0  0  0  0
 12 23  1  0  0  0  0
M  END
> <FRED Chemgauss4 score>
-6.701156

$$$$
C97831917	P155269791
  -OEChem-05182014473D

 38 38  0     1  0  0  0  0  0999 V2000
  120.0262  105.7325  103.7876 C   0  0  0  0  0  0  0  0  0  0  0  0
  119.9163  105.3290  102.4793 C   0  0  0  0  0  0  0  0  0  0  0  0
  118.7195  105.6243  104.3002 C   0  0  0  0  0  0  0  0  0  0  0  0
  120.9219  105.2139  101.4058 C   0  0  0  0  0  0  0  0  0  0  0  0
  124.2200  107.2694  108.6783 C   0  0  0  0  0  0  0  0  0  0  0  0
  117.9846  104.5399  101.0787 C   0  0  0  0  0  0  0  0  0  0  0  0
  121.7542  103.6656  105.4834 C   0  0  0  0  0  0  0  0  0  0  0  0
  123.8708  105.7158  106.7241 C   0  0  0  0  0  0  0  0  0  0  0  0
  122.4120  105.4258  107.0739 C   0  0  0  0  0  0  0  0  0  0  0  0
  124.7396  106.0393  107.9453 C   0  0  1  0  0  0  0  0  0  0  0  0
  117.8438  105.1866  103.3916 N   0  0  0  0  0  0  0  0  0  0  0  0
  118.6017  105.0162  102.2949 N   0  0  0  0  0  0  0  0  0  0  0  0
  118.4227  105.9415  105.5879 N   0  0  0  0  0  0  0  0  0  0  0  0
  121.6268  105.1003  105.9155 N   0  0  1  0  0  0  0  0  0  0  0  0
  122.6057  106.0613  103.7059 O   0  0  0  0  0  0  0  0  0  0  0  0
  121.2376  107.5938  105.1425 O   0  0  0  0  0  0  0  0  0  0  0  0
  126.0746  106.2904  107.5158 O   0  0  0  0  0  0  0  0  0  0  0  0
  121.4963  106.2650  104.6192 S   0  0  0  0  0  0  0  0  0  0  0  0
  121.3843  104.2131  101.3994 H   0  0  0  0  0  0  0  0  0  0  0  0
  120.4841  105.3867  100.4076 H   0  0  0  0  0  0  0  0  0  0  0  0
  121.7316  105.9560  101.5153 H   0  0  0  0  0  0  0  0  0  0  0  0
  124.1887  108.1389  108.0125 H   0  0  0  0  0  0  0  0  0  0  0  0
  123.2173  107.0983  109.0815 H   0  0  0  0  0  0  0  0  0  0  0  0
  124.8873  107.5320  109.5065 H   0  0  0  0  0  0  0  0  0  0  0  0
  118.0338  103.4479  101.0808 H   0  0  0  0  0  0  0  0  0  0  0  0
  116.9445  104.8757  101.0424 H   0  0  0  0  0  0  0  0  0  0  0  0
  118.5224  104.9463  100.2175 H   0  0  0  0  0  0  0  0  0  0  0  0
  121.1354  103.4826  104.6011 H   0  0  0  0  0  0  0  0  0  0  0  0
  121.4283  102.9987  106.2862 H   0  0  0  0  0  0  0  0  0  0  0  0
  122.7944  103.4358  105.2375 H   0  0  0  0  0  0  0  0  0  0  0  0
  124.2740  104.8268  106.2227 H   0  0  0  0  0  0  0  0  0  0  0  0
  123.9173  106.5467  106.0096 H   0  0  0  0  0  0  0  0  0  0  0  0
  122.3557  104.5655  107.7487 H   0  0  0  0  0  0  0  0  0  0  0  0
  121.9379  106.2762  107.5728 H   0  0  0  0  0  0  0  0  0  0  0  0
  124.7598  105.1877  108.6340 H   0  0  0  0  0  0  0  0  0  0  0  0
  119.1487  106.2284  106.2537 H   0  0  0  0  0  0  0  0  0  0  0  0
  117.4787  105.8163  105.9700 H   0  0  0  0  0  0  0  0  0  0  0  0
  126.5939  106.4675  108.3156 H   0  0  0  0  0  0  0  0  0  0  0  0
  1  2  2  0  0  0  0
  1  3  1  0  0  0  0
  1 18  1  0  0  0  0
  2  4  1  0  0  0  0
  2 12  1  0  0  0  0
  3 11  2  0  0  0  0
  3 13  1  0  0  0  0
  5 10  1  0  0  0  0
  6 12  1  0  0  0  0
  7 14  1  0  0  0  0
  8  9  1  0  0  0  0
  8 10  1  0  0  0  0
  9 14  1  0  0  0  0
 10 17  1  0  0  0  0
 11 12  1  0  0  0  0
 14 18  1  0  0  0  0
 15 18  2  0  0  0  0
 16 18  2  0  0  0  0
  4 19  1  0  0  0  0
  4 20  1  0  0  0  0
  4 21  1  0  0  0  0
  5 22  1  0  0  0  0
  5 23  1  0  0  0  0
  5 24  1  0  0  0  0
  6 25  1  0  0  0  0
  6 26  1  0  0  0  0
  6 27  1  0  0  0  0
  7 28  1  0  0  0  0
  7 29  1  0  0  0  0
  7 30  1  0  0  0  0
  8 31  1  0  0  0  0
  8 32  1  0  0  0  0
  9 33  1  0  0  0  0
  9 34  1  0  0  0  0
 10 35  1  0  0  0  0
 13 36  1  0  0  0  0
 13 37  1  0  0  0  0
 17 38  1  0  0  0  0
M  END
> <FRED Chemgauss4 score>
-6.700646

$$$$
L-Leucine	P10000026
  -OEChem-05182014473D

 22 21  0     1  0  0  0  0  0999 V2000
  123.9096  107.5273  105.8208 C   0  0  0  0  0  0  0  0  0  0  0  0
  124.8132  104.8162  108.6033 C   0  0  0  0  0  0  0  0  0  0  0  0
  122.6718  105.4134  109.7523 C   0  0  0  0  0  0  0  0  0  0  0  0
  123.9194  107.1534  108.3603 C   0  0  0  0  0  0  0  0  0  0  0  0
  124.7455  107.4722  107.1075 C   0  0  2  0  0  0  0  0  0  0  0  0
  123.5417  105.6655  108.5201 C   0  0  0  0  0  0  0  0  0  0  0  0
  125.4397  108.7750  107.3680 N   0  3  0  0  0  0  0  0  0  0  0  0
  124.3167  108.3626  104.9638 O   0  5  0  0  0  0  0  0  0  0  0  0
  122.9318  106.7301  105.7646 O   0  0  0  0  0  0  0  0  0  0  0  0
  125.4213  105.0937  109.4711 H   0  0  0  0  0  0  0  0  0  0  0  0
  125.4258  104.9436  107.7045 H   0  0  0  0  0  0  0  0  0  0  0  0
  124.5661  103.7527  108.6890 H   0  0  0  0  0  0  0  0  0  0  0  0
  123.1806  105.7240  110.6698 H   0  0  0  0  0  0  0  0  0  0  0  0
  122.4137  104.3531  109.8460 H   0  0  0  0  0  0  0  0  0  0  0  0
  121.7385  105.9838  109.6919 H   0  0  0  0  0  0  0  0  0  0  0  0
  124.4717  107.4732  109.2545 H   0  0  0  0  0  0  0  0  0  0  0  0
  122.9976  107.7513  108.3442 H   0  0  0  0  0  0  0  0  0  0  0  0
  125.5550  106.7436  106.9929 H   0  0  0  0  0  0  0  0  0  0  0  0
  122.9842  105.3371  107.6347 H   0  0  0  0  0  0  0  0  0  0  0  0
  126.0375  109.0188  106.5782 H   0  0  0  0  0  0  0  0  0  0  0  0
  126.0162  108.7038  108.2069 H   0  0  0  0  0  0  0  0  0  0  0  0
  124.7536  109.5180  107.5028 H   0  0  0  0  0  0  0  0  0  0  0  0
  1  5  1  0  0  0  0
  1  8  1  0  0  0  0
  1  9  2  0  0  0  0
  2  6  1  0  0  0  0
  3  6  1  0  0  0  0
  4  5  1  0  0  0  0
  4  6  1  0  0  0  0
  5  7  1  0  0  0  0
  2 10  1  0  0  0  0
  2 11  1  0  0  0  0
  2 12  1  0  0  0  0
  3 13  1  0  0  0  0
  3 14  1  0  0  0  0
  3 15  1  0  0  0  0
  4 16  1  0  0  0  0
  4 17  1  0  0  0  0
  5 18  1  0  0  0  0
  6 19  1  0  0  0  0
  7 20  1  0  0  0  0
  7 21  1  0  0  0  0
  7 22  1  0  0  0  0
M  CHG  2   7   1   8  -1
M  END
> <FRED Chemgauss4 score>
-6.690004

$$$$
C70590896	P108886031
  -OEChem-05182014473D

 28 28  0     1  0  0  0  0  0999 V2000
  123.7882  106.7696  105.9680 C   0  0  0  0  0  0  0  0  0  0  0  0
  124.9947  107.5060  106.5060 C   0  0  0  0  0  0  0  0  0  0  0  0
  124.6628  105.4676  107.7397 C   0  0  0  0  0  0  0  0  0  0  0  0
  125.7432  106.4353  107.2942 C   0  0  1  0  0  0  0  0  0  0  0  0
  118.8333  106.2982  106.5933 C   0  0  0  0  0  0  0  0  0  0  0  0
  122.5668  104.6535  106.5929 C   0  0  0  0  0  0  0  0  0  0  0  0
  120.0851  104.3801  107.1194 C   0  0  0  0  0  0  0  0  0  0  0  0
  121.4106  105.0177  107.5243 C   0  0  1  0  0  0  0  0  0  0  0  0
  123.6549  105.6002  106.7111 N   0  0  0  0  0  0  0  0  0  0  0  0
  123.0645  107.1838  105.0745 O   0  0  0  0  0  0  0  0  0  0  0  0
  126.6528  105.7519  106.4360 O   0  0  0  0  0  0  0  0  0  0  0  0
  121.7183  104.6068  108.8569 O   0  0  0  0  0  0  0  0  0  0  0  0
  119.5007  105.1559  106.0775 O   0  0  0  0  0  0  0  0  0  0  0  0
  125.5834  107.9156  105.6809 H   0  0  0  0  0  0  0  0  0  0  0  0
  124.6360  108.3060  107.1614 H   0  0  0  0  0  0  0  0  0  0  0  0
  125.0055  104.4301  107.7912 H   0  0  0  0  0  0  0  0  0  0  0  0
  124.2101  105.7709  108.6892 H   0  0  0  0  0  0  0  0  0  0  0  0
  126.3154  106.8460  108.1310 H   0  0  0  0  0  0  0  0  0  0  0  0
  118.3977  106.8694  105.7699 H   0  0  0  0  0  0  0  0  0  0  0  0
  119.5442  106.9184  107.1451 H   0  0  0  0  0  0  0  0  0  0  0  0
  118.0382  105.9711  107.2676 H   0  0  0  0  0  0  0  0  0  0  0  0
  122.9502  103.6588  106.8438 H   0  0  0  0  0  0  0  0  0  0  0  0
  122.2233  104.6286  105.5536 H   0  0  0  0  0  0  0  0  0  0  0  0
  119.3852  104.3599  107.9604 H   0  0  0  0  0  0  0  0  0  0  0  0
  120.2283  103.3653  106.7349 H   0  0  0  0  0  0  0  0  0  0  0  0
  121.2964  106.1079  107.5507 H   0  0  0  0  0  0  0  0  0  0  0  0
  127.2672  106.4207  106.0956 H   0  0  0  0  0  0  0  0  0  0  0  0
  122.5265  105.0785  109.1087 H   0  0  0  0  0  0  0  0  0  0  0  0
  1  2  1  0  0  0  0
  1  9  1  0  0  0  0
  1 10  2  0  0  0  0
  2  4  1  0  0  0  0
  3  4  1  0  0  0  0
  3  9  1  0  0  0  0
  4 11  1  0  0  0  0
  5 13  1  0  0  0  0
  6  8  1  0  0  0  0
  6  9  1  0  0  0  0
  7  8  1  0  0  0  0
  7 13  1  0  0  0  0
  8 12  1  0  0  0  0
  2 14  1  0  0  0  0
  2 15  1  0  0  0  0
  3 16  1  0  0  0  0
  3 17  1  0  0  0  0
  4 18  1  0  0  0  0
  5 19  1  0  0  0  0
  5 20  1  0  0  0  0
  5 21  1  0  0  0  0
  6 22  1  0  0  0  0
  6 23  1  0  0  0  0
  7 24  1  0  0  0  0
  7 25  1  0  0  0  0
  8 26  1  0  0  0  0
 11 27  1  0  0  0  0
 12 28  1  0  0  0  0
M  END
> <FRED Chemgauss4 score>
-6.689507

$$$$
C38006454	P120930283
  -OEChem-05182014473D

 24 25  0     1  0  0  0  0  0999 V2000
  123.2017  108.6279  111.2169 C   0  0  0  0  0  0  0  0  0  0  0  0
  121.4285  109.3423  110.1305 C   0  0  0  0  0  0  0  0  0  0  0  0
  122.5719  108.6011  109.9582 C   0  0  0  0  0  0  0  0  0  0  0  0
  124.5864  107.5063  105.7102 C   0  0  0  0  0  0  0  0  0  0  0  0
  123.5307  105.9160  106.8075 C   0  0  0  0  0  0  0  0  0  0  0  0
  125.4669  107.2579  106.9275 C   0  0  0  0  0  0  0  0  0  0  0  0
  124.6511  106.2721  107.7373 C   0  0  1  0  0  0  0  0  0  0  0  0
  123.0415  107.9167  108.7083 C   0  0  0  0  0  0  0  0  0  0  0  0
  122.5154  109.3306  112.1220 N   0  0  0  0  0  0  0  0  0  0  0  0
  123.5500  106.7183  105.6903 N   0  0  0  0  0  0  0  0  0  0  0  0
  121.4425  109.7523  111.4312 N   0  0  0  0  0  0  0  0  0  0  0  0
  124.1196  106.9201  108.9585 N   0  3  0  0  0  0  0  0  0  0  0  0
  124.9268  108.3740  104.8837 O   0  5  0  0  0  0  0  0  0  0  0  0
  122.6950  105.0548  107.0527 O   0  0  0  0  0  0  0  0  0  0  0  0
  124.1320  108.1652  111.5152 H   0  0  0  0  0  0  0  0  0  0  0  0
  120.6232  109.6103  109.4613 H   0  0  0  0  0  0  0  0  0  0  0  0
  126.4089  106.8036  106.5972 H   0  0  0  0  0  0  0  0  0  0  0  0
  125.6927  108.1895  107.4579 H   0  0  0  0  0  0  0  0  0  0  0  0
  125.2244  105.3932  108.0432 H   0  0  0  0  0  0  0  0  0  0  0  0
  122.2222  107.3779  108.2203 H   0  0  0  0  0  0  0  0  0  0  0  0
  123.4415  108.6389  107.9884 H   0  0  0  0  0  0  0  0  0  0  0  0
  120.7558  110.3201  111.9117 H   0  0  0  0  0  0  0  0  0  0  0  0
  123.7624  106.1981  109.6022 H   0  0  0  0  0  0  0  0  0  0  0  0
  124.8901  107.3830  109.4640 H   0  0  0  0  0  0  0  0  0  0  0  0
  1  3  1  0  0  0  0
  1  9  2  0  0  0  0
  2  3  2  0  0  0  0
  2 11  1  0  0  0  0
  3  8  1  0  0  0  0
  4  6  1  0  0  0  0
  4 10  2  0  0  0  0
  4 13  1  0  0  0  0
  5  7  1  0  0  0  0
  5 10  1  0  0  0  0
  5 14  2  0  0  0  0
  6  7  1  0  0  0  0
  7 12  1  0  0  0  0
  8 12  1  0  0  0  0
  9 11  1  0  0  0  0
  1 15  1  0  0  0  0
  2 16  1  0  0  0  0
  6 17  1  0  0  0  0
  6 18  1  0  0  0  0
  7 19  1  0  0  0  0
  8 20  1  0  0  0  0
  8 21  1  0  0  0  0
 11 22  1  0  0  0  0
 12 23  1  0  0  0  0
 12 24  1  0  0  0  0
M  CHG  2  12   1  13  -1
M  END
> <FRED Chemgauss4 score>
-6.686260

$$$$
C92799609	P145297781
  -OEChem-05182014473D

 38 40  0     1  0  0  0  0  0999 V2000
  117.7568  107.3029  106.1884 C   0  0  0  0  0  0  0  0  0  0  0  0
  127.3541  105.7151  108.1604 C   0  0  0  0  0  0  0  0  0  0  0  0
  125.6709  106.4876  107.1341 C   0  0  0  0  0  0  0  0  0  0  0  0
  125.2320  106.2064  108.4047 C   0  0  0  0  0  0  0  0  0  0  0  0
  117.9246  107.9179  104.9654 C   0  0  0  0  0  0  0  0  0  0  0  0
  119.7679  106.7297  104.9927 C   0  0  0  0  0  0  0  0  0  0  0  0
  124.7777  107.0711  106.1074 C   0  0  0  0  0  0  0  0  0  0  0  0
  123.8533  106.3968  108.9021 C   0  0  0  0  0  0  0  0  0  0  0  0
  123.2934  106.9290  106.5611 C   0  0  2  0  0  0  0  0  0  0  0  0
  116.9887  108.8779  104.3474 C   0  0  0  0  0  0  0  0  0  0  0  0
  120.9950  105.3454  103.2673 C   0  0  0  0  0  0  0  0  0  0  0  0
  122.3896  107.8101  105.7017 C   0  0  0  0  0  0  0  0  0  0  0  0
  121.0944  106.1357  104.5705 C   0  0  1  0  0  0  0  0  0  0  0  0
  126.9941  106.1867  106.9824 N   0  0  0  0  0  0  0  0  0  0  0  0
  119.0775  107.5907  104.2785 N   0  0  0  0  0  0  0  0  0  0  0  0
  126.3154  105.7058  109.0593 N   0  0  0  0  0  0  0  0  0  0  0  0
  123.0986  107.2884  107.9905 N   0  0  0  0  0  0  0  0  0  0  0  0
  122.1331  107.1677  104.4570 N   0  0  0  0  0  0  0  0  0  0  0  0
  119.0895  106.2695  106.5004 S   0  0  0  0  0  0  0  0  0  0  0  0
  116.9430  107.4049  106.8924 H   0  0  0  0  0  0  0  0  0  0  0  0
  128.3409  105.3659  108.4290 H   0  0  0  0  0  0  0  0  0  0  0  0
  125.0371  108.1289  105.9762 H   0  0  0  0  0  0  0  0  0  0  0  0
  124.9234  106.5679  105.1451 H   0  0  0  0  0  0  0  0  0  0  0  0
  123.3459  105.4275  108.9684 H   0  0  0  0  0  0  0  0  0  0  0  0
  123.8619  106.8423  109.9021 H   0  0  0  0  0  0  0  0  0  0  0  0
  122.9770  105.8858  106.4246 H   0  0  0  0  0  0  0  0  0  0  0  0
  117.2309  109.9127  104.6395 H   0  0  0  0  0  0  0  0  0  0  0  0
  117.0112  108.8264  103.2455 H   0  0  0  0  0  0  0  0  0  0  0  0
  115.9429  108.6827  104.6403 H   0  0  0  0  0  0  0  0  0  0  0  0
  120.6463  105.9811  102.4460 H   0  0  0  0  0  0  0  0  0  0  0  0
  121.9738  104.9385  102.9895 H   0  0  0  0  0  0  0  0  0  0  0  0
  120.3067  104.4971  103.3537 H   0  0  0  0  0  0  0  0  0  0  0  0
  122.8914  108.7517  105.5231 H   0  0  0  0  0  0  0  0  0  0  0  0
  121.4552  107.9687  106.2227 H   0  0  0  0  0  0  0  0  0  0  0  0
  121.4463  105.4505  105.3515 H   0  0  0  0  0  0  0  0  0  0  0  0
  126.3539  105.3866  110.0183 H   0  0  0  0  0  0  0  0  0  0  0  0
  122.1076  107.2440  108.2266 H   0  0  0  0  0  0  0  0  0  0  0  0
  121.8216  107.8486  103.7485 H   0  0  0  0  0  0  0  0  0  0  0  0
  1  5  2  0  0  0  0
  1 19  1  0  0  0  0
  2 14  2  0  0  0  0
  2 16  1  0  0  0  0
  3  4  2  0  0  0  0
  3  7  1  0  0  0  0
  3 14  1  0  0  0  0
  4  8  1  0  0  0  0
  4 16  1  0  0  0  0
  5 10  1  0  0  0  0
  5 15  1  0  0  0  0
  6 13  1  0  0  0  0
  6 15  2  0  0  0  0
  6 19  1  0  0  0  0
  7  9  1  0  0  0  0
  8 17  1  0  0  0  0
  9 12  1  0  0  0  0
  9 17  1  0  0  0  0
 11 13  1  0  0  0  0
 12 18  1  0  0  0  0
 13 18  1  0  0  0  0
  1 20  1  0  0  0  0
  2 21  1  0  0  0  0
  7 22  1  0  0  0  0
  7 23  1  0  0  0  0
  8 24  1  0  0  0  0
  8 25  1  0  0  0  0
  9 26  1  0  0  0  0
 10 27  1  0  0  0  0
 10 28  1  0  0  0  0
 10 29  1  0  0  0  0
 11 30  1  0  0  0  0
 11 31  1  0  0  0  0
 11 32  1  0  0  0  0
 12 33  1  0  0  0  0
 12 34  1  0  0  0  0
 13 35  1  0  0  0  0
 16 36  1  0  0  0  0
 17 37  1  0  0  0  0
 18 38  1  0  0  0  0
M  END
> <FRED Chemgauss4 score>
-6.681537

$$$$
C39941431	P60608793
  -OEChem-05182014473D

 22 23  0     1  0  0  0  0  0999 V2000
  123.6819  104.1062  108.2493 C   0  0  0  0  0  0  0  0  0  0  0  0
  123.2303  104.7301  107.0840 C   0  0  0  0  0  0  0  0  0  0  0  0
  124.8445  104.5528  108.8944 C   0  0  0  0  0  0  0  0  0  0  0  0
  123.9473  105.8093  106.5880 C   0  0  0  0  0  0  0  0  0  0  0  0
  125.1108  106.2480  107.2315 C   0  0  0  0  0  0  0  0  0  0  0  0
  125.5723  105.6279  108.3818 C   0  0  0  0  0  0  0  0  0  0  0  0
  125.7468  107.3818  106.4940 C   0  0  0  0  0  0  0  0  0  0  0  0
  123.6916  106.6072  105.3422 C   0  0  2  0  0  0  0  0  0  0  0  0
  124.6001  107.8387  105.5733 C   0  0  2  0  0  0  0  0  0  0  0  0
  122.3038  107.0182  105.1724 N   0  0  0  0  0  0  0  0  0  0  0  0
  125.1161  108.3245  104.3428 O   0  0  0  0  0  0  0  0  0  0  0  0
  126.6889  106.0462  108.9904 F   0  0  0  0  0  0  0  0  0  0  0  0
  123.1261  103.2690  108.6625 H   0  0  0  0  0  0  0  0  0  0  0  0
  122.3354  104.3745  106.5820 H   0  0  0  0  0  0  0  0  0  0  0  0
  125.1787  104.0592  109.8025 H   0  0  0  0  0  0  0  0  0  0  0  0
  126.0226  108.1703  107.2053 H   0  0  0  0  0  0  0  0  0  0  0  0
  126.6272  107.0529  105.9290 H   0  0  0  0  0  0  0  0  0  0  0  0
  124.0341  106.0411  104.4451 H   0  0  0  0  0  0  0  0  0  0  0  0
  124.0481  108.6877  106.0339 H   0  0  0  0  0  0  0  0  0  0  0  0
  121.5873  106.3602  105.3943 H   0  0  0  0  0  0  0  0  0  0  0  0
  122.1195  107.8520  104.6561 H   0  0  0  0  0  0  0  0  0  0  0  0
  125.6918  109.0701  104.5664 H   0  0  0  0  0  0  0  0  0  0  0  0
  1  2  1  0  0  0  0
  1  3  2  0  0  0  0
  2  4  2  0  0  0  0
  3  6  1  0  0  0  0
  4  5  1  0  0  0  0
  4  8  1  0  0  0  0
  5  6  2  0  0  0  0
  5  7  1  0  0  0  0
  6 12  1  0  0  0  0
  7  9  1  0  0  0  0
  8  9  1  0  0  0  0
  8 10  1  0  0  0  0
  9 11  1  0  0  0  0
  1 13  1  0  0  0  0
  2 14  1  0  0  0  0
  3 15  1  0  0  0  0
  7 16  1  0  0  0  0
  7 17  1  0  0  0  0
  8 18  1  0  0  0  0
  9 19  1  0  0  0  0
 10 20  1  0  0  0  0
 10 21  1  0  0  0  0
 11 22  1  0  0  0  0
M  END
> <FRED Chemgauss4 score>
-6.681043

$$$$
C83142747	P129966553
  -OEChem-05182014473D

 29 30  0     1  0  0  0  0  0999 V2000
  118.9604  104.5793  101.0996 C   0  0  0  0  0  0  0  0  0  0  0  0
  120.9210  105.1278  104.9733 C   0  0  0  0  0  0  0  0  0  0  0  0
  119.8392  105.0869  100.1657 C   0  0  0  0  0  0  0  0  0  0  0  0
  121.2575  105.4150  103.6715 C   0  0  0  0  0  0  0  0  0  0  0  0
  120.5627  105.2046  102.4603 C   0  0  0  0  0  0  0  0  0  0  0  0
  122.8459  106.0311  105.0693 C   0  0  0  0  0  0  0  0  0  0  0  0
  124.3184  105.1735  107.6189 C   0  0  0  0  0  0  0  0  0  0  0  0
  125.7138  107.2344  107.4449 C   0  0  0  0  0  0  0  0  0  0  0  0
  124.1744  106.6152  105.5154 C   0  0  2  0  0  0  0  0  0  0  0  0
  124.3727  106.5982  107.0526 C   0  0  0  0  0  0  0  0  0  0  0  0
  119.3738  104.6455  102.4158 N   0  0  0  0  0  0  0  0  0  0  0  0
  121.9138  105.5140  105.8386 N   0  0  0  0  0  0  0  0  0  0  0  0
  122.4929  105.9937  103.7490 N   0  0  0  0  0  0  0  0  0  0  0  0
  124.2694  107.9528  104.9709 N   0  0  0  0  0  0  0  0  0  0  0  0
  121.2425  105.6755  100.9566 S   0  0  0  0  0  0  0  0  0  0  0  0
  117.9972  104.1441  100.8712 H   0  0  0  0  0  0  0  0  0  0  0  0
  120.0161  104.6614  105.3369 H   0  0  0  0  0  0  0  0  0  0  0  0
  119.7263  105.1397   99.0923 H   0  0  0  0  0  0  0  0  0  0  0  0
  125.0912  104.5396  107.1708 H   0  0  0  0  0  0  0  0  0  0  0  0
  124.4753  105.1808  108.7031 H   0  0  0  0  0  0  0  0  0  0  0  0
  123.3457  104.7058  107.4377 H   0  0  0  0  0  0  0  0  0  0  0  0
  126.5547  106.6956  106.9952 H   0  0  0  0  0  0  0  0  0  0  0  0
  125.8466  107.2206  108.5321 H   0  0  0  0  0  0  0  0  0  0  0  0
  125.7681  108.2797  107.1247 H   0  0  0  0  0  0  0  0  0  0  0  0
  124.9983  106.0565  105.0524 H   0  0  0  0  0  0  0  0  0  0  0  0
  123.5802  107.1851  107.5351 H   0  0  0  0  0  0  0  0  0  0  0  0
  123.0482  106.3299  102.9728 H   0  0  0  0  0  0  0  0  0  0  0  0
  123.8566  108.1395  104.0759 H   0  0  0  0  0  0  0  0  0  0  0  0
  124.9092  108.6005  105.3925 H   0  0  0  0  0  0  0  0  0  0  0  0
  1  3  2  0  0  0  0
  1 11  1  0  0  0  0
  2  4  2  0  0  0  0
  2 12  1  0  0  0  0
  3 15  1  0  0  0  0
  4  5  1  0  0  0  0
  4 13  1  0  0  0  0
  5 11  2  0  0  0  0
  5 15  1  0  0  0  0
  6  9  1  0  0  0  0
  6 12  2  0  0  0  0
  6 13  1  0  0  0  0
  7 10  1  0  0  0  0
  8 10  1  0  0  0  0
  9 10  1  0  0  0  0
  9 14  1  0  0  0  0
  1 16  1  0  0  0  0
  2 17  1  0  0  0  0
  3 18  1  0  0  0  0
  7 19  1  0  0  0  0
  7 20  1  0  0  0  0
  7 21  1  0  0  0  0
  8 22  1  0  0  0  0
  8 23  1  0  0  0  0
  8 24  1  0  0  0  0
  9 25  1  0  0  0  0
 10 26  1  0  0  0  0
 13 27  1  0  0  0  0
 14 28  1  0  0  0  0
 14 29  1  0  0  0  0
M  END
> <FRED Chemgauss4 score>
-6.672232

$$$$
C26574468	P151033270
  -OEChem-05182014473D

 23 23  0     1  0  0  0  0  0999 V2000
  124.8737  105.4444  107.1194 C   0  0  2  0  0  0  0  0  0  0  0  0
  125.2781  106.9432  107.1621 C   0  0  1  0  0  0  0  0  0  0  0  0
  123.4145  105.4612  106.6496 C   0  0  2  0  0  0  0  0  0  0  0  0
  124.3468  107.6277  106.1332 C   0  0  2  0  0  0  0  0  0  0  0  0
  123.4793  106.5105  105.5441 C   0  0  2  0  0  0  0  0  0  0  0  0
  125.1289  104.6465  108.3917 C   0  0  0  0  0  0  0  0  0  0  0  0
  125.0837  107.5837  108.4631 N   0  0  0  0  0  0  0  0  0  0  0  0
  122.5360  105.8889  107.6826 O   0  0  0  0  0  0  0  0  0  0  0  0
  125.1241  108.2368  105.1093 O   0  0  0  0  0  0  0  0  0  0  0  0
  122.1897  106.9739  105.1883 O   0  0  0  0  0  0  0  0  0  0  0  0
  125.4754  104.9754  106.3207 H   0  0  0  0  0  0  0  0  0  0  0  0
  126.3329  107.0527  106.8852 H   0  0  0  0  0  0  0  0  0  0  0  0
  123.0703  104.4904  106.2803 H   0  0  0  0  0  0  0  0  0  0  0  0
  123.7296  108.4160  106.5813 H   0  0  0  0  0  0  0  0  0  0  0  0
  123.9469  106.0900  104.6431 H   0  0  0  0  0  0  0  0  0  0  0  0
  124.5561  105.0685  109.2175 H   0  0  0  0  0  0  0  0  0  0  0  0
  126.1887  104.6769  108.6444 H   0  0  0  0  0  0  0  0  0  0  0  0
  124.8291  103.6085  108.2472 H   0  0  0  0  0  0  0  0  0  0  0  0
  124.9381  108.5683  108.4805 H   0  0  0  0  0  0  0  0  0  0  0  0
  125.3046  107.0577  109.2789 H   0  0  0  0  0  0  0  0  0  0  0  0
  122.6386  105.2600  108.4150 H   0  0  0  0  0  0  0  0  0  0  0  0
  125.6366  107.5278  104.6890 H   0  0  0  0  0  0  0  0  0  0  0  0
  121.6848  106.2029  104.8779 H   0  0  0  0  0  0  0  0  0  0  0  0
  1  2  1  0  0  0  0
  1  3  1  0  0  0  0
  1  6  1  0  0  0  0
  2  4  1  0  0  0  0
  2  7  1  0  0  0  0
  3  5  1  0  0  0  0
  3  8  1  0  0  0  0
  4  5  1  0  0  0  0
  4  9  1  0  0  0  0
  5 10  1  0  0  0  0
  1 11  1  0  0  0  0
  2 12  1  0  0  0  0
  3 13  1  0  0  0  0
  4 14  1  0  0  0  0
  5 15  1  0  0  0  0
  6 16  1  0  0  0  0
  6 17  1  0  0  0  0
  6 18  1  0  0  0  0
  7 19  1  0  0  0  0
  7 20  1  0  0  0  0
  8 21  1  0  0  0  0
  9 22  1  0  0  0  0
 10 23  1  0  0  0  0
M  END
> <FRED Chemgauss4 score>
-6.670791

$$$$
C86553403	P135506298
  -OEChem-05182014473D

 28 28  0     1  0  0  0  0  0999 V2000
  123.6698  107.4092  106.0748 C   0  0  0  0  0  0  0  0  0  0  0  0
  123.1932  106.5438  107.0776 C   0  0  0  0  0  0  0  0  0  0  0  0
  121.9950  106.0811  106.5909 C   0  0  0  0  0  0  0  0  0  0  0  0
  121.0073  105.1465  107.1629 C   0  0  0  0  0  0  0  0  0  0  0  0
  120.7221  106.5052  104.4660 C   0  0  0  0  0  0  0  0  0  0  0  0
  125.3839  104.3836  107.3807 C   0  0  0  0  0  0  0  0  0  0  0  0
  123.8560  106.2038  108.3933 C   0  0  1  0  0  0  0  0  0  0  0  0
  125.2876  105.6442  108.2482 C   0  0  2  0  0  0  0  0  0  0  0  0
  122.8421  107.4929  105.0299 N   0  0  0  0  0  0  0  0  0  0  0  0
  121.8334  106.6741  105.3734 N   0  0  0  0  0  0  0  0  0  0  0  0
  126.1581  106.6697  107.7050 N   0  0  0  0  0  0  0  0  0  0  0  0
  124.3008  103.4955  107.6254 O   0  0  0  0  0  0  0  0  0  0  0  0
  123.8950  107.4077  109.1666 O   0  0  0  0  0  0  0  0  0  0  0  0
  124.5853  107.9832  106.0594 H   0  0  0  0  0  0  0  0  0  0  0  0
  120.2547  105.6820  107.7650 H   0  0  0  0  0  0  0  0  0  0  0  0
  120.4702  104.5814  106.3816 H   0  0  0  0  0  0  0  0  0  0  0  0
  121.4802  104.3907  107.8137 H   0  0  0  0  0  0  0  0  0  0  0  0
  119.9715  107.2625  104.7074 H   0  0  0  0  0  0  0  0  0  0  0  0
  121.0707  106.6270  103.4367 H   0  0  0  0  0  0  0  0  0  0  0  0
  120.3063  105.5010  104.5869 H   0  0  0  0  0  0  0  0  0  0  0  0
  126.3097  103.8391  107.5906 H   0  0  0  0  0  0  0  0  0  0  0  0
  125.3864  104.6349  106.3142 H   0  0  0  0  0  0  0  0  0  0  0  0
  123.2310  105.4981  108.9548 H   0  0  0  0  0  0  0  0  0  0  0  0
  125.7064  105.4202  109.2367 H   0  0  0  0  0  0  0  0  0  0  0  0
  127.0083  106.3878  107.2570 H   0  0  0  0  0  0  0  0  0  0  0  0
  125.9956  107.6229  107.9660 H   0  0  0  0  0  0  0  0  0  0  0  0
  124.4312  102.7288  107.0444 H   0  0  0  0  0  0  0  0  0  0  0  0
  124.4116  108.0433  108.6508 H   0  0  0  0  0  0  0  0  0  0  0  0
  1  2  1  0  0  0  0
  1  9  2  0  0  0  0
  2  3  2  0  0  0  0
  2  7  1  0  0  0  0
  3  4  1  0  0  0  0
  3 10  1  0  0  0  0
  5 10  1  0  0  0  0
  6  8  1  0  0  0  0
  6 12  1  0  0  0  0
  7  8  1  0  0  0  0
  7 13  1  0  0  0  0
  8 11  1  0  0  0  0
  9 10  1  0  0  0  0
  1 14  1  0  0  0  0
  4 15  1  0  0  0  0
  4 16  1  0  0  0  0
  4 17  1  0  0  0  0
  5 18  1  0  0  0  0
  5 19  1  0  0  0  0
  5 20  1  0  0  0  0
  6 21  1  0  0  0  0
  6 22  1  0  0  0  0
  7 23  1  0  0  0  0
  8 24  1  0  0  0  0
 11 25  1  0  0  0  0
 11 26  1  0  0  0  0
 12 27  1  0  0  0  0
 13 28  1  0  0  0  0
M  END
> <FRED Chemgauss4 score>
-6.667391

$$$$
C82410021	P128783110
  -OEChem-05182014473D

 21 21  0     1  0  0  0  0  0999 V2000
  125.3830  105.3862  109.4361 C   0  0  0  0  0  0  0  0  0  0  0  0
  124.2159  105.1892  107.6670 C   0  0  0  0  0  0  0  0  0  0  0  0
  124.7507  106.4548  107.6154 C   0  0  0  0  0  0  0  0  0  0  0  0
  123.3292  104.5302  106.6949 C   0  0  0  0  0  0  0  0  0  0  0  0
  125.0933  107.1310  105.2133 C   0  0  0  0  0  0  0  0  0  0  0  0
  124.6383  107.5742  106.6060 C   0  0  1  0  0  0  0  0  0  0  0  0
  124.6130  104.5293  108.8030 N   0  0  0  0  0  0  0  0  0  0  0  0
  125.4956  106.5666  108.7555 N   0  0  0  0  0  0  0  0  0  0  0  0
  125.4166  108.2905  104.4126 N   0  0  0  0  0  0  0  0  0  0  0  0
  123.2768  108.0016  106.5559 O   0  0  0  0  0  0  0  0  0  0  0  0
  125.8819  105.2176  110.3797 H   0  0  0  0  0  0  0  0  0  0  0  0
  123.9076  103.9831  105.9301 H   0  0  0  0  0  0  0  0  0  0  0  0
  122.6468  103.8058  107.1752 H   0  0  0  0  0  0  0  0  0  0  0  0
  122.6791  105.2508  106.1662 H   0  0  0  0  0  0  0  0  0  0  0  0
  124.3032  106.5667  104.7058 H   0  0  0  0  0  0  0  0  0  0  0  0
  125.9815  106.4924  105.2723 H   0  0  0  0  0  0  0  0  0  0  0  0
  125.2282  108.4359  106.9423 H   0  0  0  0  0  0  0  0  0  0  0  0
  126.0341  107.3726  109.0445 H   0  0  0  0  0  0  0  0  0  0  0  0
  124.8491  109.1137  104.5022 H   0  0  0  0  0  0  0  0  0  0  0  0
  126.0596  108.1866  103.6485 H   0  0  0  0  0  0  0  0  0  0  0  0
  123.0524  108.3050  107.4484 H   0  0  0  0  0  0  0  0  0  0  0  0
  1  7  2  0  0  0  0
  1  8  1  0  0  0  0
  2  3  2  0  0  0  0
  2  4  1  0  0  0  0
  2  7  1  0  0  0  0
  3  6  1  0  0  0  0
  3  8  1  0  0  0  0
  5  6  1  0  0  0  0
  5  9  1  0  0  0  0
  6 10  1  0  0  0  0
  1 11  1  0  0  0  0
  4 12  1  0  0  0  0
  4 13  1  0  0  0  0
  4 14  1  0  0  0  0
  5 15  1  0  0  0  0
  5 16  1  0  0  0  0
  6 17  1  0  0  0  0
  8 18  1  0  0  0  0
  9 19  1  0  0  0  0
  9 20  1  0  0  0  0
 10 21  1  0  0  0  0
M  END
> <FRED Chemgauss4 score>
-6.655972

$$$$
C36827785	P54736345
  -OEChem-05182014473D

 28 29  0     1  0  0  0  0  0999 V2000
  124.0213  106.2701  106.4332 C   0  0  0  0  0  0  0  0  0  0  0  0
  122.4839  106.8131  104.9735 C   0  0  0  0  0  0  0  0  0  0  0  0
  120.8328  104.6627  105.5893 C   0  0  0  0  0  0  0  0  0  0  0  0
  121.9908  104.7936  106.2574 C   0  0  0  0  0  0  0  0  0  0  0  0
  120.5468  105.7121  104.5599 C   0  0  0  0  0  0  0  0  0  0  0  0
  122.3766  103.7980  107.3100 C   0  0  0  0  0  0  0  0  0  0  0  0
  119.2514  105.5838  103.7975 C   0  0  0  0  0  0  0  0  0  0  0  0
  124.4605  106.0749  108.9207 C   0  0  0  0  0  0  0  0  0  0  0  0
  124.7773  105.5750  107.4925 C   0  0  2  0  0  0  0  0  0  0  0  0
  124.4197  107.3633  105.8267 N   0  0  0  0  0  0  0  0  0  0  0  0
  123.4537  107.7057  104.9087 N   0  0  0  0  0  0  0  0  0  0  0  0
  121.3202  106.7191  104.2720 N   0  0  0  0  0  0  0  0  0  0  0  0
  122.8091  105.8748  105.9399 N   0  0  0  0  0  0  0  0  0  0  0  0
  126.2228  105.6576  107.2951 N   0  0  0  0  0  0  0  0  0  0  0  0
  124.7385  107.4668  109.0350 O   0  0  0  0  0  0  0  0  0  0  0  0
  120.1252  103.8616  105.7570 H   0  0  0  0  0  0  0  0  0  0  0  0
  122.9442  102.9893  106.8548 H   0  0  0  0  0  0  0  0  0  0  0  0
  121.4797  103.3958  107.7768 H   0  0  0  0  0  0  0  0  0  0  0  0
  122.9841  104.2876  108.0684 H   0  0  0  0  0  0  0  0  0  0  0  0
  118.4730  106.1211  104.3287 H   0  0  0  0  0  0  0  0  0  0  0  0
  118.9894  104.5339  103.7172 H   0  0  0  0  0  0  0  0  0  0  0  0
  119.3812  106.0029  102.8051 H   0  0  0  0  0  0  0  0  0  0  0  0
  123.3972  105.9303  109.1416 H   0  0  0  0  0  0  0  0  0  0  0  0
  125.0512  105.5433  109.6747 H   0  0  0  0  0  0  0  0  0  0  0  0
  124.5747  104.4831  107.4820 H   0  0  0  0  0  0  0  0  0  0  0  0
  126.5713  105.6120  106.3627 H   0  0  0  0  0  0  0  0  0  0  0  0
  126.8109  105.5510  108.0926 H   0  0  0  0  0  0  0  0  0  0  0  0
  124.5214  107.7192  109.9462 H   0  0  0  0  0  0  0  0  0  0  0  0
  1  9  1  0  0  0  0
  1 10  2  0  0  0  0
  1 13  1  0  0  0  0
  2 11  2  0  0  0  0
  2 12  1  0  0  0  0
  2 13  1  0  0  0  0
  3  4  2  0  0  0  0
  3  5  1  0  0  0  0
  4  6  1  0  0  0  0
  4 13  1  0  0  0  0
  5  7  1  0  0  0  0
  5 12  2  0  0  0  0
  8  9  1  0  0  0  0
  8 15  1  0  0  0  0
  9 14  1  0  0  0  0
 10 11  1  0  0  0  0
  3 16  1  0  0  0  0
  6 17  1  0  0  0  0
  6 18  1  0  0  0  0
  6 19  1  0  0  0  0
  7 20  1  0  0  0  0
  7 21  1  0  0  0  0
  7 22  1  0  0  0  0
  8 23  1  0  0  0  0
  8 24  1  0  0  0  0
  9 25  1  0  0  0  0
 14 26  1  0  0  0  0
 14 27  1  0  0  0  0
 15 28  1  0  0  0  0
M  END
> <FRED Chemgauss4 score>
-6.650785

$$$$
L-Cysteine	P10000030
  -OEChem-05182014473D

 14 13  0     1  0  0  0  0  0999 V2000
  124.3026  107.3383  105.5265 C   0  0  0  0  0  0  0  0  0  0  0  0
  124.0419  105.1361  106.8985 C   0  0  0  0  0  0  0  0  0  0  0  0
  124.7348  106.4918  106.7374 C   0  0  2  0  0  0  0  0  0  0  0  0
  124.6340  107.1962  108.0562 N   0  3  0  0  0  0  0  0  0  0  0  0
  123.0741  107.6342  105.4880 O   0  5  0  0  0  0  0  0  0  0  0  0
  125.2147  107.6183  104.6986 O   0  0  0  0  0  0  0  0  0  0  0  0
  124.9738  103.9607  107.9344 S   0  0  0  0  0  0  0  0  0  0  0  0
  123.0536  105.2684  107.3528 H   0  0  0  0  0  0  0  0  0  0  0  0
  123.8848  104.6667  105.9218 H   0  0  0  0  0  0  0  0  0  0  0  0
  125.8083  106.3108  106.5991 H   0  0  0  0  0  0  0  0  0  0  0  0
  125.0901  108.1074  108.0043 H   0  0  0  0  0  0  0  0  0  0  0  0
  125.0866  106.6437  108.7852 H   0  0  0  0  0  0  0  0  0  0  0  0
  123.6547  107.3330  108.3082 H   0  0  0  0  0  0  0  0  0  0  0  0
  124.9718  104.7218  109.0362 H   0  0  0  0  0  0  0  0  0  0  0  0
  1  3  1  0  0  0  0
  1  5  1  0  0  0  0
  1  6  2  0  0  0  0
  2  3  1  0  0  0  0
  2  7  1  0  0  0  0
  3  4  1  0  0  0  0
  2  8  1  0  0  0  0
  2  9  1  0  0  0  0
  3 10  1  0  0  0  0
  4 11  1  0  0  0  0
  4 12  1  0  0  0  0
  4 13  1  0  0  0  0
  7 14  1  0  0  0  0
M  CHG  2   4   1   5  -1
M  END
> <FRED Chemgauss4 score>
-6.647082

$$$$
C95627120	P150369225
  -OEChem-05182014473D

 19 19  0     1  0  0  0  0  0999 V2000
  124.9447  107.4148  106.4292 C   0  0  0  0  0  0  0  0  0  0  0  0
  123.5191  105.3289  106.8664 C   0  0  0  0  0  0  0  0  0  0  0  0
  124.7846  106.3860  108.7261 C   0  0  0  0  0  0  0  0  0  0  0  0
  123.8312  106.5029  105.9363 C   0  0  1  0  0  0  0  0  0  0  0  0
  123.4696  105.7350  108.3339 C   0  0  1  0  0  0  0  0  0  0  0  0
  125.2440  107.3804  107.7724 N   0  0  0  0  0  0  0  0  0  0  0  0
  122.6638  107.3613  105.7336 N   0  0  0  0  0  0  0  0  0  0  0  0
  125.4993  108.2031  105.6589 O   0  0  0  0  0  0  0  0  0  0  0  0
  122.3875  106.6288  108.5672 O   0  0  0  0  0  0  0  0  0  0  0  0
  122.5537  104.8507  106.5880 H   0  0  0  0  0  0  0  0  0  0  0  0
  124.2684  104.5202  106.7283 H   0  0  0  0  0  0  0  0  0  0  0  0
  124.6975  106.8877  109.6968 H   0  0  0  0  0  0  0  0  0  0  0  0
  125.5724  105.6335  108.8343 H   0  0  0  0  0  0  0  0  0  0  0  0
  124.1571  106.1247  104.9597 H   0  0  0  0  0  0  0  0  0  0  0  0
  123.2962  104.8309  108.9583 H   0  0  0  0  0  0  0  0  0  0  0  0
  125.8435  108.1203  108.1331 H   0  0  0  0  0  0  0  0  0  0  0  0
  121.7706  106.9262  105.6604 H   0  0  0  0  0  0  0  0  0  0  0  0
  122.8209  108.3105  105.4749 H   0  0  0  0  0  0  0  0  0  0  0  0
  122.4066  106.8509  109.5121 H   0  0  0  0  0  0  0  0  0  0  0  0
  1  4  1  0  0  0  0
  1  6  1  0  0  0  0
  1  8  2  0  0  0  0
  2  4  1  0  0  0  0
  2  5  1  0  0  0  0
  3  5  1  0  0  0  0
  3  6  1  0  0  0  0
  4  7  1  0  0  0  0
  5  9  1  0  0  0  0
  2 10  1  0  0  0  0
  2 11  1  0  0  0  0
  3 12  1  0  0  0  0
  3 13  1  0  0  0  0
  4 14  1  0  0  0  0
  5 15  1  0  0  0  0
  6 16  1  0  0  0  0
  7 17  1  0  0  0  0
  7 18  1  0  0  0  0
  9 19  1  0  0  0  0
M  END
> <FRED Chemgauss4 score>
-6.644341

$$$$
C83758292	P131046739
  -OEChem-05182014473D

 27 27  0     1  0  0  0  0  0999 V2000
  121.2068  105.3449  102.3832 C   0  0  0  0  0  0  0  0  0  0  0  0
  120.3759  105.3244  101.2817 C   0  0  0  0  0  0  0  0  0  0  0  0
  118.5957  104.7482  102.5725 C   0  0  0  0  0  0  0  0  0  0  0  0
  120.6083  105.0389  103.5884 C   0  0  0  0  0  0  0  0  0  0  0  0
  123.2322  106.2028  105.9503 C   0  0  0  0  0  0  0  0  0  0  0  0
  120.6355  104.6596  106.1109 C   0  0  0  0  0  0  0  0  0  0  0  0
  123.8886  107.5577  106.1431 C   0  0  0  0  0  0  0  0  0  0  0  0
  121.4420  105.0356  104.8580 C   0  0  2  0  0  0  0  0  0  0  0  0
  119.0607  105.0292  101.3403 N   0  0  0  0  0  0  0  0  0  0  0  0
  119.3005  104.7348  103.7200 N   0  0  0  0  0  0  0  0  0  0  0  0
  120.0863  103.3316  106.0230 N   0  0  0  0  0  0  0  0  0  0  0  0
  122.0963  106.3347  105.0544 N   0  0  0  0  0  0  0  0  0  0  0  0
  124.3642  108.0344  104.8907 O   0  0  0  0  0  0  0  0  0  0  0  0
  122.2584  105.5869  102.2973 H   0  0  0  0  0  0  0  0  0  0  0  0
  120.7558  105.5515  100.2913 H   0  0  0  0  0  0  0  0  0  0  0  0
  117.5424  104.5077  102.6483 H   0  0  0  0  0  0  0  0  0  0  0  0
  123.9309  105.4817  105.5144 H   0  0  0  0  0  0  0  0  0  0  0  0
  122.8688  105.8161  106.9072 H   0  0  0  0  0  0  0  0  0  0  0  0
  121.2771  104.6705  106.9994 H   0  0  0  0  0  0  0  0  0  0  0  0
  119.8026  105.3464  106.2952 H   0  0  0  0  0  0  0  0  0  0  0  0
  124.7457  107.4662  106.8174 H   0  0  0  0  0  0  0  0  0  0  0  0
  123.1867  108.2900  106.5551 H   0  0  0  0  0  0  0  0  0  0  0  0
  122.2429  104.2936  104.7420 H   0  0  0  0  0  0  0  0  0  0  0  0
  119.2703  103.1022  106.5663 H   0  0  0  0  0  0  0  0  0  0  0  0
  120.6312  102.6041  105.5898 H   0  0  0  0  0  0  0  0  0  0  0  0
  121.4204  106.9816  105.4505 H   0  0  0  0  0  0  0  0  0  0  0  0
  124.7744  108.8981  105.0580 H   0  0  0  0  0  0  0  0  0  0  0  0
  1  2  1  0  0  0  0
  1  4  2  0  0  0  0
  2  9  2  0  0  0  0
  3  9  1  0  0  0  0
  3 10  2  0  0  0  0
  4  8  1  0  0  0  0
  4 10  1  0  0  0  0
  5  7  1  0  0  0  0
  5 12  1  0  0  0  0
  6  8  1  0  0  0  0
  6 11  1  0  0  0  0
  7 13  1  0  0  0  0
  8 12  1  0  0  0  0
  1 14  1  0  0  0  0
  2 15  1  0  0  0  0
  3 16  1  0  0  0  0
  5 17  1  0  0  0  0
  5 18  1  0  0  0  0
  6 19  1  0  0  0  0
  6 20  1  0  0  0  0
  7 21  1  0  0  0  0
  7 22  1  0  0  0  0
  8 23  1  0  0  0  0
 11 24  1  0  0  0  0
 11 25  1  0  0  0  0
 12 26  1  0  0  0  0
 13 27  1  0  0  0  0
M  END
> <FRED Chemgauss4 score>
-6.642923

$$$$
C40807009	P61962224
  -OEChem-05182014473D

 27 27  0     0  0  0  0  0  0999 V2000
  125.0692  104.9088  108.6472 C   0  0  0  0  0  0  0  0  0  0  0  0
  123.7515  105.1566  108.2792 C   0  0  0  0  0  0  0  0  0  0  0  0
  126.0710  105.2999  107.7735 C   0  0  0  0  0  0  0  0  0  0  0  0
  123.4795  105.7791  107.0660 C   0  0  0  0  0  0  0  0  0  0  0  0
  124.5525  106.1314  106.2632 C   0  0  0  0  0  0  0  0  0  0  0  0
  119.4733  103.9117  106.1813 C   0  0  0  0  0  0  0  0  0  0  0  0
  120.9672  103.8081  105.8649 C   0  0  0  0  0  0  0  0  0  0  0  0
  118.6742  104.2715  104.9368 C   0  0  0  0  0  0  0  0  0  0  0  0
  125.8458  105.9070  106.5868 N   0  0  0  0  0  0  0  0  0  0  0  0
  121.4757  105.0900  105.3969 N   0  5  0  0  0  0  0  0  0  0  0  0
  118.9102  103.2445  103.8936 N   0  3  0  0  0  0  0  0  0  0  0  0
  121.7877  107.5086  106.2435 O   0  0  0  0  0  0  0  0  0  0  0  0
  121.0447  105.8015  107.8406 O   0  0  0  0  0  0  0  0  0  0  0  0
  121.7665  106.0929  106.6040 S   0  0  0  0  0  0  0  0  0  0  0  0
  124.3582  106.9065  104.7392 Cl  0  0  0  0  0  0  0  0  0  0  0  0
  125.3048  104.4248  109.5880 H   0  0  0  0  0  0  0  0  0  0  0  0
  122.9461  104.8601  108.9457 H   0  0  0  0  0  0  0  0  0  0  0  0
  127.1152  105.1293  108.0138 H   0  0  0  0  0  0  0  0  0  0  0  0
  119.1128  102.9590  106.5911 H   0  0  0  0  0  0  0  0  0  0  0  0
  119.3096  104.6693  106.9591 H   0  0  0  0  0  0  0  0  0  0  0  0
  121.1239  103.0301  105.1078 H   0  0  0  0  0  0  0  0  0  0  0  0
  121.5060  103.4829  106.7632 H   0  0  0  0  0  0  0  0  0  0  0  0
  118.9849  105.2311  104.5131 H   0  0  0  0  0  0  0  0  0  0  0  0
  117.5976  104.2851  105.1306 H   0  0  0  0  0  0  0  0  0  0  0  0
  118.3530  102.4023  104.0740 H   0  0  0  0  0  0  0  0  0  0  0  0
  119.8982  102.9692  103.8664 H   0  0  0  0  0  0  0  0  0  0  0  0
  118.6555  103.5984  102.9649 H   0  0  0  0  0  0  0  0  0  0  0  0
  1  2  1  0  0  0  0
  1  3  2  0  0  0  0
  2  4  2  0  0  0  0
  3  9  1  0  0  0  0
  4  5  1  0  0  0  0
  4 14  1  0  0  0  0
  5  9  2  0  0  0  0
  5 15  1  0  0  0  0
  6  7  1  0  0  0  0
  6  8  1  0  0  0  0
  7 10  1  0  0  0  0
  8 11  1  0  0  0  0
 10 14  1  0  0  0  0
 12 14  2  0  0  0  0
 13 14  2  0  0  0  0
  1 16  1  0  0  0  0
  2 17  1  0  0  0  0
  3 18  1  0  0  0  0
  6 19  1  0  0  0  0
  6 20  1  0  0  0  0
  7 21  1  0  0  0  0
  7 22  1  0  0  0  0
  8 23  1  0  0  0  0
  8 24  1  0  0  0  0
 11 25  1  0  0  0  0
 11 26  1  0  0  0  0
 11 27  1  0  0  0  0
M  CHG  2  10  -1  11   1
M  END
> <FRED Chemgauss4 score>
-6.636347

$$$$
C84386632	P132041144
  -OEChem-05182014473D

 22 22  0     1  0  0  0  0  0999 V2000
  120.3190  103.9362  106.2785 C   0  0  0  0  0  0  0  0  0  0  0  0
  120.9101  104.7937  106.8757 C   0  0  0  0  0  0  0  0  0  0  0  0
  123.9156  105.0700  108.0232 C   0  0  0  0  0  0  0  0  0  0  0  0
  123.3810  106.6107  106.0996 C   0  0  0  0  0  0  0  0  0  0  0  0
  125.3680  105.1038  107.6109 C   0  0  0  0  0  0  0  0  0  0  0  0
  125.7300  106.4209  106.9592 C   0  0  0  0  0  0  0  0  0  0  0  0
  124.8558  106.6067  105.7318 C   0  0  2  0  0  0  0  0  0  0  0  0
  121.6268  105.8413  107.6073 C   0  0  0  0  0  0  0  0  0  0  0  0
  123.0397  105.8501  107.2421 N   0  0  0  0  0  0  0  0  0  0  0  0
  125.1691  107.8857  105.0979 N   0  0  0  0  0  0  0  0  0  0  0  0
  123.5649  104.3423  108.9546 O   0  0  0  0  0  0  0  0  0  0  0  0
  122.5509  107.1955  105.3986 O   0  0  0  0  0  0  0  0  0  0  0  0
  119.7952  103.1751  105.7489 H   0  0  0  0  0  0  0  0  0  0  0  0
  125.9840  104.9581  108.5052 H   0  0  0  0  0  0  0  0  0  0  0  0
  125.5507  104.2631  106.9322 H   0  0  0  0  0  0  0  0  0  0  0  0
  125.5795  107.2415  107.6735 H   0  0  0  0  0  0  0  0  0  0  0  0
  126.7913  106.4152  106.6833 H   0  0  0  0  0  0  0  0  0  0  0  0
  125.0204  105.7943  105.0141 H   0  0  0  0  0  0  0  0  0  0  0  0
  121.5371  105.6810  108.6862 H   0  0  0  0  0  0  0  0  0  0  0  0
  121.1915  106.8204  107.3837 H   0  0  0  0  0  0  0  0  0  0  0  0
  124.4652  108.3159  104.5390 H   0  0  0  0  0  0  0  0  0  0  0  0
  126.1220  108.1764  105.0768 H   0  0  0  0  0  0  0  0  0  0  0  0
  1  2  3  0  0  0  0
  2  8  1  0  0  0  0
  3  5  1  0  0  0  0
  3  9  1  0  0  0  0
  3 11  2  0  0  0  0
  4  7  1  0  0  0  0
  4  9  1  0  0  0  0
  4 12  2  0  0  0  0
  5  6  1  0  0  0  0
  6  7  1  0  0  0  0
  7 10  1  0  0  0  0
  8  9  1  0  0  0  0
  1 13  1  0  0  0  0
  5 14  1  0  0  0  0
  5 15  1  0  0  0  0
  6 16  1  0  0  0  0
  6 17  1  0  0  0  0
  7 18  1  0  0  0  0
  8 19  1  0  0  0  0
  8 20  1  0  0  0  0
 10 21  1  0  0  0  0
 10 22  1  0  0  0  0
M  END
> <FRED Chemgauss4 score>
-6.635940

$$$$
C05131842	P07583908
  -OEChem-05182014473D

 29 29  0     1  0  0  0  0  0999 V2000
  120.5668  106.8888  106.2611 C   0  0  0  0  0  0  0  0  0  0  0  0
  122.8715  106.8359  106.7629 C   0  0  1  0  0  0  0  0  0  0  0  0
  122.6657  106.4489  105.2904 C   0  0  1  0  0  0  0  0  0  0  0  0
  125.6254  105.6618  108.4116 C   0  0  0  0  0  0  0  0  0  0  0  0
  123.9222  107.9055  107.0276 C   0  0  2  0  0  0  0  0  0  0  0  0
  125.6812  106.0091  106.9245 C   0  0  1  0  0  0  0  0  0  0  0  0
  125.3543  107.4857  106.6538 C   0  0  1  0  0  0  0  0  0  0  0  0
  121.5520  107.2595  107.1887 N   0  0  0  0  0  0  0  0  0  0  0  0
  121.2330  106.3408  105.1552 N   0  0  0  0  0  0  0  0  0  0  0  0
  119.3573  107.0145  106.3941 O   0  0  0  0  0  0  0  0  0  0  0  0
  123.1239  107.4523  104.4011 O   0  0  0  0  0  0  0  0  0  0  0  0
  126.5546  106.4850  109.1096 O   0  0  0  0  0  0  0  0  0  0  0  0
  123.8945  108.2145  108.4251 O   0  0  0  0  0  0  0  0  0  0  0  0
  126.9960  105.7269  106.4416 O   0  0  0  0  0  0  0  0  0  0  0  0
  125.5336  107.7374  105.2549 O   0  0  0  0  0  0  0  0  0  0  0  0
  123.0957  105.9369  107.3498 H   0  0  0  0  0  0  0  0  0  0  0  0
  123.1397  105.4960  105.0376 H   0  0  0  0  0  0  0  0  0  0  0  0
  124.6290  105.8513  108.8224 H   0  0  0  0  0  0  0  0  0  0  0  0
  125.9066  104.6193  108.5913 H   0  0  0  0  0  0  0  0  0  0  0  0
  123.6484  108.8298  106.5071 H   0  0  0  0  0  0  0  0  0  0  0  0
  124.9906  105.3618  106.3726 H   0  0  0  0  0  0  0  0  0  0  0  0
  126.0796  108.1202  107.1781 H   0  0  0  0  0  0  0  0  0  0  0  0
  121.3643  107.7618  108.0509 H   0  0  0  0  0  0  0  0  0  0  0  0
  120.7654  105.9203  104.3585 H   0  0  0  0  0  0  0  0  0  0  0  0
  122.9579  107.1303  103.4990 H   0  0  0  0  0  0  0  0  0  0  0  0
  126.4935  106.2395  110.0461 H   0  0  0  0  0  0  0  0  0  0  0  0
  124.5694  108.8942  108.5646 H   0  0  0  0  0  0  0  0  0  0  0  0
  127.1438  104.7811  106.5903 H   0  0  0  0  0  0  0  0  0  0  0  0
  125.3929  108.6869  105.1324 H   0  0  0  0  0  0  0  0  0  0  0  0
  1  8  1  0  0  0  0
  1  9  1  0  0  0  0
  1 10  2  0  0  0  0
  2  3  1  0  0  0  0
  2  5  1  0  0  0  0
  2  8  1  0  0  0  0
  3  9  1  0  0  0  0
  3 11  1  0  0  0  0
  4  6  1  0  0  0  0
  4 12  1  0  0  0  0
  5  7  1  0  0  0  0
  5 13  1  0  0  0  0
  6  7  1  0  0  0  0
  6 14  1  0  0  0  0
  7 15  1  0  0  0  0
  2 16  1  0  0  0  0
  3 17  1  0  0  0  0
  4 18  1  0  0  0  0
  4 19  1  0  0  0  0
  5 20  1  0  0  0  0
  6 21  1  0  0  0  0
  7 22  1  0  0  0  0
  8 23  1  0  0  0  0
  9 24  1  0  0  0  0
 11 25  1  0  0  0  0
 12 26  1  0  0  0  0
 13 27  1  0  0  0  0
 14 28  1  0  0  0  0
 15 29  1  0  0  0  0
M  END
> <FRED Chemgauss4 score>
-6.631800

$$$$
C86525873	P135471823
  -OEChem-05182014473D

 26 26  0     1  0  0  0  0  0999 V2000
  126.2928  104.3933  108.2489 C   0  0  0  0  0  0  0  0  0  0  0  0
  125.5789  105.9213  107.0190 C   0  0  0  0  0  0  0  0  0  0  0  0
  120.0222  107.3328  106.2459 C   0  0  0  0  0  0  0  0  0  0  0  0
  121.0382  106.9999  105.1682 C   0  0  0  0  0  0  0  0  0  0  0  0
  122.0962  106.0285  105.6686 C   0  0  0  0  0  0  0  0  0  0  0  0
  123.7542  107.5452  106.3565 C   0  0  0  0  0  0  0  0  0  0  0  0
  125.0103  106.7884  105.9165 C   0  0  1  0  0  0  0  0  0  0  0  0
  125.7608  104.6212  107.0121 N   0  0  0  0  0  0  0  0  0  0  0  0
  126.4515  105.4706  109.0207 N   0  0  0  0  0  0  0  0  0  0  0  0
  125.9873  106.4342  108.2107 N   0  0  0  0  0  0  0  0  0  0  0  0
  126.0117  107.7066  105.4176 N   0  0  0  0  0  0  0  0  0  0  0  0
  122.7681  106.6117  106.7764 O   0  0  0  0  0  0  0  0  0  0  0  0
  126.5737  103.4111  108.5988 H   0  0  0  0  0  0  0  0  0  0  0  0
  119.5288  106.4271  106.6127 H   0  0  0  0  0  0  0  0  0  0  0  0
  120.5141  107.8188  107.0944 H   0  0  0  0  0  0  0  0  0  0  0  0
  119.2538  108.0124  105.8641 H   0  0  0  0  0  0  0  0  0  0  0  0
  121.5205  107.9191  104.8146 H   0  0  0  0  0  0  0  0  0  0  0  0
  120.5293  106.5724  104.2959 H   0  0  0  0  0  0  0  0  0  0  0  0
  121.6406  105.0875  105.9934 H   0  0  0  0  0  0  0  0  0  0  0  0
  122.8326  105.8161  104.8869 H   0  0  0  0  0  0  0  0  0  0  0  0
  123.9709  108.2026  107.2057 H   0  0  0  0  0  0  0  0  0  0  0  0
  123.3334  108.1479  105.5443 H   0  0  0  0  0  0  0  0  0  0  0  0
  124.7514  106.1601  105.0549 H   0  0  0  0  0  0  0  0  0  0  0  0
  125.9822  107.3941  108.5356 H   0  0  0  0  0  0  0  0  0  0  0  0
  125.7104  108.5333  104.9358 H   0  0  0  0  0  0  0  0  0  0  0  0
  126.9675  107.4043  105.3815 H   0  0  0  0  0  0  0  0  0  0  0  0
  1  8  1  0  0  0  0
  1  9  2  0  0  0  0
  2  7  1  0  0  0  0
  2  8  2  0  0  0  0
  2 10  1  0  0  0  0
  3  4  1  0  0  0  0
  4  5  1  0  0  0  0
  5 12  1  0  0  0  0
  6  7  1  0  0  0  0
  6 12  1  0  0  0  0
  7 11  1  0  0  0  0
  9 10  1  0  0  0  0
  1 13  1  0  0  0  0
  3 14  1  0  0  0  0
  3 15  1  0  0  0  0
  3 16  1  0  0  0  0
  4 17  1  0  0  0  0
  4 18  1  0  0  0  0
  5 19  1  0  0  0  0
  5 20  1  0  0  0  0
  6 21  1  0  0  0  0
  6 22  1  0  0  0  0
  7 23  1  0  0  0  0
 10 24  1  0  0  0  0
 11 25  1  0  0  0  0
 11 26  1  0  0  0  0
M  END
> <FRED Chemgauss4 score>
-6.626610

$$$$
C97248644	P154004608
  -OEChem-05182014473D

 43 44  0     1  0  0  0  0  0999 V2000
  125.5234  103.9811  107.3359 C   0  0  0  0  0  0  0  0  0  0  0  0
  124.6426  105.1405  109.2638 C   0  0  0  0  0  0  0  0  0  0  0  0
  124.7021  104.7413  106.5034 C   0  0  0  0  0  0  0  0  0  0  0  0
  123.8213  105.9008  108.4313 C   0  0  0  0  0  0  0  0  0  0  0  0
  125.4936  104.1806  108.7162 C   0  0  0  0  0  0  0  0  0  0  0  0
  123.8511  105.7012  107.0511 C   0  0  0  0  0  0  0  0  0  0  0  0
  119.4183  105.3641  104.7806 C   0  0  0  0  0  0  0  0  0  0  0  0
  120.9005  104.7912  106.5394 C   0  0  0  0  0  0  0  0  0  0  0  0
  119.6856  104.2628  105.7929 C   0  0  1  0  0  0  0  0  0  0  0  0
  120.8136  105.7935  104.3283 C   0  0  2  0  0  0  0  0  0  0  0  0
  120.5614  104.1520  100.9992 C   0  0  0  0  0  0  0  0  0  0  0  0
  120.6142  106.5248  101.3724 C   0  0  0  0  0  0  0  0  0  0  0  0
  121.3052  105.0192  103.1127 C   0  0  0  0  0  0  0  0  0  0  0  0
  121.7047  105.4765  105.4909 N   0  0  1  0  0  0  0  0  0  0  0  0
  126.1334  103.3699  110.9197 N   0  0  0  0  0  0  0  0  0  0  0  0
  126.3239  103.4121  109.5584 N   0  0  0  0  0  0  0  0  0  0  0  0
  120.4143  105.2119  102.0145 N   0  0  0  0  0  0  0  0  0  0  0  0
  122.1255  107.6366  106.8281 O   0  0  0  0  0  0  0  0  0  0  0  0
  123.6060  107.0932  104.8633 O   0  0  0  0  0  0  0  0  0  0  0  0
  118.5895  104.0880  106.6683 O   0  0  0  0  0  0  0  0  0  0  0  0
  122.8098  106.6644  105.9973 S   0  0  0  0  0  0  0  0  0  0  0  0
  126.1826  103.2355  106.8985 H   0  0  0  0  0  0  0  0  0  0  0  0
  124.6122  105.3049  110.3380 H   0  0  0  0  0  0  0  0  0  0  0  0
  124.7336  104.5772  105.4297 H   0  0  0  0  0  0  0  0  0  0  0  0
  123.1620  106.6458  108.8690 H   0  0  0  0  0  0  0  0  0  0  0  0
  118.8375  104.9612  103.9361 H   0  0  0  0  0  0  0  0  0  0  0  0
  118.8619  106.2110  105.2069 H   0  0  0  0  0  0  0  0  0  0  0  0
  120.6259  105.4717  107.3473 H   0  0  0  0  0  0  0  0  0  0  0  0
  121.5039  103.9715  106.9367 H   0  0  0  0  0  0  0  0  0  0  0  0
  119.8937  103.2955  105.3026 H   0  0  0  0  0  0  0  0  0  0  0  0
  120.8402  106.8673  104.1308 H   0  0  0  0  0  0  0  0  0  0  0  0
  120.4164  103.1701  101.4572 H   0  0  0  0  0  0  0  0  0  0  0  0
  121.5602  104.1893  100.5558 H   0  0  0  0  0  0  0  0  0  0  0  0
  119.8207  104.2831  100.2058 H   0  0  0  0  0  0  0  0  0  0  0  0
  120.5087  107.3240  102.1106 H   0  0  0  0  0  0  0  0  0  0  0  0
  119.8738  106.6757  100.5822 H   0  0  0  0  0  0  0  0  0  0  0  0
  121.6133  106.5820  100.9321 H   0  0  0  0  0  0  0  0  0  0  0  0
  121.3431  103.9625  103.3551 H   0  0  0  0  0  0  0  0  0  0  0  0
  122.2910  105.3747  102.8332 H   0  0  0  0  0  0  0  0  0  0  0  0
  127.0432  103.4471  111.3720 H   0  0  0  0  0  0  0  0  0  0  0  0
  125.7733  102.4494  111.1681 H   0  0  0  0  0  0  0  0  0  0  0  0
  126.9286  102.7254  109.1308 H   0  0  0  0  0  0  0  0  0  0  0  0
  117.8273  103.8520  106.1161 H   0  0  0  0  0  0  0  0  0  0  0  0
  1  3  2  0  0  0  0
  1  5  1  0  0  0  0
  2  4  1  0  0  0  0
  2  5  2  0  0  0  0
  3  6  1  0  0  0  0
  4  6  2  0  0  0  0
  5 16  1  0  0  0  0
  6 21  1  0  0  0  0
  7  9  1  0  0  0  0
  7 10  1  0  0  0  0
  8  9  1  0  0  0  0
  8 14  1  0  0  0  0
  9 20  1  0  0  0  0
 10 13  1  0  0  0  0
 10 14  1  0  0  0  0
 11 17  1  0  0  0  0
 12 17  1  0  0  0  0
 13 17  1  0  0  0  0
 14 21  1  0  0  0  0
 15 16  1  0  0  0  0
 18 21  2  0  0  0  0
 19 21  2  0  0  0  0
  1 22  1  0  0  0  0
  2 23  1  0  0  0  0
  3 24  1  0  0  0  0
  4 25  1  0  0  0  0
  7 26  1  0  0  0  0
  7 27  1  0  0  0  0
  8 28  1  0  0  0  0
  8 29  1  0  0  0  0
  9 30  1  0  0  0  0
 10 31  1  0  0  0  0
 11 32  1  0  0  0  0
 11 33  1  0  0  0  0
 11 34  1  0  0  0  0
 12 35  1  0  0  0  0
 12 36  1  0  0  0  0
 12 37  1  0  0  0  0
 13 38  1  0  0  0  0
 13 39  1  0  0  0  0
 15 40  1  0  0  0  0
 15 41  1  0  0  0  0
 16 42  1  0  0  0  0
 20 43  1  0  0  0  0
M  END
> <FRED Chemgauss4 score>
-6.625400

$$$$
C80532104	P125763200
  -OEChem-05182014473D

 33 34  0     1  0  0  0  0  0999 V2000
  125.2378  105.0462  106.1987 C   0  0  0  0  0  0  0  0  0  0  0  0
  123.7878  105.4302  108.0787 C   0  0  0  0  0  0  0  0  0  0  0  0
  125.8959  104.1004  106.9682 C   0  0  0  0  0  0  0  0  0  0  0  0
  119.8599  103.8835  102.0641 C   0  0  0  0  0  0  0  0  0  0  0  0
  120.6582  104.4046  101.0733 C   0  0  0  0  0  0  0  0  0  0  0  0
  124.1647  105.7193  106.7719 C   0  0  0  0  0  0  0  0  0  0  0  0
  124.5107  104.4671  108.7640 C   0  0  0  0  0  0  0  0  0  0  0  0
  120.8660  105.5347  102.9538 C   0  0  0  0  0  0  0  0  0  0  0  0
  121.0938  105.2755  105.9478 C   0  0  0  0  0  0  0  0  0  0  0  0
  121.3754  106.5940  103.8879 C   0  0  0  0  0  0  0  0  0  0  0  0
  125.5588  103.7924  108.2407 N   0  0  0  0  0  0  0  0  0  0  0  0
  119.9937  104.5916  103.2321 N   0  0  0  0  0  0  0  0  0  0  0  0
  121.2962  105.4621  101.6581 N   0  0  0  0  0  0  0  0  0  0  0  0
  122.9099  104.6118  110.5913 N   0  0  0  0  0  0  0  0  0  0  0  0
  124.1146  104.1832  110.0947 N   0  0  0  0  0  0  0  0  0  0  0  0
  122.0464  106.0103  105.0772 N   0  0  1  0  0  0  0  0  0  0  0  0
  122.6795  107.8553  106.7922 O   0  0  0  0  0  0  0  0  0  0  0  0
  124.1920  107.4543  104.8337 O   0  0  0  0  0  0  0  0  0  0  0  0
  123.2820  106.9400  105.8406 S   0  0  0  0  0  0  0  0  0  0  0  0
  125.5576  105.2478  105.1821 H   0  0  0  0  0  0  0  0  0  0  0  0
  122.9526  105.9453  108.5435 H   0  0  0  0  0  0  0  0  0  0  0  0
  126.7393  103.5477  106.5676 H   0  0  0  0  0  0  0  0  0  0  0  0
  119.1947  103.0354  101.9953 H   0  0  0  0  0  0  0  0  0  0  0  0
  120.8260  104.1302  100.0421 H   0  0  0  0  0  0  0  0  0  0  0  0
  121.6186  104.8594  106.8117 H   0  0  0  0  0  0  0  0  0  0  0  0
  120.6274  104.4576  105.3918 H   0  0  0  0  0  0  0  0  0  0  0  0
  120.3097  105.9494  106.3033 H   0  0  0  0  0  0  0  0  0  0  0  0
  122.0959  107.2436  103.3791 H   0  0  0  0  0  0  0  0  0  0  0  0
  120.5582  107.2305  104.2434 H   0  0  0  0  0  0  0  0  0  0  0  0
  121.9661  106.0758  101.2133 H   0  0  0  0  0  0  0  0  0  0  0  0
  123.0674  104.9793  111.5285 H   0  0  0  0  0  0  0  0  0  0  0  0
  122.3004  103.8030  110.7053 H   0  0  0  0  0  0  0  0  0  0  0  0
  124.6353  103.4844  110.5991 H   0  0  0  0  0  0  0  0  0  0  0  0
  1  3  2  0  0  0  0
  1  6  1  0  0  0  0
  2  6  2  0  0  0  0
  2  7  1  0  0  0  0
  3 11  1  0  0  0  0
  4  5  2  0  0  0  0
  4 12  1  0  0  0  0
  5 13  1  0  0  0  0
  6 19  1  0  0  0  0
  7 11  2  0  0  0  0
  7 15  1  0  0  0  0
  8 10  1  0  0  0  0
  8 12  2  0  0  0  0
  8 13  1  0  0  0  0
  9 16  1  0  0  0  0
 10 16  1  0  0  0  0
 14 15  1  0  0  0  0
 16 19  1  0  0  0  0
 17 19  2  0  0  0  0
 18 19  2  0  0  0  0
  1 20  1  0  0  0  0
  2 21  1  0  0  0  0
  3 22  1  0  0  0  0
  4 23  1  0  0  0  0
  5 24  1  0  0  0  0
  9 25  1  0  0  0  0
  9 26  1  0  0  0  0
  9 27  1  0  0  0  0
 10 28  1  0  0  0  0
 10 29  1  0  0  0  0
 13 30  1  0  0  0  0
 14 31  1  0  0  0  0
 14 32  1  0  0  0  0
 15 33  1  0  0  0  0
M  END
> <FRED Chemgauss4 score>
-6.619877

$$$$
C87600283	P137027686
  -OEChem-05182014473D

 26 27  0     1  0  0  0  0  0999 V2000
  118.8135  106.3345  105.0376 C   0  0  0  0  0  0  0  0  0  0  0  0
  125.0822  106.0574  106.4124 C   0  0  0  0  0  0  0  0  0  0  0  0
  120.0425  104.5253  104.8106 C   0  0  0  0  0  0  0  0  0  0  0  0
  120.1422  105.8703  105.0702 C   0  0  0  0  0  0  0  0  0  0  0  0
  123.8839  106.4743  105.8960 C   0  0  0  0  0  0  0  0  0  0  0  0
  118.1111  102.9962  104.3518 C   0  0  0  0  0  0  0  0  0  0  0  0
  121.3976  106.6702  105.3294 C   0  0  0  0  0  0  0  0  0  0  0  0
  122.5116  105.8417  105.9964 C   0  0  2  0  0  0  0  0  0  0  0  0
  125.3961  107.8825  105.3410 N   0  5  0  0  0  0  0  0  0  0  0  0
  126.0452  106.9320  106.0732 N   0  0  0  0  0  0  0  0  0  0  0  0
  117.9343  105.3633  104.7775 N   0  0  0  0  0  0  0  0  0  0  0  0
  124.0626  107.6216  105.2185 N   0  0  0  0  0  0  0  0  0  0  0  0
  118.7120  104.2754  104.6443 N   0  0  0  0  0  0  0  0  0  0  0  0
  122.0921  105.6111  107.4174 N   0  3  0  0  0  0  0  0  0  0  0  0
  118.4470  107.3396  105.1912 H   0  0  0  0  0  0  0  0  0  0  0  0
  125.2779  105.1742  107.0054 H   0  0  0  0  0  0  0  0  0  0  0  0
  120.7865  103.7444  104.7307 H   0  0  0  0  0  0  0  0  0  0  0  0
  117.8791  102.5074  105.3017 H   0  0  0  0  0  0  0  0  0  0  0  0
  117.1996  103.1473  103.7670 H   0  0  0  0  0  0  0  0  0  0  0  0
  118.8132  102.3915  103.7710 H   0  0  0  0  0  0  0  0  0  0  0  0
  121.1539  107.5549  105.9324 H   0  0  0  0  0  0  0  0  0  0  0  0
  121.7489  107.0631  104.3653 H   0  0  0  0  0  0  0  0  0  0  0  0
  122.5385  104.8378  105.5552 H   0  0  0  0  0  0  0  0  0  0  0  0
  122.1623  106.4786  107.9492 H   0  0  0  0  0  0  0  0  0  0  0  0
  122.6932  104.9100  107.8509 H   0  0  0  0  0  0  0  0  0  0  0  0
  121.1270  105.2825  107.4495 H   0  0  0  0  0  0  0  0  0  0  0  0
  1  4  1  0  0  0  0
  1 11  2  0  0  0  0
  2  5  1  0  0  0  0
  2 10  2  0  0  0  0
  3  4  2  0  0  0  0
  3 13  1  0  0  0  0
  4  7  1  0  0  0  0
  5  8  1  0  0  0  0
  5 12  2  0  0  0  0
  6 13  1  0  0  0  0
  7  8  1  0  0  0  0
  8 14  1  0  0  0  0
  9 10  1  0  0  0  0
  9 12  1  0  0  0  0
 11 13  1  0  0  0  0
  1 15  1  0  0  0  0
  2 16  1  0  0  0  0
  3 17  1  0  0  0  0
  6 18  1  0  0  0  0
  6 19  1  0  0  0  0
  6 20  1  0  0  0  0
  7 21  1  0  0  0  0
  7 22  1  0  0  0  0
  8 23  1  0  0  0  0
 14 24  1  0  0  0  0
 14 25  1  0  0  0  0
 14 26  1  0  0  0  0
M  CHG  2   9  -1  14   1
M  END
> <FRED Chemgauss4 score>
-6.619017

$$$$
C82410506	P128782164
  -OEChem-05182014473D

 19 19  0     1  0  0  0  0  0999 V2000
  121.6710  104.7735  105.4621 C   0  0  0  0  0  0  0  0  0  0  0  0
  121.6830  105.9509  104.7473 C   0  0  0  0  0  0  0  0  0  0  0  0
  123.4504  105.5056  106.6979 C   0  0  0  0  0  0  0  0  0  0  0  0
  123.4629  106.6828  105.9827 C   0  0  0  0  0  0  0  0  0  0  0  0
  125.4349  107.3546  107.4198 C   0  0  0  0  0  0  0  0  0  0  0  0
  124.4847  107.7566  106.2887 C   0  0  1  0  0  0  0  0  0  0  0  0
  122.5545  104.5297  106.4503 N   0  0  0  0  0  0  0  0  0  0  0  0
  122.5792  106.9267  104.9947 N   0  0  0  0  0  0  0  0  0  0  0  0
  125.2282  108.1116  105.0987 N   0  0  0  0  0  0  0  0  0  0  0  0
  124.7756  107.5275  108.6700 O   0  0  0  0  0  0  0  0  0  0  0  0
  120.9507  103.9898  105.2625 H   0  0  0  0  0  0  0  0  0  0  0  0
  120.9727  106.1462  103.9535 H   0  0  0  0  0  0  0  0  0  0  0  0
  124.1574  105.3027  107.4937 H   0  0  0  0  0  0  0  0  0  0  0  0
  125.7171  106.2992  107.3374 H   0  0  0  0  0  0  0  0  0  0  0  0
  126.3464  107.9623  107.4249 H   0  0  0  0  0  0  0  0  0  0  0  0
  123.9680  108.6790  106.5825 H   0  0  0  0  0  0  0  0  0  0  0  0
  126.1237  108.5514  105.2030 H   0  0  0  0  0  0  0  0  0  0  0  0
  124.7556  108.1002  104.2139 H   0  0  0  0  0  0  0  0  0  0  0  0
  125.4083  107.2634  109.3563 H   0  0  0  0  0  0  0  0  0  0  0  0
  1  2  1  0  0  0  0
  1  7  2  0  0  0  0
  2  8  2  0  0  0  0
  3  4  2  0  0  0  0
  3  7  1  0  0  0  0
  4  6  1  0  0  0  0
  4  8  1  0  0  0  0
  5  6  1  0  0  0  0
  5 10  1  0  0  0  0
  6  9  1  0  0  0  0
  1 11  1  0  0  0  0
  2 12  1  0  0  0  0
  3 13  1  0  0  0  0
  5 14  1  0  0  0  0
  5 15  1  0  0  0  0
  6 16  1  0  0  0  0
  9 17  1  0  0  0  0
  9 18  1  0  0  0  0
 10 19  1  0  0  0  0
M  END
> <FRED Chemgauss4 score>
-6.616257

$$$$
C87343894	P136653808
  -OEChem-05182014473D

 23 23  0     1  0  0  0  0  0999 V2000
  121.3991  106.2204  105.2654 C   0  0  0  0  0  0  0  0  0  0  0  0
  121.7741  105.2973  106.2129 C   0  0  0  0  0  0  0  0  0  0  0  0
  123.1846  106.9887  106.1327 C   0  0  0  0  0  0  0  0  0  0  0  0
  124.2916  107.8499  106.3975 C   0  0  0  0  0  0  0  0  0  0  0  0
  125.7931  103.8533  108.2898 C   0  0  0  0  0  0  0  0  0  0  0  0
  123.7075  105.1776  107.8216 C   0  0  0  0  0  0  0  0  0  0  0  0
  125.1588  104.9190  107.4070 C   0  0  1  0  0  0  0  0  0  0  0  0
  122.2814  107.2707  105.2202 N   0  0  0  0  0  0  0  0  0  0  0  0
  122.9198  105.8030  106.7598 N   0  0  0  0  0  0  0  0  0  0  0  0
  124.4256  108.3737  107.6770 N   0  0  0  0  0  0  0  0  0  0  0  0
  125.9277  106.1102  107.5587 O   0  0  0  0  0  0  0  0  0  0  0  0
  125.4452  108.2255  105.2217 S   0  0  0  0  0  0  0  0  0  0  0  0
  120.5381  106.1822  104.6140 H   0  0  0  0  0  0  0  0  0  0  0  0
  121.3401  104.3601  106.5329 H   0  0  0  0  0  0  0  0  0  0  0  0
  125.7454  104.1319  109.3469 H   0  0  0  0  0  0  0  0  0  0  0  0
  125.2806  102.8940  108.1590 H   0  0  0  0  0  0  0  0  0  0  0  0
  126.8414  103.6892  108.0161 H   0  0  0  0  0  0  0  0  0  0  0  0
  123.1965  104.2417  108.0785 H   0  0  0  0  0  0  0  0  0  0  0  0
  123.6586  105.8352  108.6979 H   0  0  0  0  0  0  0  0  0  0  0  0
  125.2263  104.6039  106.3596 H   0  0  0  0  0  0  0  0  0  0  0  0
  123.7578  108.1617  108.4115 H   0  0  0  0  0  0  0  0  0  0  0  0
  125.1880  108.9957  107.9251 H   0  0  0  0  0  0  0  0  0  0  0  0
  126.8290  105.8945  107.2739 H   0  0  0  0  0  0  0  0  0  0  0  0
  1  2  2  0  0  0  0
  1  8  1  0  0  0  0
  2  9  1  0  0  0  0
  3  4  1  0  0  0  0
  3  8  2  0  0  0  0
  3  9  1  0  0  0  0
  4 10  1  0  0  0  0
  4 12  2  0  0  0  0
  5  7  1  0  0  0  0
  6  7  1  0  0  0  0
  6  9  1  0  0  0  0
  7 11  1  0  0  0  0
  1 13  1  0  0  0  0
  2 14  1  0  0  0  0
  5 15  1  0  0  0  0
  5 16  1  0  0  0  0
  5 17  1  0  0  0  0
  6 18  1  0  0  0  0
  6 19  1  0  0  0  0
  7 20  1  0  0  0  0
 10 21  1  0  0  0  0
 10 22  1  0  0  0  0
 11 23  1  0  0  0  0
M  END
> <FRED Chemgauss4 score>
-6.616251

$$$$
C00896178	P50892193
  -OEChem-05182014473D

 24 24  0     1  0  0  0  0  0999 V2000
  123.5953  104.6801  108.2920 C   0  0  0  0  0  0  0  0  0  0  0  0
  125.0681  104.3471  108.5114 C   0  0  1  0  0  0  0  0  0  0  0  0
  125.9405  105.5996  108.4190 C   0  0  1  0  0  0  0  0  0  0  0  0
  125.6248  106.3307  107.1085 C   0  0  1  0  0  0  0  0  0  0  0  0
  124.1134  106.5947  106.9375 C   0  0  1  0  0  0  0  0  0  0  0  0
  123.8187  107.1639  105.5477 C   0  0  0  0  0  0  0  0  0  0  0  0
  123.3944  105.3561  107.0509 O   0  0  0  0  0  0  0  0  0  0  0  0
  125.2540  103.7204  109.7724 O   0  0  0  0  0  0  0  0  0  0  0  0
  125.7132  106.4510  109.5427 O   0  0  0  0  0  0  0  0  0  0  0  0
  126.3572  107.5479  107.0336 O   0  0  0  0  0  0  0  0  0  0  0  0
  123.6753  107.5447  107.9115 O   0  0  0  0  0  0  0  0  0  0  0  0
  122.4248  107.3764  105.4399 O   0  0  0  0  0  0  0  0  0  0  0  0
  123.0064  103.7563  108.2707 H   0  0  0  0  0  0  0  0  0  0  0  0
  123.1867  105.2780  109.1157 H   0  0  0  0  0  0  0  0  0  0  0  0
  125.3908  103.6438  107.7332 H   0  0  0  0  0  0  0  0  0  0  0  0
  127.0143  105.3252  108.4593 H   0  0  0  0  0  0  0  0  0  0  0  0
  125.9638  105.6875  106.2838 H   0  0  0  0  0  0  0  0  0  0  0  0
  124.1387  106.4555  104.7861 H   0  0  0  0  0  0  0  0  0  0  0  0
  124.3420  108.1094  105.4199 H   0  0  0  0  0  0  0  0  0  0  0  0
  124.7225  102.9077  109.7632 H   0  0  0  0  0  0  0  0  0  0  0  0
  126.2913  107.2193  109.4241 H   0  0  0  0  0  0  0  0  0  0  0  0
  127.2973  107.3102  107.0714 H   0  0  0  0  0  0  0  0  0  0  0  0
  122.7273  107.6723  107.7596 H   0  0  0  0  0  0  0  0  0  0  0  0
  122.2571  107.7375  104.5522 H   0  0  0  0  0  0  0  0  0  0  0  0
  1  2  1  0  0  0  0
  1  7  1  0  0  0  0
  2  3  1  0  0  0  0
  2  8  1  0  0  0  0
  3  4  1  0  0  0  0
  3  9  1  0  0  0  0
  4  5  1  0  0  0  0
  4 10  1  0  0  0  0
  5  6  1  0  0  0  0
  5  7  1  0  0  0  0
  5 11  1  0  0  0  0
  6 12  1  0  0  0  0
  1 13  1  0  0  0  0
  1 14  1  0  0  0  0
  2 15  1  0  0  0  0
  3 16  1  0  0  0  0
  4 17  1  0  0  0  0
  6 18  1  0  0  0  0
  6 19  1  0  0  0  0
  8 20  1  0  0  0  0
  9 21  1  0  0  0  0
 10 22  1  0  0  0  0
 11 23  1  0  0  0  0
 12 24  1  0  0  0  0
M  END
> <FRED Chemgauss4 score>
-6.616217

$$$$
C50649018	P75778015
  -OEChem-05182014473D

 33 34  0     0  0  0  0  0  0999 V2000
  118.4801  104.8626  103.2216 C   0  0  0  0  0  0  0  0  0  0  0  0
  119.0848  105.1891  102.0116 C   0  0  0  0  0  0  0  0  0  0  0  0
  119.2651  104.5902  104.3380 C   0  0  0  0  0  0  0  0  0  0  0  0
  124.9103  106.1350  107.2908 C   0  0  0  0  0  0  0  0  0  0  0  0
  124.4512  106.8788  109.5027 C   0  0  0  0  0  0  0  0  0  0  0  0
  120.4702  105.2353  101.9478 C   0  0  0  0  0  0  0  0  0  0  0  0
  123.6432  106.5670  106.9151 C   0  0  0  0  0  0  0  0  0  0  0  0
  125.3297  106.2902  108.6074 C   0  0  0  0  0  0  0  0  0  0  0  0
  120.6459  104.6514  104.2153 C   0  0  0  0  0  0  0  0  0  0  0  0
  122.8401  107.1430  107.8863 C   0  0  0  0  0  0  0  0  0  0  0  0
  120.8958  108.6831  108.1571 C   0  0  0  0  0  0  0  0  0  0  0  0
  121.5521  104.3728  105.3586 C   0  0  0  0  0  0  0  0  0  0  0  0
  123.2128  107.3107  109.1750 N   0  0  0  0  0  0  0  0  0  0  0  0
  122.9150  104.7882  105.0300 N   0  5  0  0  0  0  0  0  0  0  0  0
  121.2021  104.9684  103.0381 N   0  3  0  0  0  0  0  0  0  0  0  0
  121.5466  107.5872  107.5161 N   0  0  0  0  0  0  0  0  0  0  0  0
  124.2245  106.9361  104.4542 O   0  0  0  0  0  0  0  0  0  0  0  0
  121.8840  107.1505  105.1563 O   0  0  0  0  0  0  0  0  0  0  0  0
  123.1119  106.3601  105.2059 S   0  0  0  0  0  0  0  0  0  0  0  0
  127.0381  105.7191  109.1566 Br  0  0  0  0  0  0  0  0  0  0  0  0
  117.3972  104.8220  103.2947 H   0  0  0  0  0  0  0  0  0  0  0  0
  118.4843  105.4034  101.1341 H   0  0  0  0  0  0  0  0  0  0  0  0
  118.7972  104.3356  105.2840 H   0  0  0  0  0  0  0  0  0  0  0  0
  125.5681  105.6781  106.5552 H   0  0  0  0  0  0  0  0  0  0  0  0
  124.7172  107.0294  110.5447 H   0  0  0  0  0  0  0  0  0  0  0  0
  121.0241  105.4800  101.0520 H   0  0  0  0  0  0  0  0  0  0  0  0
  121.5379  109.0960  108.9394 H   0  0  0  0  0  0  0  0  0  0  0  0
  119.9572  108.3526  108.6103 H   0  0  0  0  0  0  0  0  0  0  0  0
  120.6761  109.4698  107.4304 H   0  0  0  0  0  0  0  0  0  0  0  0
  121.1978  104.8822  106.2727 H   0  0  0  0  0  0  0  0  0  0  0  0
  121.5290  103.2985  105.6144 H   0  0  0  0  0  0  0  0  0  0  0  0
  122.2185  105.0093  102.9640 H   0  0  0  0  0  0  0  0  0  0  0  0
  121.0983  107.0911  106.7731 H   0  0  0  0  0  0  0  0  0  0  0  0
  1  2  1  0  0  0  0
  1  3  2  0  0  0  0
  2  6  2  0  0  0  0
  3  9  1  0  0  0  0
  4  7  2  0  0  0  0
  4  8  1  0  0  0  0
  5  8  2  0  0  0  0
  5 13  1  0  0  0  0
  6 15  1  0  0  0  0
  7 10  1  0  0  0  0
  7 19  1  0  0  0  0
  8 20  1  0  0  0  0
  9 12  1  0  0  0  0
  9 15  2  0  0  0  0
 10 13  2  0  0  0  0
 10 16  1  0  0  0  0
 11 16  1  0  0  0  0
 12 14  1  0  0  0  0
 14 19  1  0  0  0  0
 17 19  2  0  0  0  0
 18 19  2  0  0  0  0
  1 21  1  0  0  0  0
  2 22  1  0  0  0  0
  3 23  1  0  0  0  0
  4 24  1  0  0  0  0
  5 25  1  0  0  0  0
  6 26  1  0  0  0  0
 11 27  1  0  0  0  0
 11 28  1  0  0  0  0
 11 29  1  0  0  0  0
 12 30  1  0  0  0  0
 12 31  1  0  0  0  0
 15 32  1  0  0  0  0
 16 33  1  0  0  0  0
M  CHG  2  14  -1  15   1
M  END
> <FRED Chemgauss4 score>
-6.605233

$$$$
C40605671	P61647454
  -OEChem-05182014473D

 24 24  0     0  0  0  0  0  0999 V2000
  126.6677  105.6736  107.9078 C   0  0  0  0  0  0  0  0  0  0  0  0
  125.4707  105.2879  108.4636 C   0  0  0  0  0  0  0  0  0  0  0  0
  125.2041  106.0165  106.4009 C   0  0  0  0  0  0  0  0  0  0  0  0
  122.4122  105.3118  106.2395 C   0  0  0  0  0  0  0  0  0  0  0  0
  123.1076  105.2639  107.5832 C   0  0  0  0  0  0  0  0  0  0  0  0
  119.8884  104.8472  104.5751 C   0  0  0  0  0  0  0  0  0  0  0  0
  121.0503  103.8802  104.7286 C   0  0  0  0  0  0  0  0  0  0  0  0
  126.4950  106.1264  106.6238 N   0  0  0  0  0  0  0  0  0  0  0  0
  124.5424  105.5138  107.4866 N   0  0  0  0  0  0  0  0  0  0  0  0
  119.1410  104.6105  103.3692 N   0  0  0  0  0  0  0  0  0  0  0  0
  121.7860  104.1079  105.9508 N   0  0  0  0  0  0  0  0  0  0  0  0
  122.4154  106.3001  105.5105 O   0  0  0  0  0  0  0  0  0  0  0  0
  127.6452  105.6482  108.3670 H   0  0  0  0  0  0  0  0  0  0  0  0
  125.2095  104.8876  109.4333 H   0  0  0  0  0  0  0  0  0  0  0  0
  124.6968  106.2823  105.4835 H   0  0  0  0  0  0  0  0  0  0  0  0
  122.9635  104.2784  108.0401 H   0  0  0  0  0  0  0  0  0  0  0  0
  122.6763  106.0172  108.2522 H   0  0  0  0  0  0  0  0  0  0  0  0
  120.2338  105.8855  104.5473 H   0  0  0  0  0  0  0  0  0  0  0  0
  119.1920  104.7340  105.4118 H   0  0  0  0  0  0  0  0  0  0  0  0
  120.6837  102.8497  104.7616 H   0  0  0  0  0  0  0  0  0  0  0  0
  121.7570  103.9708  103.8974 H   0  0  0  0  0  0  0  0  0  0  0  0
  119.6350  104.3723  102.5241 H   0  0  0  0  0  0  0  0  0  0  0  0
  118.1711  104.8810  103.3316 H   0  0  0  0  0  0  0  0  0  0  0  0
  121.8694  103.3346  106.6041 H   0  0  0  0  0  0  0  0  0  0  0  0
  1  2  2  0  0  0  0
  1  8  1  0  0  0  0
  2  9  1  0  0  0  0
  3  8  2  0  0  0  0
  3  9  1  0  0  0  0
  4  5  1  0  0  0  0
  4 11  1  0  0  0  0
  4 12  2  0  0  0  0
  5  9  1  0  0  0  0
  6  7  1  0  0  0  0
  6 10  1  0  0  0  0
  7 11  1  0  0  0  0
  1 13  1  0  0  0  0
  2 14  1  0  0  0  0
  3 15  1  0  0  0  0
  5 16  1  0  0  0  0
  5 17  1  0  0  0  0
  6 18  1  0  0  0  0
  6 19  1  0  0  0  0
  7 20  1  0  0  0  0
  7 21  1  0  0  0  0
 10 22  1  0  0  0  0
 10 23  1  0  0  0  0
 11 24  1  0  0  0  0
M  END
> <FRED Chemgauss4 score>
-6.602283

$$$$
C63932433	P98159463
  -OEChem-05182014473D

 16 16  0     1  0  0  0  0  0999 V2000
  124.0225  107.0730  106.0926 C   0  0  0  0  0  0  0  0  0  0  0  0
  124.2480  105.0177  107.5237 C   0  0  0  0  0  0  0  0  0  0  0  0
  122.3290  105.4542  106.1067 C   0  0  0  0  0  0  0  0  0  0  0  0
  124.6616  106.4212  107.3388 C   0  0  2  0  0  0  0  0  0  0  0  0
  122.9078  106.5959  105.6143 N   0  0  0  0  0  0  0  0  0  0  0  0
  123.1103  104.6261  106.9767 N   0  3  0  0  0  0  0  0  0  0  0  0
  125.0228  104.2439  108.2719 N   0  0  0  0  0  0  0  0  0  0  0  0
  124.2916  107.2680  108.4833 N   0  0  0  0  0  0  0  0  0  0  0  0
  124.6230  108.0656  105.6225 O   0  5  0  0  0  0  0  0  0  0  0  0
  120.7894  104.9384  105.6607 S   0  0  0  0  0  0  0  0  0  0  0  0
  125.7547  106.4519  107.2239 H   0  0  0  0  0  0  0  0  0  0  0  0
  122.7879  103.6903  107.2069 H   0  0  0  0  0  0  0  0  0  0  0  0
  125.8669  104.6164  108.6961 H   0  0  0  0  0  0  0  0  0  0  0  0
  124.7809  103.2703  108.4291 H   0  0  0  0  0  0  0  0  0  0  0  0
  124.1999  108.2424  108.3218 H   0  0  0  0  0  0  0  0  0  0  0  0
  124.3507  106.8665  109.3885 H   0  0  0  0  0  0  0  0  0  0  0  0
  1  4  1  0  0  0  0
  1  5  2  0  0  0  0
  1  9  1  0  0  0  0
  2  4  1  0  0  0  0
  2  6  2  0  0  0  0
  2  7  1  0  0  0  0
  3  5  1  0  0  0  0
  3  6  1  0  0  0  0
  3 10  2  0  0  0  0
  4  8  1  0  0  0  0
  4 11  1  0  0  0  0
  6 12  1  0  0  0  0
  7 13  1  0  0  0  0
  7 14  1  0  0  0  0
  8 15  1  0  0  0  0
  8 16  1  0  0  0  0
M  CHG  2   6   1   9  -1
M  END
> <FRED Chemgauss4 score>
-6.595889

$$$$
C38600476	P58429224
  -OEChem-05182014473D

 25 25  0     1  0  0  0  0  0999 V2000
  123.4195  107.8367  108.0426 C   0  0  1  0  0  0  0  0  0  0  0  0
  122.0825  107.4505  107.3982 C   0  0  1  0  0  0  0  0  0  0  0  0
  124.4610  108.1587  106.9619 C   0  0  2  0  0  0  0  0  0  0  0  0
  122.2630  106.3682  106.3248 C   0  0  2  0  0  0  0  0  0  0  0  0
  124.5265  107.0564  105.9012 C   0  0  1  0  0  0  0  0  0  0  0  0
  122.5703  104.9724  106.8702 C   0  0  0  0  0  0  0  0  0  0  0  0
  123.2203  108.9882  108.9317 N   0  0  0  0  0  0  0  0  0  0  0  0
  123.2361  106.7799  105.3629 O   0  0  0  0  0  0  0  0  0  0  0  0
  121.1753  107.0037  108.4007 O   0  0  0  0  0  0  0  0  0  0  0  0
  125.7550  108.2718  107.5536 O   0  0  0  0  0  0  0  0  0  0  0  0
  125.3888  107.5123  104.8564 O   0  0  0  0  0  0  0  0  0  0  0  0
  121.3598  104.3828  107.3087 O   0  0  0  0  0  0  0  0  0  0  0  0
  123.7772  106.9967  108.6429 H   0  0  0  0  0  0  0  0  0  0  0  0
  121.6187  108.3456  106.9355 H   0  0  0  0  0  0  0  0  0  0  0  0
  124.2322  109.1163  106.4879 H   0  0  0  0  0  0  0  0  0  0  0  0
  121.2765  106.2764  105.7702 H   0  0  0  0  0  0  0  0  0  0  0  0
  124.9256  106.1563  106.3046 H   0  0  0  0  0  0  0  0  0  0  0  0
  123.2607  105.0447  107.7108 H   0  0  0  0  0  0  0  0  0  0  0  0
  123.0088  104.3543  106.0865 H   0  0  0  0  0  0  0  0  0  0  0  0
  124.0133  109.5460  109.1519 H   0  0  0  0  0  0  0  0  0  0  0  0
  122.3632  109.0438  109.4326 H   0  0  0  0  0  0  0  0  0  0  0  0
  120.3546  106.7749  107.9407 H   0  0  0  0  0  0  0  0  0  0  0  0
  125.9396  107.4157  107.9667 H   0  0  0  0  0  0  0  0  0  0  0  0
  125.4200  106.8047  104.1935 H   0  0  0  0  0  0  0  0  0  0  0  0
  121.5800  103.4993  107.6499 H   0  0  0  0  0  0  0  0  0  0  0  0
  1  2  1  0  0  0  0
  1  3  1  0  0  0  0
  1  7  1  0  0  0  0
  2  4  1  0  0  0  0
  2  9  1  0  0  0  0
  3  5  1  0  0  0  0
  3 10  1  0  0  0  0
  4  6  1  0  0  0  0
  4  8  1  0  0  0  0
  5  8  1  0  0  0  0
  5 11  1  0  0  0  0
  6 12  1  0  0  0  0
  1 13  1  0  0  0  0
  2 14  1  0  0  0  0
  3 15  1  0  0  0  0
  4 16  1  0  0  0  0
  5 17  1  0  0  0  0
  6 18  1  0  0  0  0
  6 19  1  0  0  0  0
  7 20  1  0  0  0  0
  7 21  1  0  0  0  0
  9 22  1  0  0  0  0
 10 23  1  0  0  0  0
 11 24  1  0  0  0  0
 12 25  1  0  0  0  0
M  END
> <FRED Chemgauss4 score>
-6.595170

$$$$
C19258164	P28484676
  -OEChem-05182014473D

 23 23  0     1  0  0  0  0  0999 V2000
  122.5007  105.4501  106.1177 C   0  0  0  0  0  0  0  0  0  0  0  0
  123.1267  104.5514  108.1107 C   0  0  0  0  0  0  0  0  0  0  0  0
  121.2192  105.0554  106.8177 C   0  0  0  0  0  0  0  0  0  0  0  0
  124.9541  105.3540  106.5968 C   0  0  0  0  0  0  0  0  0  0  0  0
  124.7164  107.8901  106.5273 C   0  0  0  0  0  0  0  0  0  0  0  0
  125.4763  106.6974  107.1083 C   0  0  1  0  0  0  0  0  0  0  0  0
  121.7319  104.5100  108.0436 N   0  0  0  0  0  0  0  0  0  0  0  0
  123.5732  105.1266  106.9296 N   0  0  0  0  0  0  0  0  0  0  0  0
  124.8407  107.9011  105.0863 N   0  0  0  0  0  0  0  0  0  0  0  0
  122.5393  105.9698  105.0104 O   0  0  0  0  0  0  0  0  0  0  0  0
  123.8062  104.1506  109.0467 O   0  0  0  0  0  0  0  0  0  0  0  0
  125.3720  106.7343  108.5316 O   0  0  0  0  0  0  0  0  0  0  0  0
  120.5973  105.9256  107.0332 H   0  0  0  0  0  0  0  0  0  0  0  0
  120.6833  104.2819  106.2653 H   0  0  0  0  0  0  0  0  0  0  0  0
  125.0434  105.2905  105.5078 H   0  0  0  0  0  0  0  0  0  0  0  0
  125.5201  104.5286  107.0405 H   0  0  0  0  0  0  0  0  0  0  0  0
  125.1127  108.8356  106.9117 H   0  0  0  0  0  0  0  0  0  0  0  0
  123.6537  107.8290  106.7839 H   0  0  0  0  0  0  0  0  0  0  0  0
  126.5414  106.7787  106.8592 H   0  0  0  0  0  0  0  0  0  0  0  0
  121.1442  104.1349  108.7815 H   0  0  0  0  0  0  0  0  0  0  0  0
  125.7178  107.6391  104.6752 H   0  0  0  0  0  0  0  0  0  0  0  0
  124.1304  108.3578  104.5438 H   0  0  0  0  0  0  0  0  0  0  0  0
  125.9117  106.0016  108.8648 H   0  0  0  0  0  0  0  0  0  0  0  0
  1  3  1  0  0  0  0
  1  8  1  0  0  0  0
  1 10  2  0  0  0  0
  2  7  1  0  0  0  0
  2  8  1  0  0  0  0
  2 11  2  0  0  0  0
  3  7  1  0  0  0  0
  4  6  1  0  0  0  0
  4  8  1  0  0  0  0
  5  6  1  0  0  0  0
  5  9  1  0  0  0  0
  6 12  1  0  0  0  0
  3 13  1  0  0  0  0
  3 14  1  0  0  0  0
  4 15  1  0  0  0  0
  4 16  1  0  0  0  0
  5 17  1  0  0  0  0
  5 18  1  0  0  0  0
  6 19  1  0  0  0  0
  7 20  1  0  0  0  0
  9 21  1  0  0  0  0
  9 22  1  0  0  0  0
 12 23  1  0  0  0  0
M  END
> <FRED Chemgauss4 score>
-6.592972

$$$$
C82915766	P129631297
  -OEChem-05182014473D

 30 30  0     1  0  0  0  0  0999 V2000
  121.4178  106.0652  104.6418 C   0  0  0  0  0  0  0  0  0  0  0  0
  121.4145  105.7958  106.8241 C   0  0  0  0  0  0  0  0  0  0  0  0
  121.1304  105.1319  105.6558 C   0  0  0  0  0  0  0  0  0  0  0  0
  120.6345  103.7551  105.5015 C   0  0  0  0  0  0  0  0  0  0  0  0
  124.5193  106.6428  108.4795 C   0  0  0  0  0  0  0  0  0  0  0  0
  123.7027  108.6103  107.0729 C   0  0  0  0  0  0  0  0  0  0  0  0
  122.2697  108.1497  107.3781 C   0  0  0  0  0  0  0  0  0  0  0  0
  124.8948  106.6440  105.9667 C   0  0  0  0  0  0  0  0  0  0  0  0
  124.7763  107.5094  107.2419 C   0  0  2  0  0  0  0  0  0  0  0  0
  121.8510  107.2331  105.1238 N   0  0  0  0  0  0  0  0  0  0  0  0
  121.8379  107.0382  106.4534 N   0  0  0  0  0  0  0  0  0  0  0  0
  125.2052  107.4028  104.7613 N   0  0  0  0  0  0  0  0  0  0  0  0
  126.0510  108.1358  107.4387 O   0  0  0  0  0  0  0  0  0  0  0  0
  121.3295  105.9456  103.5713 H   0  0  0  0  0  0  0  0  0  0  0  0
  121.3517  105.4979  107.8620 H   0  0  0  0  0  0  0  0  0  0  0  0
  121.4671  103.0351  105.4172 H   0  0  0  0  0  0  0  0  0  0  0  0
  120.0077  103.4381  106.3547 H   0  0  0  0  0  0  0  0  0  0  0  0
  120.0017  103.6366  104.6032 H   0  0  0  0  0  0  0  0  0  0  0  0
  125.2849  105.8670  108.5895 H   0  0  0  0  0  0  0  0  0  0  0  0
  124.4930  107.2361  109.3986 H   0  0  0  0  0  0  0  0  0  0  0  0
  123.5665  106.1084  108.3863 H   0  0  0  0  0  0  0  0  0  0  0  0
  123.9444  109.4410  107.7505 H   0  0  0  0  0  0  0  0  0  0  0  0
  123.7414  109.0175  106.0543 H   0  0  0  0  0  0  0  0  0  0  0  0
  122.1888  107.7972  108.4130 H   0  0  0  0  0  0  0  0  0  0  0  0
  121.5670  108.9868  107.2859 H   0  0  0  0  0  0  0  0  0  0  0  0
  123.9635  106.0848  105.8123 H   0  0  0  0  0  0  0  0  0  0  0  0
  125.6713  105.8830  106.1133 H   0  0  0  0  0  0  0  0  0  0  0  0
  124.7632  108.2887  104.6348 H   0  0  0  0  0  0  0  0  0  0  0  0
  125.6787  106.9341  104.0179 H   0  0  0  0  0  0  0  0  0  0  0  0
  126.6920  107.4166  107.5254 H   0  0  0  0  0  0  0  0  0  0  0  0
  1  3  1  0  0  0  0
  1 10  2  0  0  0  0
  2  3  2  0  0  0  0
  2 11  1  0  0  0  0
  3  4  1  0  0  0  0
  5  9  1  0  0  0  0
  6  7  1  0  0  0  0
  6  9  1  0  0  0  0
  7 11  1  0  0  0  0
  8  9  1  0  0  0  0
  8 12  1  0  0  0  0
  9 13  1  0  0  0  0
 10 11  1  0  0  0  0
  1 14  1  0  0  0  0
  2 15  1  0  0  0  0
  4 16  1  0  0  0  0
  4 17  1  0  0  0  0
  4 18  1  0  0  0  0
  5 19  1  0  0  0  0
  5 20  1  0  0  0  0
  5 21  1  0  0  0  0
  6 22  1  0  0  0  0
  6 23  1  0  0  0  0
  7 24  1  0  0  0  0
  7 25  1  0  0  0  0
  8 26  1  0  0  0  0
  8 27  1  0  0  0  0
 12 28  1  0  0  0  0
 12 29  1  0  0  0  0
 13 30  1  0  0  0  0
M  END
> <FRED Chemgauss4 score>
-6.590718

$$$$
C54009804	P81226696
  -OEChem-05182014473D

 14 14  0     0  0  0  0  0  0999 V2000
  122.8674  106.4883  107.4082 C   0  0  0  0  0  0  0  0  0  0  0  0
  123.6571  107.1284  108.2762 C   0  0  0  0  0  0  0  0  0  0  0  0
  125.1176  107.9310  106.5779 C   0  0  0  0  0  0  0  0  0  0  0  0
  124.4732  107.3691  105.5325 C   0  0  0  0  0  0  0  0  0  0  0  0
  123.2323  106.5697  105.9582 C   0  0  0  0  0  0  0  0  0  0  0  0
  124.7558  107.8355  107.8925 N   0  0  0  0  0  0  0  0  0  0  0  0
  122.4816  105.9575  105.1080 N   0  3  0  0  0  0  0  0  0  0  0  0
  124.7377  107.4075  104.2992 O   0  5  0  0  0  0  0  0  0  0  0  0
  121.9969  105.9267  107.7246 H   0  0  0  0  0  0  0  0  0  0  0  0
  123.4750  107.1246  109.3434 H   0  0  0  0  0  0  0  0  0  0  0  0
  126.0144  108.5279  106.4435 H   0  0  0  0  0  0  0  0  0  0  0  0
  125.3173  108.3001  108.5945 H   0  0  0  0  0  0  0  0  0  0  0  0
  121.6531  105.4249  105.4020 H   0  0  0  0  0  0  0  0  0  0  0  0
  122.6792  105.9756  104.0994 H   0  0  0  0  0  0  0  0  0  0  0  0
  1  2  2  0  0  0  0
  1  5  1  0  0  0  0
  2  6  1  0  0  0  0
  3  4  2  0  0  0  0
  3  6  1  0  0  0  0
  4  5  1  0  0  0  0
  4  8  1  0  0  0  0
  5  7  2  0  0  0  0
  1  9  1  0  0  0  0
  2 10  1  0  0  0  0
  3 11  1  0  0  0  0
  6 12  1  0  0  0  0
  7 13  1  0  0  0  0
  7 14  1  0  0  0  0
M  CHG  2   7   1   8  -1
M  END
> <FRED Chemgauss4 score>
-6.589664

$$$$
C83746155	P131018728
  -OEChem-05182014473D

 31 31  0     1  0  0  0  0  0999 V2000
  121.5788  108.5329  108.2595 C   0  0  0  0  0  0  0  0  0  0  0  0
  123.3031  107.8544  107.2985 C   0  0  0  0  0  0  0  0  0  0  0  0
  125.8625  103.0264  107.0343 C   0  0  0  0  0  0  0  0  0  0  0  0
  125.7020  104.2033  109.2316 C   0  0  0  0  0  0  0  0  0  0  0  0
  123.8633  102.6749  108.5065 C   0  0  0  0  0  0  0  0  0  0  0  0
  125.1262  106.0819  106.9433 C   0  0  0  0  0  0  0  0  0  0  0  0
  124.1966  104.9314  107.3668 C   0  0  0  0  0  0  0  0  0  0  0  0
  124.3514  107.2861  106.3593 C   0  0  1  0  0  0  0  0  0  0  0  0
  124.8940  103.7054  108.0166 C   0  0  0  0  0  0  0  0  0  0  0  0
  122.0099  107.9586  107.0981 N   0  0  0  0  0  0  0  0  0  0  0  0
  122.5239  108.7906  109.1660 N   0  0  0  0  0  0  0  0  0  0  0  0
  123.6170  108.3473  108.5267 N   0  0  0  0  0  0  0  0  0  0  0  0
  123.7405  106.9116  105.0767 N   0  0  0  0  0  0  0  0  0  0  0  0
  120.5433  108.7712  108.4514 H   0  0  0  0  0  0  0  0  0  0  0  0
  125.3303  102.6549  106.1508 H   0  0  0  0  0  0  0  0  0  0  0  0
  126.6324  103.7181  106.6777 H   0  0  0  0  0  0  0  0  0  0  0  0
  126.3652  102.1725  107.5020 H   0  0  0  0  0  0  0  0  0  0  0  0
  125.0527  104.6970  109.9637 H   0  0  0  0  0  0  0  0  0  0  0  0
  126.2061  103.3743  109.7412 H   0  0  0  0  0  0  0  0  0  0  0  0
  126.4707  104.9227  108.9275 H   0  0  0  0  0  0  0  0  0  0  0  0
  123.1565  103.1294  109.2104 H   0  0  0  0  0  0  0  0  0  0  0  0
  123.2839  102.2677  107.6704 H   0  0  0  0  0  0  0  0  0  0  0  0
  124.3408  101.8377  109.0255 H   0  0  0  0  0  0  0  0  0  0  0  0
  125.8648  105.7197  106.2194 H   0  0  0  0  0  0  0  0  0  0  0  0
  125.6874  106.4266  107.8201 H   0  0  0  0  0  0  0  0  0  0  0  0
  123.6349  104.5839  106.4903 H   0  0  0  0  0  0  0  0  0  0  0  0
  123.4516  105.3293  108.0690 H   0  0  0  0  0  0  0  0  0  0  0  0
  125.0839  108.0725  106.1364 H   0  0  0  0  0  0  0  0  0  0  0  0
  124.5190  108.4139  108.9838 H   0  0  0  0  0  0  0  0  0  0  0  0
  124.2249  106.2557  104.5103 H   0  0  0  0  0  0  0  0  0  0  0  0
  122.9910  107.4711  104.7433 H   0  0  0  0  0  0  0  0  0  0  0  0
  1 10  1  0  0  0  0
  1 11  2  0  0  0  0
  2  8  1  0  0  0  0
  2 10  2  0  0  0  0
  2 12  1  0  0  0  0
  3  9  1  0  0  0  0
  4  9  1  0  0  0  0
  5  9  1  0  0  0  0
  6  7  1  0  0  0  0
  6  8  1  0  0  0  0
  7  9  1  0  0  0  0
  8 13  1  0  0  0  0
 11 12  1  0  0  0  0
  1 14  1  0  0  0  0
  3 15  1  0  0  0  0
  3 16  1  0  0  0  0
  3 17  1  0  0  0  0
  4 18  1  0  0  0  0
  4 19  1  0  0  0  0
  4 20  1  0  0  0  0
  5 21  1  0  0  0  0
  5 22  1  0  0  0  0
  5 23  1  0  0  0  0
  6 24  1  0  0  0  0
  6 25  1  0  0  0  0
  7 26  1  0  0  0  0
  7 27  1  0  0  0  0
  8 28  1  0  0  0  0
 12 29  1  0  0  0  0
 13 30  1  0  0  0  0
 13 31  1  0  0  0  0
M  END
> <FRED Chemgauss4 score>
-6.585958

$$$$
C86525867	P135471773
  -OEChem-05182014473D

 20 20  0     1  0  0  0  0  0999 V2000
  125.0591  106.3449  108.3155 C   0  0  0  0  0  0  0  0  0  0  0  0
  124.7713  106.6911  106.2773 C   0  0  0  0  0  0  0  0  0  0  0  0
  120.7794  106.9107  104.8567 C   0  0  0  0  0  0  0  0  0  0  0  0
  122.9982  106.2046  104.5381 C   0  0  0  0  0  0  0  0  0  0  0  0
  124.4586  106.5815  104.8004 C   0  0  1  0  0  0  0  0  0  0  0  0
  124.6635  105.7283  107.1631 N   0  0  0  0  0  0  0  0  0  0  0  0
  125.2119  107.8252  106.8852 N   0  0  0  0  0  0  0  0  0  0  0  0
  125.4049  107.6287  108.1984 N   0  0  0  0  0  0  0  0  0  0  0  0
  124.8021  107.8067  104.1108 N   0  0  0  0  0  0  0  0  0  0  0  0
  122.1498  107.2197  105.0651 O   0  0  0  0  0  0  0  0  0  0  0  0
  125.0907  105.8266  109.2649 H   0  0  0  0  0  0  0  0  0  0  0  0
  120.1581  107.7080  105.2719 H   0  0  0  0  0  0  0  0  0  0  0  0
  120.5418  105.9598  105.3401 H   0  0  0  0  0  0  0  0  0  0  0  0
  120.5929  106.8281  103.7833 H   0  0  0  0  0  0  0  0  0  0  0  0
  122.7998  106.1322  103.4631 H   0  0  0  0  0  0  0  0  0  0  0  0
  122.7294  105.2530  105.0095 H   0  0  0  0  0  0  0  0  0  0  0  0
  125.1003  105.8151  104.3475 H   0  0  0  0  0  0  0  0  0  0  0  0
  125.7330  108.3576  108.8260 H   0  0  0  0  0  0  0  0  0  0  0  0
  124.3685  108.0003  103.2272 H   0  0  0  0  0  0  0  0  0  0  0  0
  125.6017  108.3268  104.4215 H   0  0  0  0  0  0  0  0  0  0  0  0
  1  6  2  0  0  0  0
  1  8  1  0  0  0  0
  2  5  1  0  0  0  0
  2  6  1  0  0  0  0
  2  7  2  0  0  0  0
  3 10  1  0  0  0  0
  4  5  1  0  0  0  0
  4 10  1  0  0  0  0
  5  9  1  0  0  0  0
  7  8  1  0  0  0  0
  1 11  1  0  0  0  0
  3 12  1  0  0  0  0
  3 13  1  0  0  0  0
  3 14  1  0  0  0  0
  4 15  1  0  0  0  0
  4 16  1  0  0  0  0
  5 17  1  0  0  0  0
  8 18  1  0  0  0  0
  9 19  1  0  0  0  0
  9 20  1  0  0  0  0
M  END
> <FRED Chemgauss4 score>
-6.584868

$$$$
C35202844	P52236352
  -OEChem-05182014473D

 25 25  0     0  0  0  0  0  0999 V2000
  118.4975  104.1315  106.4764 C   0  0  0  0  0  0  0  0  0  0  0  0
  119.4626  104.7867  104.7453 C   0  0  0  0  0  0  0  0  0  0  0  0
  122.5943  105.1492  106.2142 C   0  0  0  0  0  0  0  0  0  0  0  0
  121.8092  104.1206  105.4288 C   0  0  0  0  0  0  0  0  0  0  0  0
  124.9718  104.7915  108.8465 C   0  0  0  0  0  0  0  0  0  0  0  0
  123.6669  105.4613  108.4366 C   0  0  0  0  0  0  0  0  0  0  0  0
  125.9192  104.5755  107.6726 C   0  0  0  0  0  0  0  0  0  0  0  0
  118.2606  104.7250  105.2696 N   0  0  0  0  0  0  0  0  0  0  0  0
  119.7705  103.8223  106.7318 N   0  0  0  0  0  0  0  0  0  0  0  0
  120.3666  104.2517  105.6091 N   0  0  0  0  0  0  0  0  0  0  0  0
  122.9245  104.6832  107.4828 N   0  0  0  0  0  0  0  0  0  0  0  0
  122.8924  106.2554  105.7720 O   0  0  0  0  0  0  0  0  0  0  0  0
  126.2440  105.8392  107.1085 O   0  0  0  0  0  0  0  0  0  0  0  0
  117.7180  103.9160  107.1917 H   0  0  0  0  0  0  0  0  0  0  0  0
  119.7249  105.1915  103.7781 H   0  0  0  0  0  0  0  0  0  0  0  0
  122.1014  103.1123  105.7430 H   0  0  0  0  0  0  0  0  0  0  0  0
  122.0281  104.2224  104.3599 H   0  0  0  0  0  0  0  0  0  0  0  0
  125.4752  105.4099  109.6001 H   0  0  0  0  0  0  0  0  0  0  0  0
  124.7718  103.8288  109.3338 H   0  0  0  0  0  0  0  0  0  0  0  0
  123.0219  105.5946  109.3106 H   0  0  0  0  0  0  0  0  0  0  0  0
  123.8517  106.4454  107.9943 H   0  0  0  0  0  0  0  0  0  0  0  0
  126.8473  104.0935  107.9949 H   0  0  0  0  0  0  0  0  0  0  0  0
  125.4478  103.9608  106.8991 H   0  0  0  0  0  0  0  0  0  0  0  0
  122.5982  103.7601  107.7657 H   0  0  0  0  0  0  0  0  0  0  0  0
  126.8462  105.6681  106.3664 H   0  0  0  0  0  0  0  0  0  0  0  0
  1  8  1  0  0  0  0
  1  9  2  0  0  0  0
  2  8  2  0  0  0  0
  2 10  1  0  0  0  0
  3  4  1  0  0  0  0
  3 11  1  0  0  0  0
  3 12  2  0  0  0  0
  4 10  1  0  0  0  0
  5  6  1  0  0  0  0
  5  7  1  0  0  0  0
  6 11  1  0  0  0  0
  7 13  1  0  0  0  0
  9 10  1  0  0  0  0
  1 14  1  0  0  0  0
  2 15  1  0  0  0  0
  4 16  1  0  0  0  0
  4 17  1  0  0  0  0
  5 18  1  0  0  0  0
  5 19  1  0  0  0  0
  6 20  1  0  0  0  0
  6 21  1  0  0  0  0
  7 22  1  0  0  0  0
  7 23  1  0  0  0  0
 11 24  1  0  0  0  0
 13 25  1  0  0  0  0
M  END
> <FRED Chemgauss4 score>
-6.584836

$$$$
C37919944	P56983499
  -OEChem-05182014473D

 26 27  0     1  0  0  0  0  0999 V2000
  126.6549  105.8023  108.0322 C   0  0  0  0  0  0  0  0  0  0  0  0
  125.0204  105.6500  106.7429 C   0  0  0  0  0  0  0  0  0  0  0  0
  119.6341  104.8976  106.3507 C   0  0  0  0  0  0  0  0  0  0  0  0
  121.2264  106.3628  105.5450 C   0  0  0  0  0  0  0  0  0  0  0  0
  120.8658  104.6226  107.1676 C   0  0  0  0  0  0  0  0  0  0  0  0
  121.9442  105.5000  106.5496 C   0  0  1  0  0  0  0  0  0  0  0  0
  118.9305  106.4961  104.5857 C   0  0  0  0  0  0  0  0  0  0  0  0
  124.1075  105.5718  105.5535 C   0  0  0  0  0  0  0  0  0  0  0  0
  126.3253  105.7888  106.7071 N   0  0  0  0  0  0  0  0  0  0  0  0
  124.6024  105.5847  108.0355 N   0  0  0  0  0  0  0  0  0  0  0  0
  125.6359  105.6805  108.8856 N   0  0  0  0  0  0  0  0  0  0  0  0
  119.9149  105.9398  105.4941 N   0  0  0  0  0  0  0  0  0  0  0  0
  122.9319  104.7547  105.8215 N   0  0  0  0  0  0  0  0  0  0  0  0
  118.5798  104.2898  106.4754 O   0  0  0  0  0  0  0  0  0  0  0  0
  121.7629  107.2256  104.8630 O   0  0  0  0  0  0  0  0  0  0  0  0
  127.6775  105.9051  108.3707 H   0  0  0  0  0  0  0  0  0  0  0  0
  120.6737  104.9118  108.2059 H   0  0  0  0  0  0  0  0  0  0  0  0
  121.1039  103.5546  107.1392 H   0  0  0  0  0  0  0  0  0  0  0  0
  122.4160  106.1372  107.3006 H   0  0  0  0  0  0  0  0  0  0  0  0
  118.3883  107.3110  105.0724 H   0  0  0  0  0  0  0  0  0  0  0  0
  118.2142  105.7260  104.2868 H   0  0  0  0  0  0  0  0  0  0  0  0
  119.4208  106.8856  103.6895 H   0  0  0  0  0  0  0  0  0  0  0  0
  123.7647  106.5711  105.2635 H   0  0  0  0  0  0  0  0  0  0  0  0
  124.6242  105.1417  104.6891 H   0  0  0  0  0  0  0  0  0  0  0  0
  125.5278  105.6526  109.8957 H   0  0  0  0  0  0  0  0  0  0  0  0
  123.2073  103.9396  106.3684 H   0  0  0  0  0  0  0  0  0  0  0  0
  1  9  2  0  0  0  0
  1 11  1  0  0  0  0
  2  8  1  0  0  0  0
  2  9  1  0  0  0  0
  2 10  2  0  0  0  0
  3  5  1  0  0  0  0
  3 12  1  0  0  0  0
  3 14  2  0  0  0  0
  4  6  1  0  0  0  0
  4 12  1  0  0  0  0
  4 15  2  0  0  0  0
  5  6  1  0  0  0  0
  6 13  1  0  0  0  0
  7 12  1  0  0  0  0
  8 13  1  0  0  0  0
 10 11  1  0  0  0  0
  1 16  1  0  0  0  0
  5 17  1  0  0  0  0
  5 18  1  0  0  0  0
  6 19  1  0  0  0  0
  7 20  1  0  0  0  0
  7 21  1  0  0  0  0
  7 22  1  0  0  0  0
  8 23  1  0  0  0  0
  8 24  1  0  0  0  0
 11 25  1  0  0  0  0
 13 26  1  0  0  0  0
M  END
> <FRED Chemgauss4 score>
-6.575714

$$$$
C82681682	P129224236
  -OEChem-05182014473D

 24 24  0     1  0  0  0  0  0999 V2000
  124.5045  105.0852  107.7222 C   0  0  0  0  0  0  0  0  0  0  0  0
  123.4176  105.9641  108.3555 C   0  0  0  0  0  0  0  0  0  0  0  0
  125.5123  105.8188  106.8532 C   0  0  0  0  0  0  0  0  0  0  0  0
  123.9698  108.1368  107.1356 C   0  0  0  0  0  0  0  0  0  0  0  0
  123.7826  107.4480  108.4959 C   0  0  1  0  0  0  0  0  0  0  0  0
  122.6950  108.1786  109.2931 C   0  0  0  0  0  0  0  0  0  0  0  0
  123.0442  109.5506  109.4271 N   0  0  0  0  0  0  0  0  0  0  0  0
  125.8280  107.8853  105.2946 O   0  0  0  0  0  0  0  0  0  0  0  0
  123.7255  106.5097  105.0829 O   0  0  0  0  0  0  0  0  0  0  0  0
  124.9918  107.5467  109.2534 O   0  0  0  0  0  0  0  0  0  0  0  0
  124.7609  107.1124  105.9007 S   0  0  0  0  0  0  0  0  0  0  0  0
  125.0331  104.5167  108.5160 H   0  0  0  0  0  0  0  0  0  0  0  0
  124.0085  104.3080  107.1047 H   0  0  0  0  0  0  0  0  0  0  0  0
  122.4900  105.8579  107.7689 H   0  0  0  0  0  0  0  0  0  0  0  0
  123.2034  105.5467  109.3532 H   0  0  0  0  0  0  0  0  0  0  0  0
  126.2920  106.2810  107.4715 H   0  0  0  0  0  0  0  0  0  0  0  0
  126.0005  105.1306  106.1509 H   0  0  0  0  0  0  0  0  0  0  0  0
  123.0019  108.4395  106.7125 H   0  0  0  0  0  0  0  0  0  0  0  0
  124.6000  109.0322  107.2287 H   0  0  0  0  0  0  0  0  0  0  0  0
  122.6258  107.7244  110.2704 H   0  0  0  0  0  0  0  0  0  0  0  0
  121.7600  108.0927  108.7604 H   0  0  0  0  0  0  0  0  0  0  0  0
  124.0175  109.8179  109.5387 H   0  0  0  0  0  0  0  0  0  0  0  0
  122.3238  110.2413  109.6155 H   0  0  0  0  0  0  0  0  0  0  0  0
  124.8076  107.1437  110.1149 H   0  0  0  0  0  0  0  0  0  0  0  0
  1  2  1  0  0  0  0
  1  3  1  0  0  0  0
  2  5  1  0  0  0  0
  3 11  1  0  0  0  0
  4  5  1  0  0  0  0
  4 11  1  0  0  0  0
  5  6  1  0  0  0  0
  5 10  1  0  0  0  0
  6  7  1  0  0  0  0
  8 11  2  0  0  0  0
  9 11  2  0  0  0  0
  1 12  1  0  0  0  0
  1 13  1  0  0  0  0
  2 14  1  0  0  0  0
  2 15  1  0  0  0  0
  3 16  1  0  0  0  0
  3 17  1  0  0  0  0
  4 18  1  0  0  0  0
  4 19  1  0  0  0  0
  6 20  1  0  0  0  0
  6 21  1  0  0  0  0
  7 22  1  0  0  0  0
  7 23  1  0  0  0  0
 10 24  1  0  0  0  0
M  END
> <FRED Chemgauss4 score>
-6.563767

$$$$
C70628890	P108955305
  -OEChem-05182014473D

 23 23  0     1  0  0  0  0  0999 V2000
  120.3327  105.2593  105.2122 C   0  0  0  0  0  0  0  0  0  0  0  0
  120.7897  106.3341  104.4771 C   0  0  0  0  0  0  0  0  0  0  0  0
  121.1329  104.8751  106.2687 C   0  0  0  0  0  0  0  0  0  0  0  0
  122.6291  106.5209  105.7996 C   0  0  0  0  0  0  0  0  0  0  0  0
  123.6624  108.6940  106.5302 C   0  0  0  0  0  0  0  0  0  0  0  0
  124.9306  107.1141  104.9662 C   0  0  0  0  0  0  0  0  0  0  0  0
  123.9298  107.2365  106.1329 C   0  0  2  0  0  0  0  0  0  0  0  0
  121.9377  106.9908  104.7439 N   0  0  0  0  0  0  0  0  0  0  0  0
  122.2919  105.4855  106.5921 N   0  0  0  0  0  0  0  0  0  0  0  0
  120.6981  103.7760  107.0494 N   0  0  0  0  0  0  0  0  0  0  0  0
  126.1758  107.8295  105.2297 N   0  0  0  0  0  0  0  0  0  0  0  0
  119.4044  104.7601  104.9648 H   0  0  0  0  0  0  0  0  0  0  0  0
  120.2279  106.7083  103.6282 H   0  0  0  0  0  0  0  0  0  0  0  0
  123.2167  109.2544  105.7021 H   0  0  0  0  0  0  0  0  0  0  0  0
  124.5821  109.2104  106.8259 H   0  0  0  0  0  0  0  0  0  0  0  0
  122.9642  108.7479  107.3733 H   0  0  0  0  0  0  0  0  0  0  0  0
  125.1628  106.0631  104.7578 H   0  0  0  0  0  0  0  0  0  0  0  0
  124.4860  107.5297  104.0538 H   0  0  0  0  0  0  0  0  0  0  0  0
  124.3737  106.7429  107.0089 H   0  0  0  0  0  0  0  0  0  0  0  0
  119.8188  103.3549  106.8409 H   0  0  0  0  0  0  0  0  0  0  0  0
  121.2346  103.5092  107.8463 H   0  0  0  0  0  0  0  0  0  0  0  0
  126.7028  108.1575  104.4495 H   0  0  0  0  0  0  0  0  0  0  0  0
  126.5551  107.7876  106.1510 H   0  0  0  0  0  0  0  0  0  0  0  0
  1  2  1  0  0  0  0
  1  3  2  0  0  0  0
  2  8  2  0  0  0  0
  3  9  1  0  0  0  0
  3 10  1  0  0  0  0
  4  7  1  0  0  0  0
  4  8  1  0  0  0  0
  4  9  2  0  0  0  0
  5  7  1  0  0  0  0
  6  7  1  0  0  0  0
  6 11  1  0  0  0  0
  1 12  1  0  0  0  0
  2 13  1  0  0  0  0
  5 14  1  0  0  0  0
  5 15  1  0  0  0  0
  5 16  1  0  0  0  0
  6 17  1  0  0  0  0
  6 18  1  0  0  0  0
  7 19  1  0  0  0  0
 10 20  1  0  0  0  0
 10 21  1  0  0  0  0
 11 22  1  0  0  0  0
 11 23  1  0  0  0  0
M  END
> <FRED Chemgauss4 score>
-6.562258

$$$$
C22059726	P32818286
  -OEChem-05182014473D

 24 24  0     1  0  0  0  0  0999 V2000
  125.4784  107.2681  107.3903 C   0  0  1  0  0  0  0  0  0  0  0  0
  124.9890  106.2987  108.4679 C   0  0  1  0  0  0  0  0  0  0  0  0
  125.1896  106.6993  106.0010 C   0  0  1  0  0  0  0  0  0  0  0  0
  123.5623  105.7739  108.2268 C   0  0  1  0  0  0  0  0  0  0  0  0
  123.7227  106.2871  105.8278 C   0  0  2  0  0  0  0  0  0  0  0  0
  122.4703  106.7038  108.7498 C   0  0  0  0  0  0  0  0  0  0  0  0
  122.8142  107.4149  105.6329 N   0  0  0  0  0  0  0  0  0  0  0  0
  123.3192  105.3889  106.8680 O   0  0  0  0  0  0  0  0  0  0  0  0
  124.8370  108.5307  107.5408 O   0  0  0  0  0  0  0  0  0  0  0  0
  125.8824  105.1810  108.5109 O   0  0  0  0  0  0  0  0  0  0  0  0
  125.5931  107.6267  104.9997 O   0  0  0  0  0  0  0  0  0  0  0  0
  126.5547  107.4356  107.5089 H   0  0  0  0  0  0  0  0  0  0  0  0
  125.0585  106.7880  109.4619 H   0  0  0  0  0  0  0  0  0  0  0  0
  125.8603  105.7927  105.8507 H   0  0  0  0  0  0  0  0  0  0  0  0
  123.4524  104.8100  108.8547 H   0  0  0  0  0  0  0  0  0  0  0  0
  123.6586  105.6836  104.8568 H   0  0  0  0  0  0  0  0  0  0  0  0
  122.4983  107.6492  108.2093 H   0  0  0  0  0  0  0  0  0  0  0  0
  122.6243  106.8963  109.8108 H   0  0  0  0  0  0  0  0  0  0  0  0
  121.4931  106.2432  108.6101 H   0  0  0  0  0  0  0  0  0  0  0  0
  121.8444  107.2715  105.8121 H   0  0  0  0  0  0  0  0  0  0  0  0
  123.1557  108.2117  105.1411 H   0  0  0  0  0  0  0  0  0  0  0  0
  125.0705  108.8553  108.4242 H   0  0  0  0  0  0  0  0  0  0  0  0
  126.7584  105.5364  108.7263 H   0  0  0  0  0  0  0  0  0  0  0  0
  126.5435  107.7634  105.1240 H   0  0  0  0  0  0  0  0  0  0  0  0
  1  2  1  0  0  0  0
  1  3  1  0  0  0  0
  1  9  1  0  0  0  0
  2  4  1  0  0  0  0
  2 10  1  0  0  0  0
  3  5  1  0  0  0  0
  3 11  1  0  0  0  0
  4  6  1  0  0  0  0
  4  8  1  0  0  0  0
  5  7  1  0  0  0  0
  5  8  1  0  0  0  0
  1 12  1  0  0  0  0
  2 13  1  0  0  0  0
  3 14  1  0  0  0  0
  4 15  1  0  0  0  0
  5 16  1  0  0  0  0
  6 17  1  0  0  0  0
  6 18  1  0  0  0  0
  6 19  1  0  0  0  0
  7 20  1  0  0  0  0
  7 21  1  0  0  0  0
  9 22  1  0  0  0  0
 10 23  1  0  0  0  0
 11 24  1  0  0  0  0
M  END
> <FRED Chemgauss4 score>
-6.558248

$$$$
C85227463	P133359195
  -OEChem-05182014473D

 23 23  0     1  0  0  0  0  0999 V2000
  121.8033  107.7658  107.9223 C   0  0  0  0  0  0  0  0  0  0  0  0
  123.6851  107.1159  107.2950 C   0  0  0  0  0  0  0  0  0  0  0  0
  119.8946  109.0853  108.8721 C   0  0  0  0  0  0  0  0  0  0  0  0
  120.3451  107.9224  107.9760 C   0  0  0  0  0  0  0  0  0  0  0  0
  126.0580  106.3205  107.5797 C   0  0  0  0  0  0  0  0  0  0  0  0
  124.8777  106.4800  106.6182 C   0  0  2  0  0  0  0  0  0  0  0  0
  122.4153  106.9730  106.9941 N   0  0  0  0  0  0  0  0  0  0  0  0
  122.6146  108.3903  108.7785 N   0  0  0  0  0  0  0  0  0  0  0  0
  123.8122  107.9577  108.3556 N   0  0  0  0  0  0  0  0  0  0  0  0
  127.2828  106.1625  106.8282 N   0  0  0  0  0  0  0  0  0  0  0  0
  125.2604  107.3009  105.5143 O   0  0  0  0  0  0  0  0  0  0  0  0
  120.2969  108.9702  109.8843 H   0  0  0  0  0  0  0  0  0  0  0  0
  118.8038  109.1378  108.9448 H   0  0  0  0  0  0  0  0  0  0  0  0
  120.2544  110.0402  108.4742 H   0  0  0  0  0  0  0  0  0  0  0  0
  119.9145  108.0825  106.9651 H   0  0  0  0  0  0  0  0  0  0  0  0
  119.8487  106.9979  108.3395 H   0  0  0  0  0  0  0  0  0  0  0  0
  125.9251  105.4402  108.2180 H   0  0  0  0  0  0  0  0  0  0  0  0
  126.1605  107.1973  108.2285 H   0  0  0  0  0  0  0  0  0  0  0  0
  124.5912  105.5057  106.2032 H   0  0  0  0  0  0  0  0  0  0  0  0
  124.6491  108.2744  108.8311 H   0  0  0  0  0  0  0  0  0  0  0  0
  127.2651  105.6220  105.9824 H   0  0  0  0  0  0  0  0  0  0  0  0
  128.1523  106.4156  107.2618 H   0  0  0  0  0  0  0  0  0  0  0  0
  125.4830  108.1689  105.8831 H   0  0  0  0  0  0  0  0  0  0  0  0
  1  4  1  0  0  0  0
  1  7  1  0  0  0  0
  1  8  2  0  0  0  0
  2  6  1  0  0  0  0
  2  7  2  0  0  0  0
  2  9  1  0  0  0  0
  3  4  1  0  0  0  0
  5  6  1  0  0  0  0
  5 10  1  0  0  0  0
  6 11  1  0  0  0  0
  8  9  1  0  0  0  0
  3 12  1  0  0  0  0
  3 13  1  0  0  0  0
  3 14  1  0  0  0  0
  4 15  1  0  0  0  0
  4 16  1  0  0  0  0
  5 17  1  0  0  0  0
  5 18  1  0  0  0  0
  6 19  1  0  0  0  0
  9 20  1  0  0  0  0
 10 21  1  0  0  0  0
 10 22  1  0  0  0  0
 11 23  1  0  0  0  0
M  END
> <FRED Chemgauss4 score>
-6.546368

$$$$
C13887744	P21381985
  -OEChem-05182014473D

 22 23  0     1  0  0  0  0  0999 V2000
  123.0913  106.7154  105.5973 C   0  0  0  0  0  0  0  0  0  0  0  0
  124.5708  104.0122  107.3767 C   0  0  0  0  0  0  0  0  0  0  0  0
  121.6743  106.3267  105.2278 C   0  0  0  0  0  0  0  0  0  0  0  0
  121.5905  104.8720  105.7115 C   0  0  0  0  0  0  0  0  0  0  0  0
  124.8047  105.4859  107.0385 C   0  0  2  0  0  0  0  0  0  0  0  0
  122.4622  104.8915  106.9475 C   0  0  1  0  0  0  0  0  0  0  0  0
  125.2557  106.2828  108.2454 C   0  0  0  0  0  0  0  0  0  0  0  0
  123.2095  103.7224  107.2544 N   0  0  0  0  0  0  0  0  0  0  0  0
  123.4693  105.8475  106.6099 N   0  0  0  0  0  0  0  0  0  0  0  0
  123.7433  107.6046  105.0746 O   0  0  0  0  0  0  0  0  0  0  0  0
  125.4470  103.2329  107.7264 O   0  0  0  0  0  0  0  0  0  0  0  0
  126.6410  106.0568  108.4560 O   0  0  0  0  0  0  0  0  0  0  0  0
  120.9739  106.9740  105.7643 H   0  0  0  0  0  0  0  0  0  0  0  0
  121.5136  106.4030  104.1499 H   0  0  0  0  0  0  0  0  0  0  0  0
  120.5653  104.5528  105.9188 H   0  0  0  0  0  0  0  0  0  0  0  0
  122.0037  104.2020  104.9465 H   0  0  0  0  0  0  0  0  0  0  0  0
  125.4980  105.5828  106.1979 H   0  0  0  0  0  0  0  0  0  0  0  0
  121.9281  105.2328  107.8410 H   0  0  0  0  0  0  0  0  0  0  0  0
  124.7070  105.9691  109.1379 H   0  0  0  0  0  0  0  0  0  0  0  0
  125.0932  107.3518  108.0809 H   0  0  0  0  0  0  0  0  0  0  0  0
  122.8069  102.7978  107.3698 H   0  0  0  0  0  0  0  0  0  0  0  0
  126.8971  106.5798  109.2335 H   0  0  0  0  0  0  0  0  0  0  0  0
  1  3  1  0  0  0  0
  1  9  1  0  0  0  0
  1 10  2  0  0  0  0
  2  5  1  0  0  0  0
  2  8  1  0  0  0  0
  2 11  2  0  0  0  0
  3  4  1  0  0  0  0
  4  6  1  0  0  0  0
  5  7  1  0  0  0  0
  5  9  1  0  0  0  0
  6  8  1  0  0  0  0
  6  9  1  0  0  0  0
  7 12  1  0  0  0  0
  3 13  1  0  0  0  0
  3 14  1  0  0  0  0
  4 15  1  0  0  0  0
  4 16  1  0  0  0  0
  5 17  1  0  0  0  0
  6 18  1  0  0  0  0
  7 19  1  0  0  0  0
  7 20  1  0  0  0  0
  8 21  1  0  0  0  0
 12 22  1  0  0  0  0
M  END
> <FRED Chemgauss4 score>
-6.546357

$$$$
C80996774	P126495927
  -OEChem-05182014473D

 47 48  0     1  0  0  0  0  0999 V2000
  118.3652  103.9034  103.4355 C   0  0  0  0  0  0  0  0  0  0  0  0
  118.7850  104.5851   98.9831 C   0  0  0  0  0  0  0  0  0  0  0  0
  117.8591  105.3871   99.8926 C   0  0  0  0  0  0  0  0  0  0  0  0
  118.5891  104.4814  107.0661 C   0  0  0  0  0  0  0  0  0  0  0  0
  120.2791  104.7598   99.2476 C   0  0  0  0  0  0  0  0  0  0  0  0
  117.5846  104.6860  101.2242 C   0  0  0  0  0  0  0  0  0  0  0  0
  119.8920  105.2554  107.2803 C   0  0  0  0  0  0  0  0  0  0  0  0
  118.6583  103.5502  105.8634 C   0  0  0  0  0  0  0  0  0  0  0  0
  119.9050  105.4137  104.7538 C   0  0  0  0  0  0  0  0  0  0  0  0
  120.7127  105.0002  100.6837 C   0  0  0  0  0  0  0  0  0  0  0  0
  118.7365  104.7008  102.2241 C   0  0  2  0  0  0  0  0  0  0  0  0
  120.7655  105.3275  106.0184 C   0  0  1  0  0  0  0  0  0  0  0  0
  121.7474  106.4937  106.0997 C   0  0  0  0  0  0  0  0  0  0  0  0
  122.8240  106.3132  105.1406 N   0  5  0  0  0  0  0  0  0  0  0  0
  118.9677  104.2870  104.6354 N   0  0  0  0  0  0  0  0  0  0  0  0
  124.9596  106.0489  106.5102 N   0  0  0  0  0  0  0  0  0  0  0  0
  119.9858  104.1172  101.6394 N   0  3  0  0  0  0  0  0  0  0  0  0
  117.5709  102.9663  103.3273 O   0  0  0  0  0  0  0  0  0  0  0  0
  125.0247  107.4447  104.4049 O   0  0  0  0  0  0  0  0  0  0  0  0
  123.8566  108.3188  106.3934 O   0  0  0  0  0  0  0  0  0  0  0  0
  124.1071  107.1828  105.5104 S   0  0  0  0  0  0  0  0  0  0  0  0
  118.5461  103.5195   99.0977 H   0  0  0  0  0  0  0  0  0  0  0  0
  118.5737  104.8300   97.9338 H   0  0  0  0  0  0  0  0  0  0  0  0
  118.3638  106.3357  100.1157 H   0  0  0  0  0  0  0  0  0  0  0  0
  116.9272  105.6469   99.3784 H   0  0  0  0  0  0  0  0  0  0  0  0
  118.3699  103.8935  107.9725 H   0  0  0  0  0  0  0  0  0  0  0  0
  117.7545  105.1889  106.9434 H   0  0  0  0  0  0  0  0  0  0  0  0
  120.8187  103.8813   98.8399 H   0  0  0  0  0  0  0  0  0  0  0  0
  120.6304  105.6124   98.6343 H   0  0  0  0  0  0  0  0  0  0  0  0
  116.7066  105.1393  101.6946 H   0  0  0  0  0  0  0  0  0  0  0  0
  117.3053  103.6485  101.0128 H   0  0  0  0  0  0  0  0  0  0  0  0
  119.6496  106.2780  107.6267 H   0  0  0  0  0  0  0  0  0  0  0  0
  120.4604  104.7870  108.1048 H   0  0  0  0  0  0  0  0  0  0  0  0
  119.4031  102.7656  106.0446 H   0  0  0  0  0  0  0  0  0  0  0  0
  117.6931  103.0486  105.7079 H   0  0  0  0  0  0  0  0  0  0  0  0
  119.2945  106.3339  104.7596 H   0  0  0  0  0  0  0  0  0  0  0  0
  120.5552  105.4886  103.8702 H   0  0  0  0  0  0  0  0  0  0  0  0
  121.7801  104.7448  100.7928 H   0  0  0  0  0  0  0  0  0  0  0  0
  120.5893  106.0483  101.0073 H   0  0  0  0  0  0  0  0  0  0  0  0
  118.9628  105.7060  102.5355 H   0  0  0  0  0  0  0  0  0  0  0  0
  121.3575  104.3934  105.9667 H   0  0  0  0  0  0  0  0  0  0  0  0
  122.1333  106.5537  107.1219 H   0  0  0  0  0  0  0  0  0  0  0  0
  121.2010  107.4230  105.9114 H   0  0  0  0  0  0  0  0  0  0  0  0
  125.8424  105.6862  106.1279 H   0  0  0  0  0  0  0  0  0  0  0  0
  125.0336  106.2934  107.5061 H   0  0  0  0  0  0  0  0  0  0  0  0
  119.7822  103.2186  101.1973 H   0  0  0  0  0  0  0  0  0  0  0  0
  120.6158  103.9037  102.4164 H   0  0  0  0  0  0  0  0  0  0  0  0
  1 11  1  0  0  0  0
  1 15  1  0  0  0  0
  1 18  2  0  0  0  0
  2  3  1  0  0  0  0
  2  5  1  0  0  0  0
  3  6  1  0  0  0  0
  4  7  1  0  0  0  0
  4  8  1  0  0  0  0
  5 10  1  0  0  0  0
  6 11  1  0  0  0  0
  7 12  1  0  0  0  0
  8 15  1  0  0  0  0
  9 12  1  0  0  0  0
  9 15  1  0  0  0  0
 10 17  1  0  0  0  0
 11 17  1  0  0  0  0
 12 13  1  0  0  0  0
 13 14  1  0  0  0  0
 14 21  1  0  0  0  0
 16 21  1  0  0  0  0
 19 21  2  0  0  0  0
 20 21  2  0  0  0  0
  2 22  1  0  0  0  0
  2 23  1  0  0  0  0
  3 24  1  0  0  0  0
  3 25  1  0  0  0  0
  4 26  1  0  0  0  0
  4 27  1  0  0  0  0
  5 28  1  0  0  0  0
  5 29  1  0  0  0  0
  6 30  1  0  0  0  0
  6 31  1  0  0  0  0
  7 32  1  0  0  0  0
  7 33  1  0  0  0  0
  8 34  1  0  0  0  0
  8 35  1  0  0  0  0
  9 36  1  0  0  0  0
  9 37  1  0  0  0  0
 10 38  1  0  0  0  0
 10 39  1  0  0  0  0
 11 40  1  0  0  0  0
 12 41  1  0  0  0  0
 13 42  1  0  0  0  0
 13 43  1  0  0  0  0
 16 44  1  0  0  0  0
 16 45  1  0  0  0  0
 17 46  1  0  0  0  0
 17 47  1  0  0  0  0
M  CHG  2  14  -1  17   1
M  END
> <FRED Chemgauss4 score>
-6.545564

$$$$
C63405356	P97370607
  -OEChem-05182014473D

 40 42  0     1  0  0  0  0  0999 V2000
  115.8018  103.5993  105.0677 C   0  0  0  0  0  0  0  0  0  0  0  0
  115.4717  104.8320  105.7017 C   0  0  0  0  0  0  0  0  0  0  0  0
  116.0347  103.7570  103.7193 C   0  0  0  0  0  0  0  0  0  0  0  0
  115.4653  105.8850  104.8134 C   0  0  0  0  0  0  0  0  0  0  0  0
  121.1255  105.9809  107.4219 C   0  0  0  0  0  0  0  0  0  0  0  0
  123.4004  106.6056  107.8720 C   0  0  0  0  0  0  0  0  0  0  0  0
  125.4941  106.4543  107.3511 C   0  0  0  0  0  0  0  0  0  0  0  0
  117.5643  107.8525  105.7231 C   0  0  0  0  0  0  0  0  0  0  0  0
  121.0080  104.5488  106.9575 C   0  0  0  0  0  0  0  0  0  0  0  0
  119.5443  106.3616  105.8513 C   0  0  2  0  0  0  0  0  0  0  0  0
  124.6155  104.7134  108.9991 C   0  0  0  0  0  0  0  0  0  0  0  0
  115.1699  107.3376  105.0836 C   0  0  0  0  0  0  0  0  0  0  0  0
  122.0999  106.2966  108.5190 C   0  0  0  0  0  0  0  0  0  0  0  0
  116.1064  107.9172  106.1421 C   0  0  0  0  0  0  0  0  0  0  0  0
  120.4073  106.9260  106.8980 N   0  0  0  0  0  0  0  0  0  0  0  0
  123.5624  107.5883  107.0339 N   0  0  0  0  0  0  0  0  0  0  0  0
  124.8775  107.5157  106.6893 N   0  0  0  0  0  0  0  0  0  0  0  0
  124.5084  105.8653  108.1132 N   0  0  0  0  0  0  0  0  0  0  0  0
  118.1599  106.6664  106.1267 N   0  0  0  0  0  0  0  0  0  0  0  0
  118.1285  108.7510  105.1047 O   0  0  0  0  0  0  0  0  0  0  0  0
  127.1008  106.0642  107.1914 S   0  0  0  0  0  0  0  0  0  0  0  0
  115.8556  105.3860  103.2225 S   0  0  0  0  0  0  0  0  0  0  0  0
  119.7608  104.5796  105.6696 S   0  0  0  0  0  0  0  0  0  0  0  0
  115.8660  102.6453  105.5744 H   0  0  0  0  0  0  0  0  0  0  0  0
  115.2524  104.9360  106.7568 H   0  0  0  0  0  0  0  0  0  0  0  0
  116.3012  102.9936  103.0020 H   0  0  0  0  0  0  0  0  0  0  0  0
  121.9682  104.2053  106.5649 H   0  0  0  0  0  0  0  0  0  0  0  0
  120.6962  103.9124  107.7892 H   0  0  0  0  0  0  0  0  0  0  0  0
  119.7871  106.8394  104.8970 H   0  0  0  0  0  0  0  0  0  0  0  0
  124.3972  103.7945  108.4487 H   0  0  0  0  0  0  0  0  0  0  0  0
  123.9061  104.8052  109.8260 H   0  0  0  0  0  0  0  0  0  0  0  0
  125.6263  104.6455  109.4104 H   0  0  0  0  0  0  0  0  0  0  0  0
  115.2532  107.9080  104.1493 H   0  0  0  0  0  0  0  0  0  0  0  0
  114.1245  107.4458  105.4008 H   0  0  0  0  0  0  0  0  0  0  0  0
  122.2056  105.4369  109.1762 H   0  0  0  0  0  0  0  0  0  0  0  0
  121.7574  107.1645  109.0782 H   0  0  0  0  0  0  0  0  0  0  0  0
  115.9976  107.3691  107.0864 H   0  0  0  0  0  0  0  0  0  0  0  0
  115.8534  108.9665  106.3393 H   0  0  0  0  0  0  0  0  0  0  0  0
  125.2814  108.1795  106.0411 H   0  0  0  0  0  0  0  0  0  0  0  0
  117.6221  105.9954  106.6676 H   0  0  0  0  0  0  0  0  0  0  0  0
  1  2  1  0  0  0  0
  1  3  2  0  0  0  0
  2  4  2  0  0  0  0
  3 22  1  0  0  0  0
  4 12  1  0  0  0  0
  4 22  1  0  0  0  0
  5  9  1  0  0  0  0
  5 13  1  0  0  0  0
  5 15  2  0  0  0  0
  6 13  1  0  0  0  0
  6 16  2  0  0  0  0
  6 18  1  0  0  0  0
  7 17  1  0  0  0  0
  7 18  1  0  0  0  0
  7 21  2  0  0  0  0
  8 14  1  0  0  0  0
  8 19  1  0  0  0  0
  8 20  2  0  0  0  0
  9 23  1  0  0  0  0
 10 15  1  0  0  0  0
 10 19  1  0  0  0  0
 10 23  1  0  0  0  0
 11 18  1  0  0  0  0
 12 14  1  0  0  0  0
 16 17  1  0  0  0  0
  1 24  1  0  0  0  0
  2 25  1  0  0  0  0
  3 26  1  0  0  0  0
  9 27  1  0  0  0  0
  9 28  1  0  0  0  0
 10 29  1  0  0  0  0
 11 30  1  0  0  0  0
 11 31  1  0  0  0  0
 11 32  1  0  0  0  0
 12 33  1  0  0  0  0
 12 34  1  0  0  0  0
 13 35  1  0  0  0  0
 13 36  1  0  0  0  0
 14 37  1  0  0  0  0
 14 38  1  0  0  0  0
 17 39  1  0  0  0  0
 19 40  1  0  0  0  0
M  END
> <FRED Chemgauss4 score>
-6.543913

$$$$
C90311313	P141184916
  -OEChem-05182014473D

 39 40  0     1  0  0  0  0  0999 V2000
  121.9654  106.3699  105.6009 C   0  0  0  0  0  0  0  0  0  0  0  0
  119.2078  103.9303  106.6563 C   0  0  0  0  0  0  0  0  0  0  0  0
  118.1414  104.6037  105.7990 C   0  0  0  0  0  0  0  0  0  0  0  0
  120.6008  104.3908  106.2396 C   0  0  0  0  0  0  0  0  0  0  0  0
  126.1832  107.3764  106.6439 C   0  0  0  0  0  0  0  0  0  0  0  0
  118.3465  106.1129  105.7689 C   0  0  0  0  0  0  0  0  0  0  0  0
  120.6672  105.9132  106.1843 C   0  0  2  0  0  0  0  0  0  0  0  0
  124.7988  107.8375  106.1440 C   0  0  2  0  0  0  0  0  0  0  0  0
  124.4369  106.3471  105.9554 C   0  0  1  0  0  0  0  0  0  0  0  0
  125.5202  106.0273  107.0218 C   0  0  2  0  0  0  0  0  0  0  0  0
  125.6460  105.5059  110.6667 C   0  0  0  0  0  0  0  0  0  0  0  0
  126.1572  105.6137  109.2459 C   0  0  0  0  0  0  0  0  0  0  0  0
  124.9502  108.4625  104.8369 N   0  0  0  0  0  0  0  0  0  0  0  0
  123.0738  106.0070  106.3420 N   0  0  0  0  0  0  0  0  0  0  0  0
  121.9667  107.0050  104.5529 O   0  0  0  0  0  0  0  0  0  0  0  0
  119.6626  106.4352  105.3195 O   0  0  0  0  0  0  0  0  0  0  0  0
  125.0743  105.9157  108.3886 O   0  0  0  0  0  0  0  0  0  0  0  0
  119.0408  104.1841  107.7103 H   0  0  0  0  0  0  0  0  0  0  0  0
  119.1287  102.8409  106.5706 H   0  0  0  0  0  0  0  0  0  0  0  0
  118.2158  104.2114  104.7771 H   0  0  0  0  0  0  0  0  0  0  0  0
  117.1418  104.3618  106.1748 H   0  0  0  0  0  0  0  0  0  0  0  0
  121.3549  103.9960  106.9297 H   0  0  0  0  0  0  0  0  0  0  0  0
  120.8229  103.9709  105.2496 H   0  0  0  0  0  0  0  0  0  0  0  0
  126.9667  107.2696  105.8832 H   0  0  0  0  0  0  0  0  0  0  0  0
  126.5875  107.9534  107.4810 H   0  0  0  0  0  0  0  0  0  0  0  0
  117.6354  106.5713  105.0747 H   0  0  0  0  0  0  0  0  0  0  0  0
  118.1796  106.5582  106.7569 H   0  0  0  0  0  0  0  0  0  0  0  0
  120.5622  106.3588  107.1846 H   0  0  0  0  0  0  0  0  0  0  0  0
  124.2023  108.3945  106.8735 H   0  0  0  0  0  0  0  0  0  0  0  0
  124.6791  105.9177  104.9753 H   0  0  0  0  0  0  0  0  0  0  0  0
  126.1375  105.1582  106.7671 H   0  0  0  0  0  0  0  0  0  0  0  0
  125.1957  106.4478  110.9920 H   0  0  0  0  0  0  0  0  0  0  0  0
  124.8987  104.7098  110.7487 H   0  0  0  0  0  0  0  0  0  0  0  0
  126.4611  105.2490  111.3515 H   0  0  0  0  0  0  0  0  0  0  0  0
  126.6063  104.6685  108.9268 H   0  0  0  0  0  0  0  0  0  0  0  0
  126.9031  106.4101  109.1655 H   0  0  0  0  0  0  0  0  0  0  0  0
  125.6633  109.1523  104.7226 H   0  0  0  0  0  0  0  0  0  0  0  0
  124.2212  108.3373  104.1659 H   0  0  0  0  0  0  0  0  0  0  0  0
  122.9316  105.4778  107.1971 H   0  0  0  0  0  0  0  0  0  0  0  0
  1  7  1  0  0  0  0
  1 14  1  0  0  0  0
  1 15  2  0  0  0  0
  2  3  1  0  0  0  0
  2  4  1  0  0  0  0
  3  6  1  0  0  0  0
  4  7  1  0  0  0  0
  5  8  1  0  0  0  0
  5 10  1  0  0  0  0
  6 16  1  0  0  0  0
  7 16  1  0  0  0  0
  8  9  1  0  0  0  0
  8 13  1  0  0  0  0
  9 10  1  0  0  0  0
  9 14  1  0  0  0  0
 10 17  1  0  0  0  0
 11 12  1  0  0  0  0
 12 17  1  0  0  0  0
  2 18  1  0  0  0  0
  2 19  1  0  0  0  0
  3 20  1  0  0  0  0
  3 21  1  0  0  0  0
  4 22  1  0  0  0  0
  4 23  1  0  0  0  0
  5 24  1  0  0  0  0
  5 25  1  0  0  0  0
  6 26  1  0  0  0  0
  6 27  1  0  0  0  0
  7 28  1  0  0  0  0
  8 29  1  0  0  0  0
  9 30  1  0  0  0  0
 10 31  1  0  0  0  0
 11 32  1  0  0  0  0
 11 33  1  0  0  0  0
 11 34  1  0  0  0  0
 12 35  1  0  0  0  0
 12 36  1  0  0  0  0
 13 37  1  0  0  0  0
 13 38  1  0  0  0  0
 14 39  1  0  0  0  0
M  END
> <FRED Chemgauss4 score>
-6.540191

$$$$
C41058784	P62326215
  -OEChem-05182014473D

 26 27  0     1  0  0  0  0  0999 V2000
  123.5955  107.2162  106.2908 C   0  0  0  0  0  0  0  0  0  0  0  0
  124.7900  106.4286  107.8106 C   0  0  0  0  0  0  0  0  0  0  0  0
  121.3312  106.4314  105.2329 C   0  0  0  0  0  0  0  0  0  0  0  0
  122.4002  106.1240  104.2316 C   0  0  0  0  0  0  0  0  0  0  0  0
  122.5750  107.2873  105.1796 C   0  0  0  0  0  0  0  0  0  0  0  0
  125.2752  103.4629  107.4393 C   0  0  0  0  0  0  0  0  0  0  0  0
  125.0322  104.1144  108.7953 C   0  0  0  0  0  0  0  0  0  0  0  0
  125.5055  105.5774  108.8401 C   0  0  1  0  0  0  0  0  0  0  0  0
  123.8748  106.0523  106.9480 N   0  0  0  0  0  0  0  0  0  0  0  0
  124.2803  108.2891  106.6926 N   0  0  0  0  0  0  0  0  0  0  0  0
  125.0369  107.7581  107.6651 N   0  0  0  0  0  0  0  0  0  0  0  0
  126.9384  105.6794  108.6758 N   0  0  0  0  0  0  0  0  0  0  0  0
  120.4057  106.8602  104.8668 H   0  0  0  0  0  0  0  0  0  0  0  0
  121.2064  105.7468  106.0636 H   0  0  0  0  0  0  0  0  0  0  0  0
  122.9954  105.2321  104.3888 H   0  0  0  0  0  0  0  0  0  0  0  0
  122.1965  106.3451  103.1904 H   0  0  0  0  0  0  0  0  0  0  0  0
  122.4468  108.2891  104.7338 H   0  0  0  0  0  0  0  0  0  0  0  0
  126.3340  103.5109  107.1654 H   0  0  0  0  0  0  0  0  0  0  0  0
  124.9814  102.4089  107.4706 H   0  0  0  0  0  0  0  0  0  0  0  0
  124.6923  103.9503  106.6518 H   0  0  0  0  0  0  0  0  0  0  0  0
  123.9627  104.0447  109.0305 H   0  0  0  0  0  0  0  0  0  0  0  0
  125.5633  103.5309  109.5582 H   0  0  0  0  0  0  0  0  0  0  0  0
  125.2995  105.9782  109.8404 H   0  0  0  0  0  0  0  0  0  0  0  0
  125.6824  108.3531  108.1711 H   0  0  0  0  0  0  0  0  0  0  0  0
  127.5212  104.9553  109.0548 H   0  0  0  0  0  0  0  0  0  0  0  0
  127.3294  106.5536  108.3748 H   0  0  0  0  0  0  0  0  0  0  0  0
  1  5  1  0  0  0  0
  1  9  1  0  0  0  0
  1 10  2  0  0  0  0
  2  8  1  0  0  0  0
  2  9  2  0  0  0  0
  2 11  1  0  0  0  0
  3  4  1  0  0  0  0
  3  5  1  0  0  0  0
  4  5  1  0  0  0  0
  6  7  1  0  0  0  0
  7  8  1  0  0  0  0
  8 12  1  0  0  0  0
 10 11  1  0  0  0  0
  3 13  1  0  0  0  0
  3 14  1  0  0  0  0
  4 15  1  0  0  0  0
  4 16  1  0  0  0  0
  5 17  1  0  0  0  0
  6 18  1  0  0  0  0
  6 19  1  0  0  0  0
  6 20  1  0  0  0  0
  7 21  1  0  0  0  0
  7 22  1  0  0  0  0
  8 23  1  0  0  0  0
 11 24  1  0  0  0  0
 12 25  1  0  0  0  0
 12 26  1  0  0  0  0
M  END
> <FRED Chemgauss4 score>
-6.540135

$$$$
C70495500	P108751999
  -OEChem-05182014473D

 28 28  0     1  0  0  0  0  0999 V2000
  123.6999  106.7056  106.3942 C   0  0  0  0  0  0  0  0  0  0  0  0
  125.5815  105.5686  108.3254 C   0  0  0  0  0  0  0  0  0  0  0  0
  126.1246  106.2623  107.0922 C   0  0  0  0  0  0  0  0  0  0  0  0
  124.3116  104.8261  107.9559 C   0  0  0  0  0  0  0  0  0  0  0  0
  125.1032  107.2749  106.6018 C   0  0  1  0  0  0  0  0  0  0  0  0
  121.0070  106.2000  107.5408 C   0  0  0  0  0  0  0  0  0  0  0  0
  121.7081  104.5784  105.7480 C   0  0  0  0  0  0  0  0  0  0  0  0
  121.9880  105.1004  107.1552 C   0  0  1  0  0  0  0  0  0  0  0  0
  123.3416  105.6355  107.2189 N   0  0  0  0  0  0  0  0  0  0  0  0
  125.5320  107.8725  105.3616 N   0  0  0  0  0  0  0  0  0  0  0  0
  122.9165  107.2532  105.6127 O   0  0  0  0  0  0  0  0  0  0  0  0
  122.6236  103.5325  105.4425 O   0  0  0  0  0  0  0  0  0  0  0  0
  126.3210  104.8679  108.7280 H   0  0  0  0  0  0  0  0  0  0  0  0
  125.3717  106.3072  109.1087 H   0  0  0  0  0  0  0  0  0  0  0  0
  127.0704  106.7613  107.3349 H   0  0  0  0  0  0  0  0  0  0  0  0
  126.3424  105.5153  106.3175 H   0  0  0  0  0  0  0  0  0  0  0  0
  124.5505  103.9624  107.3239 H   0  0  0  0  0  0  0  0  0  0  0  0
  123.8330  104.4520  108.8680 H   0  0  0  0  0  0  0  0  0  0  0  0
  124.9939  108.0713  107.3575 H   0  0  0  0  0  0  0  0  0  0  0  0
  121.0615  107.0365  106.8366 H   0  0  0  0  0  0  0  0  0  0  0  0
  121.2138  106.5856  108.5456 H   0  0  0  0  0  0  0  0  0  0  0  0
  119.9785  105.8224  107.5382 H   0  0  0  0  0  0  0  0  0  0  0  0
  120.6959  104.1658  105.6836 H   0  0  0  0  0  0  0  0  0  0  0  0
  121.8165  105.3662  104.9946 H   0  0  0  0  0  0  0  0  0  0  0  0
  121.9153  104.2757  107.8732 H   0  0  0  0  0  0  0  0  0  0  0  0
  126.5043  108.0492  105.2408 H   0  0  0  0  0  0  0  0  0  0  0  0
  124.8358  108.2675  104.7693 H   0  0  0  0  0  0  0  0  0  0  0  0
  122.4122  103.2309  104.5448 H   0  0  0  0  0  0  0  0  0  0  0  0
  1  5  1  0  0  0  0
  1  9  1  0  0  0  0
  1 11  2  0  0  0  0
  2  3  1  0  0  0  0
  2  4  1  0  0  0  0
  3  5  1  0  0  0  0
  4  9  1  0  0  0  0
  5 10  1  0  0  0  0
  6  8  1  0  0  0  0
  7  8  1  0  0  0  0
  7 12  1  0  0  0  0
  8  9  1  0  0  0  0
  2 13  1  0  0  0  0
  2 14  1  0  0  0  0
  3 15  1  0  0  0  0
  3 16  1  0  0  0  0
  4 17  1  0  0  0  0
  4 18  1  0  0  0  0
  5 19  1  0  0  0  0
  6 20  1  0  0  0  0
  6 21  1  0  0  0  0
  6 22  1  0  0  0  0
  7 23  1  0  0  0  0
  7 24  1  0  0  0  0
  8 25  1  0  0  0  0
 10 26  1  0  0  0  0
 10 27  1  0  0  0  0
 12 28  1  0  0  0  0
M  END
> <FRED Chemgauss4 score>
-6.540002

$$$$
C61594745	P94307894
  -OEChem-05182014473D

 31 32  0     1  0  0  0  0  0999 V2000
  122.4249  106.3675  107.3166 C   0  0  0  0  0  0  0  0  0  0  0  0
  124.0850  107.5949  106.6337 C   0  0  0  0  0  0  0  0  0  0  0  0
  125.9187  105.1741  107.6757 C   0  0  0  0  0  0  0  0  0  0  0  0
  124.7985  104.2955  108.1478 C   0  0  0  0  0  0  0  0  0  0  0  0
  124.6079  105.1686  106.9378 C   0  0  0  0  0  0  0  0  0  0  0  0
  118.2768  106.3021  105.5453 C   0  0  0  0  0  0  0  0  0  0  0  0
  119.4153  106.2645  106.5728 C   0  0  2  0  0  0  0  0  0  0  0  0
  120.2590  104.9653  106.5115 C   0  0  1  0  0  0  0  0  0  0  0  0
  120.9551  104.7551  105.1672 C   0  0  0  0  0  0  0  0  0  0  0  0
  121.8930  107.5504  107.2444 N   0  0  0  0  0  0  0  0  0  0  0  0
  122.9149  108.3452  106.8168 N   0  0  0  0  0  0  0  0  0  0  0  0
  123.7368  106.3005  106.9682 N   0  0  0  0  0  0  0  0  0  0  0  0
  118.8187  106.4208  107.9052 N   0  0  0  0  0  0  0  0  0  0  0  0
  125.1675  108.0206  106.2575 O   0  0  0  0  0  0  0  0  0  0  0  0
  120.0689  104.6380  104.1543 F   0  0  0  0  0  0  0  0  0  0  0  0
  121.7853  105.7829  104.8738 F   0  0  0  0  0  0  0  0  0  0  0  0
  121.7158  103.6370  105.1737 F   0  0  0  0  0  0  0  0  0  0  0  0
  121.5515  104.9542  107.8171 S   0  0  0  0  0  0  0  0  0  0  0  0
  126.1684  106.0388  108.2783 H   0  0  0  0  0  0  0  0  0  0  0  0
  126.7672  104.6980  107.1998 H   0  0  0  0  0  0  0  0  0  0  0  0
  124.8929  103.2283  107.9893 H   0  0  0  0  0  0  0  0  0  0  0  0
  124.2964  104.5705  109.0671 H   0  0  0  0  0  0  0  0  0  0  0  0
  124.5944  104.6692  105.9750 H   0  0  0  0  0  0  0  0  0  0  0  0
  117.5920  105.4575  105.6670 H   0  0  0  0  0  0  0  0  0  0  0  0
  118.6629  106.2833  104.5198 H   0  0  0  0  0  0  0  0  0  0  0  0
  117.6741  107.2107  105.6603 H   0  0  0  0  0  0  0  0  0  0  0  0
  120.0667  107.1309  106.4032 H   0  0  0  0  0  0  0  0  0  0  0  0
  119.6123  104.1010  106.7049 H   0  0  0  0  0  0  0  0  0  0  0  0
  122.7726  109.3370  106.6734 H   0  0  0  0  0  0  0  0  0  0  0  0
  118.0113  106.9939  107.9846 H   0  0  0  0  0  0  0  0  0  0  0  0
  119.3532  106.1227  108.6875 H   0  0  0  0  0  0  0  0  0  0  0  0
  1 10  2  0  0  0  0
  1 12  1  0  0  0  0
  1 18  1  0  0  0  0
  2 11  1  0  0  0  0
  2 12  1  0  0  0  0
  2 14  2  0  0  0  0
  3  4  1  0  0  0  0
  3  5  1  0  0  0  0
  4  5  1  0  0  0  0
  5 12  1  0  0  0  0
  6  7  1  0  0  0  0
  7  8  1  0  0  0  0
  7 13  1  0  0  0  0
  8  9  1  0  0  0  0
  8 18  1  0  0  0  0
  9 15  1  0  0  0  0
  9 16  1  0  0  0  0
  9 17  1  0  0  0  0
 10 11  1  0  0  0  0
  3 19  1  0  0  0  0
  3 20  1  0  0  0  0
  4 21  1  0  0  0  0
  4 22  1  0  0  0  0
  5 23  1  0  0  0  0
  6 24  1  0  0  0  0
  6 25  1  0  0  0  0
  6 26  1  0  0  0  0
  7 27  1  0  0  0  0
  8 28  1  0  0  0  0
 11 29  1  0  0  0  0
 13 30  1  0  0  0  0
 13 31  1  0  0  0  0
M  END
> <FRED Chemgauss4 score>
-6.539194

$$$$
C03881806	P04582166
  -OEChem-05182014473D

 22 22  0     1  0  0  0  0  0999 V2000
  123.0054  105.7118  106.5334 C   0  0  0  0  0  0  0  0  0  0  0  0
  122.9252  107.2134  106.6461 C   0  0  1  0  0  0  0  0  0  0  0  0
  124.1547  107.8458  107.2754 C   0  0  1  0  0  0  0  0  0  0  0  0
  125.4392  107.3120  106.6577 C   0  0  1  0  0  0  0  0  0  0  0  0
  125.4780  105.7922  106.7817 C   0  0  1  0  0  0  0  0  0  0  0  0
  125.8073  105.3146  108.1928 C   0  0  0  0  0  0  0  0  0  0  0  0
  121.9875  105.0254  106.4680 O   0  0  0  0  0  0  0  0  0  0  0  0
  124.2326  105.1590  106.3835 O   0  0  0  0  0  0  0  0  0  0  0  0
  122.7310  107.6879  105.3202 O   0  0  0  0  0  0  0  0  0  0  0  0
  124.1012  109.2639  107.1605 O   0  0  0  0  0  0  0  0  0  0  0  0
  125.5083  107.6381  105.2689 O   0  0  0  0  0  0  0  0  0  0  0  0
  126.8190  106.1493  108.7254 O   0  0  0  0  0  0  0  0  0  0  0  0
  122.0321  107.4449  107.2141 H   0  0  0  0  0  0  0  0  0  0  0  0
  124.1555  107.6523  108.3847 H   0  0  0  0  0  0  0  0  0  0  0  0
  126.3021  107.7549  107.1545 H   0  0  0  0  0  0  0  0  0  0  0  0
  126.2623  105.3808  106.1140 H   0  0  0  0  0  0  0  0  0  0  0  0
  126.1668  104.2864  108.1620 H   0  0  0  0  0  0  0  0  0  0  0  0
  124.9200  105.3763  108.8222 H   0  0  0  0  0  0  0  0  0  0  0  0
  121.9027  107.2956  104.9966 H   0  0  0  0  0  0  0  0  0  0  0  0
  124.9074  109.6020  107.5779 H   0  0  0  0  0  0  0  0  0  0  0  0
  126.3441  107.2722  104.9377 H   0  0  0  0  0  0  0  0  0  0  0  0
  127.0124  105.8274  109.6225 H   0  0  0  0  0  0  0  0  0  0  0  0
  1  2  1  0  0  0  0
  1  7  2  0  0  0  0
  1  8  1  0  0  0  0
  2  3  1  0  0  0  0
  2  9  1  0  0  0  0
  3  4  1  0  0  0  0
  3 10  1  0  0  0  0
  4  5  1  0  0  0  0
  4 11  1  0  0  0  0
  5  6  1  0  0  0  0
  5  8  1  0  0  0  0
  6 12  1  0  0  0  0
  2 13  1  0  0  0  0
  3 14  1  0  0  0  0
  4 15  1  0  0  0  0
  5 16  1  0  0  0  0
  6 17  1  0  0  0  0
  6 18  1  0  0  0  0
  9 19  1  0  0  0  0
 10 20  1  0  0  0  0
 11 21  1  0  0  0  0
 12 22  1  0  0  0  0
M  END
> <FRED Chemgauss4 score>
-6.537953

$$$$
C90433671	P141417571
  -OEChem-05182014473D

 44 45  0     1  0  0  0  0  0999 V2000
  118.5031  104.5966  105.7811 C   0  0  0  0  0  0  0  0  0  0  0  0
  125.1473  107.0546  106.0222 C   0  0  0  0  0  0  0  0  0  0  0  0
  120.8904  106.7365  107.6380 C   0  0  0  0  0  0  0  0  0  0  0  0
  121.7654  104.9288  106.1147 C   0  0  0  0  0  0  0  0  0  0  0  0
  121.5548  107.7658  106.7162 C   0  0  0  0  0  0  0  0  0  0  0  0
  122.4041  106.0271  105.2558 C   0  0  0  0  0  0  0  0  0  0  0  0
  116.0443  104.7775  105.5493 C   0  0  0  0  0  0  0  0  0  0  0  0
  116.4717  102.9259  104.1865 C   0  0  0  0  0  0  0  0  0  0  0  0
  117.3820  105.0018  104.8650 C   0  0  2  0  0  0  0  0  0  0  0  0
  120.5559  105.4358  106.9046 C   0  0  0  0  0  0  0  0  0  0  0  0
  117.2558  104.1078  103.6445 C   0  0  1  0  0  0  0  0  0  0  0  0
  118.9931  104.7780  102.1308 C   0  0  0  0  0  0  0  0  0  0  0  0
  123.8894  107.0953  106.8588 C   0  0  0  0  0  0  0  0  0  0  0  0
  122.7253  107.2566  105.9909 N   0  0  0  0  0  0  0  0  0  0  0  0
  125.8503  105.8809  106.1903 N   0  0  0  0  0  0  0  0  0  0  0  0
  119.4052  105.6087  106.0475 N   0  0  0  0  0  0  0  0  0  0  0  0
  118.5081  103.7268  103.0173 N   0  0  0  0  0  0  0  0  0  0  0  0
  118.5450  103.4513  106.2148 O   0  0  0  0  0  0  0  0  0  0  0  0
  125.4831  107.9446  105.2456 O   0  0  0  0  0  0  0  0  0  0  0  0
  115.6113  103.4481  105.2107 O   0  0  0  0  0  0  0  0  0  0  0  0
  121.5717  106.5128  108.4696 H   0  0  0  0  0  0  0  0  0  0  0  0
  119.9860  107.1734  108.0786 H   0  0  0  0  0  0  0  0  0  0  0  0
  121.4795  104.0858  105.4726 H   0  0  0  0  0  0  0  0  0  0  0  0
  122.5174  104.5473  106.8192 H   0  0  0  0  0  0  0  0  0  0  0  0
  120.8004  108.1674  106.0055 H   0  0  0  0  0  0  0  0  0  0  0  0
  121.8576  108.6311  107.3415 H   0  0  0  0  0  0  0  0  0  0  0  0
  123.3323  105.6102  104.8128 H   0  0  0  0  0  0  0  0  0  0  0  0
  121.7425  106.2517  104.3910 H   0  0  0  0  0  0  0  0  0  0  0  0
  116.0870  104.8697  106.6394 H   0  0  0  0  0  0  0  0  0  0  0  0
  115.2834  105.4712  105.1738 H   0  0  0  0  0  0  0  0  0  0  0  0
  115.8683  102.4332  103.4179 H   0  0  0  0  0  0  0  0  0  0  0  0
  117.1162  102.1719  104.6526 H   0  0  0  0  0  0  0  0  0  0  0  0
  117.5395  106.0526  104.6021 H   0  0  0  0  0  0  0  0  0  0  0  0
  120.2570  104.6735  107.6393 H   0  0  0  0  0  0  0  0  0  0  0  0
  116.6401  104.6189  102.8991 H   0  0  0  0  0  0  0  0  0  0  0  0
  119.1463  105.7027  102.6932 H   0  0  0  0  0  0  0  0  0  0  0  0
  118.2671  104.9663  101.3352 H   0  0  0  0  0  0  0  0  0  0  0  0
  119.9421  104.4812  101.6763 H   0  0  0  0  0  0  0  0  0  0  0  0
  123.9112  107.9372  107.5561 H   0  0  0  0  0  0  0  0  0  0  0  0
  123.7863  106.1567  107.4100 H   0  0  0  0  0  0  0  0  0  0  0  0
  125.5150  105.1576  106.8178 H   0  0  0  0  0  0  0  0  0  0  0  0
  126.7190  105.6925  105.7002 H   0  0  0  0  0  0  0  0  0  0  0  0
  119.2523  106.5172  105.6207 H   0  0  0  0  0  0  0  0  0  0  0  0
  118.3708  102.8719  102.4759 H   0  0  0  0  0  0  0  0  0  0  0  0
  1  9  1  0  0  0  0
  1 16  1  0  0  0  0
  1 18  2  0  0  0  0
  2 13  1  0  0  0  0
  2 15  1  0  0  0  0
  2 19  2  0  0  0  0
  3  5  1  0  0  0  0
  3 10  1  0  0  0  0
  4  6  1  0  0  0  0
  4 10  1  0  0  0  0
  5 14  1  0  0  0  0
  6 14  1  0  0  0  0
  7  9  1  0  0  0  0
  7 20  1  0  0  0  0
  8 11  1  0  0  0  0
  8 20  1  0  0  0  0
  9 11  1  0  0  0  0
 10 16  1  0  0  0  0
 11 17  1  0  0  0  0
 12 17  1  0  0  0  0
 13 14  1  0  0  0  0
  3 21  1  0  0  0  0
  3 22  1  0  0  0  0
  4 23  1  0  0  0  0
  4 24  1  0  0  0  0
  5 25  1  0  0  0  0
  5 26  1  0  0  0  0
  6 27  1  0  0  0  0
  6 28  1  0  0  0  0
  7 29  1  0  0  0  0
  7 30  1  0  0  0  0
  8 31  1  0  0  0  0
  8 32  1  0  0  0  0
  9 33  1  0  0  0  0
 10 34  1  0  0  0  0
 11 35  1  0  0  0  0
 12 36  1  0  0  0  0
 12 37  1  0  0  0  0
 12 38  1  0  0  0  0
 13 39  1  0  0  0  0
 13 40  1  0  0  0  0
 15 41  1  0  0  0  0
 15 42  1  0  0  0  0
 16 43  1  0  0  0  0
 17 44  1  0  0  0  0
M  END
> <FRED Chemgauss4 score>
-6.537248

$$$$
C70841683	P109362130
  -OEChem-05182014473D

 27 28  0     0  0  0  0  0  0999 V2000
  119.1372  104.4353  105.8556 C   0  0  0  0  0  0  0  0  0  0  0  0
  118.2787  106.4440  105.2232 C   0  0  0  0  0  0  0  0  0  0  0  0
  117.6749  104.4034  106.2411 C   0  0  0  0  0  0  0  0  0  0  0  0
  123.7731  106.0816  105.3107 C   0  0  0  0  0  0  0  0  0  0  0  0
  123.6149  107.8746  106.3676 C   0  0  0  0  0  0  0  0  0  0  0  0
  124.8253  107.0311  105.9191 C   0  0  0  0  0  0  0  0  0  0  0  0
  120.7113  106.0500  104.7725 C   0  0  0  0  0  0  0  0  0  0  0  0
  121.5209  106.7997  105.8171 C   0  0  0  0  0  0  0  0  0  0  0  0
  117.2456  105.7013  105.7999 N   0  0  0  0  0  0  0  0  0  0  0  0
  119.4197  105.6554  105.2674 N   0  0  0  0  0  0  0  0  0  0  0  0
  122.8215  107.2160  105.3050 N   0  0  0  0  0  0  0  0  0  0  0  0
  119.9129  103.5090  106.0505 O   0  0  0  0  0  0  0  0  0  0  0  0
  118.1737  107.5760  104.7694 O   0  0  0  0  0  0  0  0  0  0  0  0
  125.7282  107.6630  104.9915 O   0  0  0  0  0  0  0  0  0  0  0  0
  117.1340  103.6304  105.6931 H   0  0  0  0  0  0  0  0  0  0  0  0
  117.5476  104.3202  107.3216 H   0  0  0  0  0  0  0  0  0  0  0  0
  124.0534  105.6773  104.3282 H   0  0  0  0  0  0  0  0  0  0  0  0
  123.4751  105.2479  105.9557 H   0  0  0  0  0  0  0  0  0  0  0  0
  123.2614  107.6717  107.3845 H   0  0  0  0  0  0  0  0  0  0  0  0
  123.7640  108.9582  106.2618 H   0  0  0  0  0  0  0  0  0  0  0  0
  125.3796  106.5849  106.7561 H   0  0  0  0  0  0  0  0  0  0  0  0
  121.2268  105.1421  104.4436 H   0  0  0  0  0  0  0  0  0  0  0  0
  120.5396  106.6887  103.9005 H   0  0  0  0  0  0  0  0  0  0  0  0
  120.9925  107.7064  106.1271 H   0  0  0  0  0  0  0  0  0  0  0  0
  121.6986  106.1815  106.7031 H   0  0  0  0  0  0  0  0  0  0  0  0
  116.2942  106.0420  105.8968 H   0  0  0  0  0  0  0  0  0  0  0  0
  126.3134  108.2159  105.5265 H   0  0  0  0  0  0  0  0  0  0  0  0
  1  3  1  0  0  0  0
  1 10  1  0  0  0  0
  1 12  2  0  0  0  0
  2  9  1  0  0  0  0
  2 10  1  0  0  0  0
  2 13  2  0  0  0  0
  3  9  1  0  0  0  0
  4  6  1  0  0  0  0
  4 11  1  0  0  0  0
  5  6  1  0  0  0  0
  5 11  1  0  0  0  0
  6 14  1  0  0  0  0
  7  8  1  0  0  0  0
  7 10  1  0  0  0  0
  8 11  1  0  0  0  0
  3 15  1  0  0  0  0
  3 16  1  0  0  0  0
  4 17  1  0  0  0  0
  4 18  1  0  0  0  0
  5 19  1  0  0  0  0
  5 20  1  0  0  0  0
  6 21  1  0  0  0  0
  7 22  1  0  0  0  0
  7 23  1  0  0  0  0
  8 24  1  0  0  0  0
  8 25  1  0  0  0  0
  9 26  1  0  0  0  0
 14 27  1  0  0  0  0
M  END
> <FRED Chemgauss4 score>
-6.529834

$$$$
C22212436	P33050508
  -OEChem-05182014473D

 30 30  0     1  0  0  0  0  0999 V2000
  120.3046  104.1874  106.6349 C   0  0  0  0  0  0  0  0  0  0  0  0
  120.9913  104.3444  104.3326 C   0  0  0  0  0  0  0  0  0  0  0  0
  118.8558  104.0868  106.1680 C   0  0  0  0  0  0  0  0  0  0  0  0
  119.5201  104.2455  103.9121 C   0  0  1  0  0  0  0  0  0  0  0  0
  119.3804  103.5490  102.5653 C   0  0  0  0  0  0  0  0  0  0  0  0
  122.4831  105.0657  106.0871 C   0  0  0  0  0  0  0  0  0  0  0  0
  124.6628  106.3758  105.9196 C   0  0  0  0  0  0  0  0  0  0  0  0
  123.2075  106.2605  105.4653 C   0  0  2  0  0  0  0  0  0  0  0  0
  121.0881  104.9628  105.6634 N   0  0  2  0  0  0  0  0  0  0  0  0
  125.2876  107.5194  105.2919 N   0  0  0  0  0  0  0  0  0  0  0  0
  118.7899  103.4799  104.8772 O   0  0  0  0  0  0  0  0  0  0  0  0
  122.5225  107.4634  105.8143 O   0  0  0  0  0  0  0  0  0  0  0  0
  120.3286  104.6735  107.6169 H   0  0  0  0  0  0  0  0  0  0  0  0
  120.7240  103.1788  106.7440 H   0  0  0  0  0  0  0  0  0  0  0  0
  121.4442  103.3439  104.3488 H   0  0  0  0  0  0  0  0  0  0  0  0
  121.5364  104.9496  103.5984 H   0  0  0  0  0  0  0  0  0  0  0  0
  118.2844  103.4596  106.8596 H   0  0  0  0  0  0  0  0  0  0  0  0
  118.3713  105.0704  106.1355 H   0  0  0  0  0  0  0  0  0  0  0  0
  119.0711  105.2445  103.8386 H   0  0  0  0  0  0  0  0  0  0  0  0
  119.8199  102.5522  102.6125 H   0  0  0  0  0  0  0  0  0  0  0  0
  119.8916  104.1238  101.7925 H   0  0  0  0  0  0  0  0  0  0  0  0
  118.3269  103.4580  102.2989 H   0  0  0  0  0  0  0  0  0  0  0  0
  122.9774  104.1271  105.8175 H   0  0  0  0  0  0  0  0  0  0  0  0
  122.4704  105.1507  107.1784 H   0  0  0  0  0  0  0  0  0  0  0  0
  125.2334  105.4820  105.6465 H   0  0  0  0  0  0  0  0  0  0  0  0
  124.7161  106.5034  107.0057 H   0  0  0  0  0  0  0  0  0  0  0  0
  123.1650  106.1681  104.3731 H   0  0  0  0  0  0  0  0  0  0  0  0
  125.0601  107.7308  104.3376 H   0  0  0  0  0  0  0  0  0  0  0  0
  126.0743  107.9485  105.7439 H   0  0  0  0  0  0  0  0  0  0  0  0
  121.6240  107.3792  105.4610 H   0  0  0  0  0  0  0  0  0  0  0  0
  1  3  1  0  0  0  0
  1  9  1  0  0  0  0
  2  4  1  0  0  0  0
  2  9  1  0  0  0  0
  3 11  1  0  0  0  0
  4  5  1  0  0  0  0
  4 11  1  0  0  0  0
  6  8  1  0  0  0  0
  6  9  1  0  0  0  0
  7  8  1  0  0  0  0
  7 10  1  0  0  0  0
  8 12  1  0  0  0  0
  1 13  1  0  0  0  0
  1 14  1  0  0  0  0
  2 15  1  0  0  0  0
  2 16  1  0  0  0  0
  3 17  1  0  0  0  0
  3 18  1  0  0  0  0
  4 19  1  0  0  0  0
  5 20  1  0  0  0  0
  5 21  1  0  0  0  0
  5 22  1  0  0  0  0
  6 23  1  0  0  0  0
  6 24  1  0  0  0  0
  7 25  1  0  0  0  0
  7 26  1  0  0  0  0
  8 27  1  0  0  0  0
 10 28  1  0  0  0  0
 10 29  1  0  0  0  0
 12 30  1  0  0  0  0
M  END
> <FRED Chemgauss4 score>
-6.525670

$$$$
C76135993	P118750968
  -OEChem-05182014473D

 22 22  0     1  0  0  0  0  0999 V2000
  122.5604  104.3402  106.2296 C   0  0  0  0  0  0  0  0  0  0  0  0
  121.6916  104.4874  105.1541 C   0  0  0  0  0  0  0  0  0  0  0  0
  123.2135  106.6094  105.9457 C   0  0  0  0  0  0  0  0  0  0  0  0
  123.3394  105.4166  106.6393 C   0  0  0  0  0  0  0  0  0  0  0  0
  121.6392  105.7219  104.5271 C   0  0  0  0  0  0  0  0  0  0  0  0
  125.7504  105.5434  107.4050 C   0  0  0  0  0  0  0  0  0  0  0  0
  124.2786  105.2903  107.7857 C   0  0  2  0  0  0  0  0  0  0  0  0
  122.3805  106.7905  104.8964 N   0  0  0  0  0  0  0  0  0  0  0  0
  120.7484  105.8559  103.4332 N   0  0  0  0  0  0  0  0  0  0  0  0
  124.1797  103.9886  108.4323 N   0  0  0  0  0  0  0  0  0  0  0  0
  126.0108  106.9426  107.3609 O   0  0  0  0  0  0  0  0  0  0  0  0
  122.6243  103.3842  106.7422 H   0  0  0  0  0  0  0  0  0  0  0  0
  121.0801  103.6523  104.8275 H   0  0  0  0  0  0  0  0  0  0  0  0
  123.7957  107.4840  106.2191 H   0  0  0  0  0  0  0  0  0  0  0  0
  126.4180  105.1057  108.1554 H   0  0  0  0  0  0  0  0  0  0  0  0
  125.9952  105.1171  106.4261 H   0  0  0  0  0  0  0  0  0  0  0  0
  124.0173  106.0079  108.5862 H   0  0  0  0  0  0  0  0  0  0  0  0
  120.2358  105.0570  103.1294 H   0  0  0  0  0  0  0  0  0  0  0  0
  120.7254  106.7187  102.9346 H   0  0  0  0  0  0  0  0  0  0  0  0
  123.2794  103.5620  108.5004 H   0  0  0  0  0  0  0  0  0  0  0  0
  124.9625  103.6624  108.9598 H   0  0  0  0  0  0  0  0  0  0  0  0
  126.9447  107.0435  107.1183 H   0  0  0  0  0  0  0  0  0  0  0  0
  1  2  1  0  0  0  0
  1  4  2  0  0  0  0
  2  5  2  0  0  0  0
  3  4  1  0  0  0  0
  3  8  2  0  0  0  0
  4  7  1  0  0  0  0
  5  8  1  0  0  0  0
  5  9  1  0  0  0  0
  6  7  1  0  0  0  0
  6 11  1  0  0  0  0
  7 10  1  0  0  0  0
  1 12  1  0  0  0  0
  2 13  1  0  0  0  0
  3 14  1  0  0  0  0
  6 15  1  0  0  0  0
  6 16  1  0  0  0  0
  7 17  1  0  0  0  0
  9 18  1  0  0  0  0
  9 19  1  0  0  0  0
 10 20  1  0  0  0  0
 10 21  1  0  0  0  0
 11 22  1  0  0  0  0
M  END
> <FRED Chemgauss4 score>
-6.523130

$$$$
C48630886	P72699249
  -OEChem-05182014473D

 26 26  0     1  0  0  0  0  0999 V2000
  122.8872  106.7220  106.6469 C   0  0  0  0  0  0  0  0  0  0  0  0
  121.4911  105.1859  106.4272 C   0  0  0  0  0  0  0  0  0  0  0  0
  119.1255  104.4405  106.7949 C   0  0  0  0  0  0  0  0  0  0  0  0
  125.8576  106.1382  106.4049 C   0  0  0  0  0  0  0  0  0  0  0  0
  120.5874  104.0331  106.5706 C   0  0  0  0  0  0  0  0  0  0  0  0
  123.9401  107.6187  107.2835 C   0  0  1  0  0  0  0  0  0  0  0  0
  125.2827  107.5489  106.5156 C   0  0  2  0  0  0  0  0  0  0  0  0
  122.3211  105.6763  107.3183 N   0  0  0  0  0  0  0  0  0  0  0  0
  122.4596  106.9094  105.3965 N   0  0  0  0  0  0  0  0  0  0  0  0
  121.5675  105.9140  105.2810 N   0  0  0  0  0  0  0  0  0  0  0  0
  123.4431  108.9955  107.3833 N   0  0  0  0  0  0  0  0  0  0  0  0
  125.0833  108.0304  105.1821 O   0  0  0  0  0  0  0  0  0  0  0  0
  119.0362  105.0950  107.6685 H   0  0  0  0  0  0  0  0  0  0  0  0
  118.4879  103.5663  106.9596 H   0  0  0  0  0  0  0  0  0  0  0  0
  118.7381  104.9842  105.9267 H   0  0  0  0  0  0  0  0  0  0  0  0
  125.1480  105.4425  105.9483 H   0  0  0  0  0  0  0  0  0  0  0  0
  126.1444  105.7535  107.3898 H   0  0  0  0  0  0  0  0  0  0  0  0
  126.7674  106.1453  105.7942 H   0  0  0  0  0  0  0  0  0  0  0  0
  120.6295  103.3739  105.6799 H   0  0  0  0  0  0  0  0  0  0  0  0
  120.8969  103.3796  107.4114 H   0  0  0  0  0  0  0  0  0  0  0  0
  124.1170  107.2602  108.3064 H   0  0  0  0  0  0  0  0  0  0  0  0
  126.0364  108.1962  106.9783 H   0  0  0  0  0  0  0  0  0  0  0  0
  121.0633  105.7997  104.4095 H   0  0  0  0  0  0  0  0  0  0  0  0
  124.1132  109.7230  107.4800 H   0  0  0  0  0  0  0  0  0  0  0  0
  122.4728  109.1253  107.5543 H   0  0  0  0  0  0  0  0  0  0  0  0
  125.9543  108.0240  104.7601 H   0  0  0  0  0  0  0  0  0  0  0  0
  1  6  1  0  0  0  0
  1  8  1  0  0  0  0
  1  9  2  0  0  0  0
  2  5  1  0  0  0  0
  2  8  2  0  0  0  0
  2 10  1  0  0  0  0
  3  5  1  0  0  0  0
  4  7  1  0  0  0  0
  6  7  1  0  0  0  0
  6 11  1  0  0  0  0
  7 12  1  0  0  0  0
  9 10  1  0  0  0  0
  3 13  1  0  0  0  0
  3 14  1  0  0  0  0
  3 15  1  0  0  0  0
  4 16  1  0  0  0  0
  4 17  1  0  0  0  0
  4 18  1  0  0  0  0
  5 19  1  0  0  0  0
  5 20  1  0  0  0  0
  6 21  1  0  0  0  0
  7 22  1  0  0  0  0
 10 23  1  0  0  0  0
 11 24  1  0  0  0  0
 11 25  1  0  0  0  0
 12 26  1  0  0  0  0
M  END
> <FRED Chemgauss4 score>
-6.521846

$$$$
C38803740	P58769686
  -OEChem-05182014473D

 13 13  0     0  0  0  0  0  0999 V2000
  123.5254  106.6139  105.9300 C   0  0  0  0  0  0  0  0  0  0  0  0
  122.4048  104.9088  106.2710 C   0  0  0  0  0  0  0  0  0  0  0  0
  124.5508  107.6052  106.0482 C   0  0  0  0  0  0  0  0  0  0  0  0
  123.4772  105.5063  106.7255 N   0  0  0  0  0  0  0  0  0  0  0  0
  122.5486  106.7218  105.0245 N   0  0  0  0  0  0  0  0  0  0  0  0
  121.8327  103.7478  106.6602 N   0  0  0  0  0  0  0  0  0  0  0  0
  124.3425  108.6853  106.9189 N   0  0  0  0  0  0  0  0  0  0  0  0
  125.6184  107.5490  105.3892 O   0  0  0  0  0  0  0  0  0  0  0  0
  121.7893  105.5677  105.2544 O   0  0  0  0  0  0  0  0  0  0  0  0
  122.2496  103.1498  107.3877 H   0  0  0  0  0  0  0  0  0  0  0  0
  121.0061  103.3594  106.1840 H   0  0  0  0  0  0  0  0  0  0  0  0
  123.4733  108.7339  107.4392 H   0  0  0  0  0  0  0  0  0  0  0  0
  125.0312  109.4198  107.0462 H   0  0  0  0  0  0  0  0  0  0  0  0
  1  3  1  0  0  0  0
  1  4  1  0  0  0  0
  1  5  2  0  0  0  0
  2  4  2  0  0  0  0
  2  6  1  0  0  0  0
  2  9  1  0  0  0  0
  3  7  1  0  0  0  0
  3  8  2  0  0  0  0
  5  9  1  0  0  0  0
  6 10  1  0  0  0  0
  6 11  1  0  0  0  0
  7 12  1  0  0  0  0
  7 13  1  0  0  0  0
M  END
> <FRED Chemgauss4 score>
-6.517333

$$$$
C44470815	P150394998
  -OEChem-05182014473D

 25 25  0     1  0  0  0  0  0999 V2000
  122.4873  104.8012  106.5305 C   0  0  0  0  0  0  0  0  0  0  0  0
  121.6846  104.9462  105.4045 C   0  0  0  0  0  0  0  0  0  0  0  0
  123.4352  106.9323  106.0654 C   0  0  0  0  0  0  0  0  0  0  0  0
  123.3819  105.8086  106.8742 C   0  0  0  0  0  0  0  0  0  0  0  0
  121.8137  106.1087  104.6616 C   0  0  0  0  0  0  0  0  0  0  0  0
  120.1329  105.2194  103.2334 C   0  0  0  0  0  0  0  0  0  0  0  0
  125.7723  105.7175  107.7655 C   0  0  0  0  0  0  0  0  0  0  0  0
  124.2725  105.6806  108.0979 C   0  0  1  0  0  0  0  0  0  0  0  0
  122.6714  107.1090  104.9641 N   0  0  0  0  0  0  0  0  0  0  0  0
  126.1506  104.6704  106.8528 N   0  0  0  0  0  0  0  0  0  0  0  0
  123.9610  106.7243  109.0820 N   0  0  0  0  0  0  0  0  0  0  0  0
  121.0334  106.2749  103.5475 O   0  0  0  0  0  0  0  0  0  0  0  0
  122.4093  103.9009  107.1338 H   0  0  0  0  0  0  0  0  0  0  0  0
  120.9819  104.1696  105.1231 H   0  0  0  0  0  0  0  0  0  0  0  0
  124.1139  107.7510  106.2838 H   0  0  0  0  0  0  0  0  0  0  0  0
  119.5736  105.4735  102.3297 H   0  0  0  0  0  0  0  0  0  0  0  0
  119.4454  105.0651  104.0689 H   0  0  0  0  0  0  0  0  0  0  0  0
  120.7042  104.3043  103.0604 H   0  0  0  0  0  0  0  0  0  0  0  0
  126.0354  106.6629  107.2774 H   0  0  0  0  0  0  0  0  0  0  0  0
  126.4018  105.6182  108.6562 H   0  0  0  0  0  0  0  0  0  0  0  0
  124.0592  104.7174  108.5797 H   0  0  0  0  0  0  0  0  0  0  0  0
  127.1059  104.3526  106.8409 H   0  0  0  0  0  0  0  0  0  0  0  0
  125.5198  104.4167  106.1101 H   0  0  0  0  0  0  0  0  0  0  0  0
  124.6571  106.9464  109.7551 H   0  0  0  0  0  0  0  0  0  0  0  0
  123.0142  107.0141  109.1633 H   0  0  0  0  0  0  0  0  0  0  0  0
  1  2  2  0  0  0  0
  1  4  1  0  0  0  0
  2  5  1  0  0  0  0
  3  4  2  0  0  0  0
  3  9  1  0  0  0  0
  4  8  1  0  0  0  0
  5  9  2  0  0  0  0
  5 12  1  0  0  0  0
  6 12  1  0  0  0  0
  7  8  1  0  0  0  0
  7 10  1  0  0  0  0
  8 11  1  0  0  0  0
  1 13  1  0  0  0  0
  2 14  1  0  0  0  0
  3 15  1  0  0  0  0
  6 16  1  0  0  0  0
  6 17  1  0  0  0  0
  6 18  1  0  0  0  0
  7 19  1  0  0  0  0
  7 20  1  0  0  0  0
  8 21  1  0  0  0  0
 10 22  1  0  0  0  0
 10 23  1  0  0  0  0
 11 24  1  0  0  0  0
 11 25  1  0  0  0  0
M  END
> <FRED Chemgauss4 score>
-6.516572

$$$$
C17173856	P25815810
  -OEChem-05182014473D

 23 23  0     1  0  0  0  0  0999 V2000
  123.0244  106.6768  107.2391 C   0  0  0  0  0  0  0  0  0  0  0  0
  123.6078  105.2639  107.1752 C   0  0  1  0  0  0  0  0  0  0  0  0
  123.5762  107.5378  106.1078 C   0  0  1  0  0  0  0  0  0  0  0  0
  125.1383  105.2816  107.0666 C   0  0  2  0  0  0  0  0  0  0  0  0
  125.1041  107.4765  106.0782 C   0  0  1  0  0  0  0  0  0  0  0  0
  125.8630  105.6363  108.3663 C   0  0  0  0  0  0  0  0  0  0  0  0
  125.5601  106.1256  105.9886 O   0  0  0  0  0  0  0  0  0  0  0  0
  123.1996  104.5123  108.3102 O   0  0  0  0  0  0  0  0  0  0  0  0
  123.0733  107.0521  104.8613 O   0  0  0  0  0  0  0  0  0  0  0  0
  125.5660  108.2330  104.9608 O   0  0  0  0  0  0  0  0  0  0  0  0
  125.1530  106.6796  109.0090 O   0  0  0  0  0  0  0  0  0  0  0  0
  121.9296  106.6328  107.1741 H   0  0  0  0  0  0  0  0  0  0  0  0
  123.2581  107.1498  108.2012 H   0  0  0  0  0  0  0  0  0  0  0  0
  123.1850  104.7453  106.2827 H   0  0  0  0  0  0  0  0  0  0  0  0
  123.2540  108.5557  106.2365 H   0  0  0  0  0  0  0  0  0  0  0  0
  125.4604  104.2284  106.7978 H   0  0  0  0  0  0  0  0  0  0  0  0
  125.5109  107.9285  106.9710 H   0  0  0  0  0  0  0  0  0  0  0  0
  126.8770  105.9725  108.1480 H   0  0  0  0  0  0  0  0  0  0  0  0
  125.8978  104.7669  109.0233 H   0  0  0  0  0  0  0  0  0  0  0  0
  122.2311  104.4832  108.2860 H   0  0  0  0  0  0  0  0  0  0  0  0
  122.1055  107.1155  104.9056 H   0  0  0  0  0  0  0  0  0  0  0  0
  126.5334  108.1743  104.9706 H   0  0  0  0  0  0  0  0  0  0  0  0
  125.6315  106.8867  109.8298 H   0  0  0  0  0  0  0  0  0  0  0  0
  1  2  1  0  0  0  0
  1  3  1  0  0  0  0
  2  4  1  0  0  0  0
  2  8  1  0  0  0  0
  3  5  1  0  0  0  0
  3  9  1  0  0  0  0
  4  6  1  0  0  0  0
  4  7  1  0  0  0  0
  5  7  1  0  0  0  0
  5 10  1  0  0  0  0
  6 11  1  0  0  0  0
  1 12  1  0  0  0  0
  1 13  1  0  0  0  0
  2 14  1  0  0  0  0
  3 15  1  0  0  0  0
  4 16  1  0  0  0  0
  5 17  1  0  0  0  0
  6 18  1  0  0  0  0
  6 19  1  0  0  0  0
  8 20  1  0  0  0  0
  9 21  1  0  0  0  0
 10 22  1  0  0  0  0
 11 23  1  0  0  0  0
M  END
> <FRED Chemgauss4 score>
-6.514122

$$$$
C35137616	P88193130
  -OEChem-05182014473D

 24 24  0     0  0  0  0  0  0999 V2000
  122.8610  106.8006  105.9897 C   0  0  0  0  0  0  0  0  0  0  0  0
  125.5413  106.7020  106.6232 C   0  0  0  0  0  0  0  0  0  0  0  0
  121.4425  106.8045  105.5439 C   0  0  0  0  0  0  0  0  0  0  0  0
  118.5113  107.5768  106.7381 C   0  0  0  0  0  0  0  0  0  0  0  0
  123.2647  105.7744  106.9992 C   0  0  0  0  0  0  0  0  0  0  0  0
  124.7259  105.4473  106.8009 C   0  0  0  0  0  0  0  0  0  0  0  0
  119.1596  106.2747  106.3281 C   0  0  0  0  0  0  0  0  0  0  0  0
  123.6315  107.7267  105.5241 N   0  0  0  0  0  0  0  0  0  0  0  0
  124.9193  107.7291  105.9479 N   0  0  0  0  0  0  0  0  0  0  0  0
  119.1988  108.2074  107.7528 N   0  0  0  0  0  0  0  0  0  0  0  0
  120.5889  106.3580  106.5262 N   0  0  0  0  0  0  0  0  0  0  0  0
  126.7120  106.7608  106.9993 O   0  0  0  0  0  0  0  0  0  0  0  0
  121.1552  107.1788  104.4191 O   0  0  0  0  0  0  0  0  0  0  0  0
  117.5120  108.0445  106.1989 O   0  0  0  0  0  0  0  0  0  0  0  0
  123.0915  106.1991  107.9944 H   0  0  0  0  0  0  0  0  0  0  0  0
  122.6539  104.8721  106.8990 H   0  0  0  0  0  0  0  0  0  0  0  0
  124.8640  104.8363  105.9011 H   0  0  0  0  0  0  0  0  0  0  0  0
  125.1072  104.8841  107.6588 H   0  0  0  0  0  0  0  0  0  0  0  0
  118.9760  106.0628  105.2712 H   0  0  0  0  0  0  0  0  0  0  0  0
  118.7686  105.4612  106.9452 H   0  0  0  0  0  0  0  0  0  0  0  0
  125.4719  108.5576  105.7511 H   0  0  0  0  0  0  0  0  0  0  0  0
  120.0412  107.7991  108.1440 H   0  0  0  0  0  0  0  0  0  0  0  0
  118.8972  109.0938  108.1448 H   0  0  0  0  0  0  0  0  0  0  0  0
  120.9767  106.0770  107.4222 H   0  0  0  0  0  0  0  0  0  0  0  0
  1  3  1  0  0  0  0
  1  5  1  0  0  0  0
  1  8  2  0  0  0  0
  2  6  1  0  0  0  0
  2  9  1  0  0  0  0
  2 12  2  0  0  0  0
  3 11  1  0  0  0  0
  3 13  2  0  0  0  0
  4  7  1  0  0  0  0
  4 10  1  0  0  0  0
  4 14  2  0  0  0  0
  5  6  1  0  0  0  0
  7 11  1  0  0  0  0
  8  9  1  0  0  0  0
  5 15  1  0  0  0  0
  5 16  1  0  0  0  0
  6 17  1  0  0  0  0
  6 18  1  0  0  0  0
  7 19  1  0  0  0  0
  7 20  1  0  0  0  0
  9 21  1  0  0  0  0
 10 22  1  0  0  0  0
 10 23  1  0  0  0  0
 11 24  1  0  0  0  0
M  END
> <FRED Chemgauss4 score>
-6.498874

$$$$
C61842909	P94744252
  -OEChem-05182014473D

 23 23  0     0  0  0  0  0  0999 V2000
  122.0240  105.4187  106.4235 C   0  0  0  0  0  0  0  0  0  0  0  0
  123.5050  106.8636  106.1475 C   0  0  0  0  0  0  0  0  0  0  0  0
  118.5845  103.9048  105.8961 C   0  0  0  0  0  0  0  0  0  0  0  0
  124.7071  107.6896  106.2178 C   0  0  0  0  0  0  0  0  0  0  0  0
  120.2516  106.1395  104.6980 C   0  0  0  0  0  0  0  0  0  0  0  0
  119.0228  106.1940  105.5957 C   0  0  0  0  0  0  0  0  0  0  0  0
  123.2525  105.8032  106.8791 N   0  0  0  0  0  0  0  0  0  0  0  0
  122.4674  107.0912  105.2981 N   0  0  0  0  0  0  0  0  0  0  0  0
  121.5005  106.1745  105.4559 N   0  0  0  0  0  0  0  0  0  0  0  0
  125.0646  108.3009  104.9490 N   0  0  0  0  0  0  0  0  0  0  0  0
  119.0460  105.1028  106.5059 O   0  0  0  0  0  0  0  0  0  0  0  0
  121.5093  104.5545  106.8246 H   0  0  0  0  0  0  0  0  0  0  0  0
  118.6160  103.0895  106.6230 H   0  0  0  0  0  0  0  0  0  0  0  0
  119.2159  103.6656  105.0368 H   0  0  0  0  0  0  0  0  0  0  0  0
  117.5552  104.0507  105.5601 H   0  0  0  0  0  0  0  0  0  0  0  0
  124.6098  108.5247  106.9435 H   0  0  0  0  0  0  0  0  0  0  0  0
  125.6044  107.1232  106.5454 H   0  0  0  0  0  0  0  0  0  0  0  0
  120.2669  106.9821  103.9968 H   0  0  0  0  0  0  0  0  0  0  0  0
  120.2572  105.2138  104.1112 H   0  0  0  0  0  0  0  0  0  0  0  0
  119.0324  107.1189  106.1809 H   0  0  0  0  0  0  0  0  0  0  0  0
  118.0937  106.1506  105.0181 H   0  0  0  0  0  0  0  0  0  0  0  0
  126.0263  108.5176  104.7788 H   0  0  0  0  0  0  0  0  0  0  0  0
  124.3328  108.6706  104.3756 H   0  0  0  0  0  0  0  0  0  0  0  0
  1  7  2  0  0  0  0
  1  9  1  0  0  0  0
  2  4  1  0  0  0  0
  2  7  1  0  0  0  0
  2  8  2  0  0  0  0
  3 11  1  0  0  0  0
  4 10  1  0  0  0  0
  5  6  1  0  0  0  0
  5  9  1  0  0  0  0
  6 11  1  0  0  0  0
  8  9  1  0  0  0  0
  1 12  1  0  0  0  0
  3 13  1  0  0  0  0
  3 14  1  0  0  0  0
  3 15  1  0  0  0  0
  4 16  1  0  0  0  0
  4 17  1  0  0  0  0
  5 18  1  0  0  0  0
  5 19  1  0  0  0  0
  6 20  1  0  0  0  0
  6 21  1  0  0  0  0
 10 22  1  0  0  0  0
 10 23  1  0  0  0  0
M  END
> <FRED Chemgauss4 score>
-6.493987

$$$$
C43115293	P65342176
  -OEChem-05182014473D

 30 31  0     1  0  0  0  0  0999 V2000
  121.9240  104.7757  105.3671 C   0  0  0  0  0  0  0  0  0  0  0  0
  120.7287  104.0911  105.3743 C   0  0  0  0  0  0  0  0  0  0  0  0
  121.3066  104.9641  107.6000 C   0  0  0  0  0  0  0  0  0  0  0  0
  122.2590  105.2813  106.6564 C   0  0  0  0  0  0  0  0  0  0  0  0
  126.2378  106.1610  108.4710 C   0  0  0  0  0  0  0  0  0  0  0  0
  125.9486  105.9967  106.9928 C   0  0  0  0  0  0  0  0  0  0  0  0
  124.7893  104.1795  108.9383 C   0  0  0  0  0  0  0  0  0  0  0  0
  124.6926  103.9916  107.4340 C   0  0  0  0  0  0  0  0  0  0  0  0
  123.6086  107.3872  106.1549 C   0  0  0  0  0  0  0  0  0  0  0  0
  123.5181  106.0772  106.9532 C   0  0  2  0  0  0  0  0  0  0  0  0
  125.7632  105.1825  109.3154 N   0  0  0  0  0  0  0  0  0  0  0  0
  124.7100  105.2671  106.7185 N   0  0  1  0  0  0  0  0  0  0  0  0
  122.3426  108.0694  106.0884 N   0  0  0  0  0  0  0  0  0  0  0  0
  126.9447  107.0886  108.8703 O   0  0  0  0  0  0  0  0  0  0  0  0
  120.0154  104.0600  106.9308 S   0  0  0  0  0  0  0  0  0  0  0  0
  122.5262  104.9055  104.4768 H   0  0  0  0  0  0  0  0  0  0  0  0
  120.2397  103.6084  104.5400 H   0  0  0  0  0  0  0  0  0  0  0  0
  121.3029  105.2190  108.6507 H   0  0  0  0  0  0  0  0  0  0  0  0
  125.9367  107.0058  106.5423 H   0  0  0  0  0  0  0  0  0  0  0  0
  126.8018  105.4499  106.5547 H   0  0  0  0  0  0  0  0  0  0  0  0
  123.8230  104.4778  109.3577 H   0  0  0  0  0  0  0  0  0  0  0  0
  125.0938  103.2459  109.4259 H   0  0  0  0  0  0  0  0  0  0  0  0
  125.5418  103.3474  107.1115 H   0  0  0  0  0  0  0  0  0  0  0  0
  123.7746  103.4104  107.1796 H   0  0  0  0  0  0  0  0  0  0  0  0
  124.3091  108.0816  106.6326 H   0  0  0  0  0  0  0  0  0  0  0  0
  123.9491  107.2286  105.1261 H   0  0  0  0  0  0  0  0  0  0  0  0
  123.5182  106.3363  108.0200 H   0  0  0  0  0  0  0  0  0  0  0  0
  126.1209  105.1626  110.2684 H   0  0  0  0  0  0  0  0  0  0  0  0
  122.1686  108.7058  105.3279 H   0  0  0  0  0  0  0  0  0  0  0  0
  121.7392  108.0613  106.8944 H   0  0  0  0  0  0  0  0  0  0  0  0
  1  2  2  0  0  0  0
  1  4  1  0  0  0  0
  2 15  1  0  0  0  0
  3  4  2  0  0  0  0
  3 15  1  0  0  0  0
  4 10  1  0  0  0  0
  5  6  1  0  0  0  0
  5 11  1  0  0  0  0
  5 14  2  0  0  0  0
  6 12  1  0  0  0  0
  7  8  1  0  0  0  0
  7 11  1  0  0  0  0
  8 12  1  0  0  0  0
  9 10  1  0  0  0  0
  9 13  1  0  0  0  0
 10 12  1  0  0  0  0
  1 16  1  0  0  0  0
  2 17  1  0  0  0  0
  3 18  1  0  0  0  0
  6 19  1  0  0  0  0
  6 20  1  0  0  0  0
  7 21  1  0  0  0  0
  7 22  1  0  0  0  0
  8 23  1  0  0  0  0
  8 24  1  0  0  0  0
  9 25  1  0  0  0  0
  9 26  1  0  0  0  0
 10 27  1  0  0  0  0
 11 28  1  0  0  0  0
 13 29  1  0  0  0  0
 13 30  1  0  0  0  0
M  END
> <FRED Chemgauss4 score>
-6.493484

$$$$
C04787862	P06905685
  -OEChem-05182014473D

 36 36  0     1  0  0  0  0  0999 V2000
  120.9972  105.1341  102.2162 C   0  0  0  0  0  0  0  0  0  0  0  0
  118.7471  105.4609  106.0061 C   0  0  0  0  0  0  0  0  0  0  0  0
  121.7411  105.2212  104.5866 C   0  0  2  0  0  0  0  0  0  0  0  0
  121.1295  104.7553  105.9184 C   0  0  1  0  0  0  0  0  0  0  0  0
  122.5974  106.4865  104.7579 C   0  0  2  0  0  0  0  0  0  0  0  0
  123.6021  106.2861  105.9055 C   0  0  1  0  0  0  0  0  0  0  0  0
  122.2355  104.6545  106.9782 C   0  0  1  0  0  0  0  0  0  0  0  0
  119.8232  105.3648  101.3236 C   0  0  0  0  0  0  0  0  0  0  0  0
  117.8251  106.4856  106.5790 C   0  0  0  0  0  0  0  0  0  0  0  0
  124.4051  107.5425  106.2211 C   0  0  0  0  0  0  0  0  0  0  0  0
  120.7469  105.3824  103.5532 N   0  0  0  0  0  0  0  0  0  0  0  0
  120.0684  105.6366  106.3622 N   0  0  0  0  0  0  0  0  0  0  0  0
  122.0582  104.7559  101.7334 O   0  0  0  0  0  0  0  0  0  0  0  0
  118.2950  104.5726  105.2931 O   0  0  0  0  0  0  0  0  0  0  0  0
  122.9219  105.9012  107.1086 O   0  0  0  0  0  0  0  0  0  0  0  0
  121.7469  107.5983  105.0381 O   0  0  0  0  0  0  0  0  0  0  0  0
  121.6620  104.2547  108.2196 O   0  0  0  0  0  0  0  0  0  0  0  0
  125.1366  107.9135  105.0665 O   0  0  0  0  0  0  0  0  0  0  0  0
  122.4010  104.4211  104.2265 H   0  0  0  0  0  0  0  0  0  0  0  0
  120.6486  103.7778  105.7944 H   0  0  0  0  0  0  0  0  0  0  0  0
  123.1248  106.7075  103.8223 H   0  0  0  0  0  0  0  0  0  0  0  0
  124.3080  105.4889  105.6380 H   0  0  0  0  0  0  0  0  0  0  0  0
  122.9564  103.8793  106.6879 H   0  0  0  0  0  0  0  0  0  0  0  0
  119.7791  106.3990  100.9458 H   0  0  0  0  0  0  0  0  0  0  0  0
  119.8465  104.7274  100.4251 H   0  0  0  0  0  0  0  0  0  0  0  0
  118.8387  105.1819  101.7830 H   0  0  0  0  0  0  0  0  0  0  0  0
  117.7084  107.3613  105.9205 H   0  0  0  0  0  0  0  0  0  0  0  0
  116.8054  106.0965  106.7295 H   0  0  0  0  0  0  0  0  0  0  0  0
  118.1256  106.8960  107.5563 H   0  0  0  0  0  0  0  0  0  0  0  0
  125.0995  107.3463  107.0388 H   0  0  0  0  0  0  0  0  0  0  0  0
  123.7333  108.3557  106.4977 H   0  0  0  0  0  0  0  0  0  0  0  0
  119.8172  105.6936  103.8213 H   0  0  0  0  0  0  0  0  0  0  0  0
  120.3079  106.4182  106.9618 H   0  0  0  0  0  0  0  0  0  0  0  0
  121.1485  107.6832  104.2806 H   0  0  0  0  0  0  0  0  0  0  0  0
  122.3910  104.2035  108.8573 H   0  0  0  0  0  0  0  0  0  0  0  0
  125.6389  108.7147  105.2925 H   0  0  0  0  0  0  0  0  0  0  0  0
  1  8  1  0  0  0  0
  1 11  1  0  0  0  0
  1 13  2  0  0  0  0
  2  9  1  0  0  0  0
  2 12  1  0  0  0  0
  2 14  2  0  0  0  0
  3  4  1  0  0  0  0
  3  5  1  0  0  0  0
  3 11  1  0  0  0  0
  4  7  1  0  0  0  0
  4 12  1  0  0  0  0
  5  6  1  0  0  0  0
  5 16  1  0  0  0  0
  6 10  1  0  0  0  0
  6 15  1  0  0  0  0
  7 15  1  0  0  0  0
  7 17  1  0  0  0  0
 10 18  1  0  0  0  0
  3 19  1  0  0  0  0
  4 20  1  0  0  0  0
  5 21  1  0  0  0  0
  6 22  1  0  0  0  0
  7 23  1  0  0  0  0
  8 24  1  0  0  0  0
  8 25  1  0  0  0  0
  8 26  1  0  0  0  0
  9 27  1  0  0  0  0
  9 28  1  0  0  0  0
  9 29  1  0  0  0  0
 10 30  1  0  0  0  0
 10 31  1  0  0  0  0
 11 32  1  0  0  0  0
 12 33  1  0  0  0  0
 16 34  1  0  0  0  0
 17 35  1  0  0  0  0
 18 36  1  0  0  0  0
M  END
> <FRED Chemgauss4 score>
-6.488448

$$$$
C87341085	P136651115
  -OEChem-05182014473D

 26 27  0     1  0  0  0  0  0999 V2000
  121.5618  108.0302  107.8269 C   0  0  0  0  0  0  0  0  0  0  0  0
  122.2078  108.8194  108.7490 C   0  0  0  0  0  0  0  0  0  0  0  0
  125.7613  105.2897  109.7979 C   0  0  0  0  0  0  0  0  0  0  0  0
  125.5304  105.7328  107.7713 C   0  0  0  0  0  0  0  0  0  0  0  0
  123.6011  108.0636  107.2180 C   0  0  0  0  0  0  0  0  0  0  0  0
  125.6142  103.3509  106.9441 C   0  0  0  0  0  0  0  0  0  0  0  0
  125.3525  106.3790  106.4162 C   0  0  0  0  0  0  0  0  0  0  0  0
  124.9247  107.8613  106.5004 C   0  0  1  0  0  0  0  0  0  0  0  0
  122.4348  107.5626  106.8766 N   0  0  0  0  0  0  0  0  0  0  0  0
  125.6036  106.3361  108.9349 N   0  0  0  0  0  0  0  0  0  0  0  0
  125.7904  104.0769  109.2414 N   0  0  0  0  0  0  0  0  0  0  0  0
  123.5135  108.8311  108.3461 N   0  0  0  0  0  0  0  0  0  0  0  0
  125.6408  104.3884  107.9450 N   0  0  0  0  0  0  0  0  0  0  0  0
  124.8821  108.4368  105.1492 N   0  0  0  0  0  0  0  0  0  0  0  0
  120.5130  107.7738  107.7997 H   0  0  0  0  0  0  0  0  0  0  0  0
  121.8710  109.3557  109.6241 H   0  0  0  0  0  0  0  0  0  0  0  0
  125.8580  105.4150  110.8658 H   0  0  0  0  0  0  0  0  0  0  0  0
  126.6404  103.1798  106.6083 H   0  0  0  0  0  0  0  0  0  0  0  0
  125.1965  102.4378  107.3772 H   0  0  0  0  0  0  0  0  0  0  0  0
  124.9857  103.6710  106.1084 H   0  0  0  0  0  0  0  0  0  0  0  0
  124.5922  105.8024  105.8708 H   0  0  0  0  0  0  0  0  0  0  0  0
  126.2752  106.2687  105.8312 H   0  0  0  0  0  0  0  0  0  0  0  0
  125.7002  108.4156  107.0445 H   0  0  0  0  0  0  0  0  0  0  0  0
  124.2740  109.3208  108.7988 H   0  0  0  0  0  0  0  0  0  0  0  0
  125.5426  108.1049  104.4866 H   0  0  0  0  0  0  0  0  0  0  0  0
  124.3442  109.2608  105.0169 H   0  0  0  0  0  0  0  0  0  0  0  0
  1  2  2  0  0  0  0
  1  9  1  0  0  0  0
  2 12  1  0  0  0  0
  3 10  1  0  0  0  0
  3 11  2  0  0  0  0
  4  7  1  0  0  0  0
  4 10  2  0  0  0  0
  4 13  1  0  0  0  0
  5  8  1  0  0  0  0
  5  9  2  0  0  0  0
  5 12  1  0  0  0  0
  6 13  1  0  0  0  0
  7  8  1  0  0  0  0
  8 14  1  0  0  0  0
 11 13  1  0  0  0  0
  1 15  1  0  0  0  0
  2 16  1  0  0  0  0
  3 17  1  0  0  0  0
  6 18  1  0  0  0  0
  6 19  1  0  0  0  0
  6 20  1  0  0  0  0
  7 21  1  0  0  0  0
  7 22  1  0  0  0  0
  8 23  1  0  0  0  0
 12 24  1  0  0  0  0
 14 25  1  0  0  0  0
 14 26  1  0  0  0  0
M  END
> <FRED Chemgauss4 score>
-6.486368

$$$$
C85371966	P133630555
  -OEChem-05182014473D

 26 26  0     1  0  0  0  0  0999 V2000
  120.6620  104.1862  104.3915 C   0  0  0  0  0  0  0  0  0  0  0  0
  122.9847  105.3404  106.8843 C   0  0  0  0  0  0  0  0  0  0  0  0
  124.5188  104.2311  108.4928 C   0  0  0  0  0  0  0  0  0  0  0  0
  125.3710  106.4078  108.5109 C   0  0  0  0  0  0  0  0  0  0  0  0
  124.3703  104.8018  107.0939 C   0  0  2  0  0  0  0  0  0  0  0  0
  125.3829  105.9304  107.0658 C   0  0  2  0  0  0  0  0  0  0  0  0
  119.9895  103.8931  105.6659 C   0  0  0  0  0  0  0  0  0  0  0  0
  120.5856  104.6900  106.8215 C   0  0  0  0  0  0  0  0  0  0  0  0
  121.1914  104.4160  103.3848 N   0  0  0  0  0  0  0  0  0  0  0  0
  126.7121  105.4168  106.7331 N   0  0  0  0  0  0  0  0  0  0  0  0
  121.9893  104.3874  106.9862 N   0  0  0  0  0  0  0  0  0  0  0  0
  122.8292  106.5329  106.6490 O   0  0  0  0  0  0  0  0  0  0  0  0
  125.0248  105.2825  109.3306 O   0  0  0  0  0  0  0  0  0  0  0  0
  123.5822  103.8585  108.9192 H   0  0  0  0  0  0  0  0  0  0  0  0
  125.2534  103.4189  108.5105 H   0  0  0  0  0  0  0  0  0  0  0  0
  126.3230  106.8284  108.8511 H   0  0  0  0  0  0  0  0  0  0  0  0
  124.6006  107.1725  108.6615 H   0  0  0  0  0  0  0  0  0  0  0  0
  124.5289  104.0441  106.3215 H   0  0  0  0  0  0  0  0  0  0  0  0
  125.1276  106.7395  106.3738 H   0  0  0  0  0  0  0  0  0  0  0  0
  120.0913  102.8234  105.8826 H   0  0  0  0  0  0  0  0  0  0  0  0
  118.9171  104.1014  105.5733 H   0  0  0  0  0  0  0  0  0  0  0  0
  120.4827  105.7612  106.6195 H   0  0  0  0  0  0  0  0  0  0  0  0
  120.0564  104.4767  107.7569 H   0  0  0  0  0  0  0  0  0  0  0  0
  127.5030  105.9010  107.0953 H   0  0  0  0  0  0  0  0  0  0  0  0
  126.7818  104.7411  106.0052 H   0  0  0  0  0  0  0  0  0  0  0  0
  122.2568  103.4283  107.1864 H   0  0  0  0  0  0  0  0  0  0  0  0
  1  7  1  0  0  0  0
  1  9  3  0  0  0  0
  2  5  1  0  0  0  0
  2 11  1  0  0  0  0
  2 12  2  0  0  0  0
  3  5  1  0  0  0  0
  3 13  1  0  0  0  0
  4  6  1  0  0  0  0
  4 13  1  0  0  0  0
  5  6  1  0  0  0  0
  6 10  1  0  0  0  0
  7  8  1  0  0  0  0
  8 11  1  0  0  0  0
  3 14  1  0  0  0  0
  3 15  1  0  0  0  0
  4 16  1  0  0  0  0
  4 17  1  0  0  0  0
  5 18  1  0  0  0  0
  6 19  1  0  0  0  0
  7 20  1  0  0  0  0
  7 21  1  0  0  0  0
  8 22  1  0  0  0  0
  8 23  1  0  0  0  0
 10 24  1  0  0  0  0
 10 25  1  0  0  0  0
 11 26  1  0  0  0  0
M  END
> <FRED Chemgauss4 score>
-6.477125

$$$$
C70914375	P109455270
  -OEChem-05182014473D

 21 21  0     1  0  0  0  0  0999 V2000
  122.4001  104.5927  106.5935 C   0  0  0  0  0  0  0  0  0  0  0  0
  121.2333  104.8454  105.9956 C   0  0  0  0  0  0  0  0  0  0  0  0
  123.0175  106.5351  105.4569 C   0  0  0  0  0  0  0  0  0  0  0  0
  124.7250  105.4009  106.8670 C   0  0  0  0  0  0  0  0  0  0  0  0
  126.1413  105.2564  108.9803 C   0  0  0  0  0  0  0  0  0  0  0  0
  124.7339  105.3810  108.3962 C   0  0  1  0  0  0  0  0  0  0  0  0
  123.4002  105.5049  106.3161 N   0  0  0  0  0  0  0  0  0  0  0  0
  126.9552  106.3726  108.5515 N   0  0  0  0  0  0  0  0  0  0  0  0
  123.6779  107.4731  105.0387 O   0  0  0  0  0  0  0  0  0  0  0  0
  124.1358  106.5803  108.8882 O   0  0  0  0  0  0  0  0  0  0  0  0
  121.3112  106.2793  105.0203 S   0  0  0  0  0  0  0  0  0  0  0  0
  122.6077  103.7593  107.2492 H   0  0  0  0  0  0  0  0  0  0  0  0
  120.3398  104.2454  106.0901 H   0  0  0  0  0  0  0  0  0  0  0  0
  125.3059  106.2462  106.4851 H   0  0  0  0  0  0  0  0  0  0  0  0
  125.1546  104.4760  106.4691 H   0  0  0  0  0  0  0  0  0  0  0  0
  126.6260  104.3325  108.6481 H   0  0  0  0  0  0  0  0  0  0  0  0
  126.1031  105.2544  110.0745 H   0  0  0  0  0  0  0  0  0  0  0  0
  124.1134  104.5445  108.7407 H   0  0  0  0  0  0  0  0  0  0  0  0
  126.8485  106.7164  107.6148 H   0  0  0  0  0  0  0  0  0  0  0  0
  127.7392  106.6436  109.1165 H   0  0  0  0  0  0  0  0  0  0  0  0
  123.2294  106.5947  108.5458 H   0  0  0  0  0  0  0  0  0  0  0  0
  1  2  2  0  0  0  0
  1  7  1  0  0  0  0
  2 11  1  0  0  0  0
  3  7  1  0  0  0  0
  3  9  2  0  0  0  0
  3 11  1  0  0  0  0
  4  6  1  0  0  0  0
  4  7  1  0  0  0  0
  5  6  1  0  0  0  0
  5  8  1  0  0  0  0
  6 10  1  0  0  0  0
  1 12  1  0  0  0  0
  2 13  1  0  0  0  0
  4 14  1  0  0  0  0
  4 15  1  0  0  0  0
  5 16  1  0  0  0  0
  5 17  1  0  0  0  0
  6 18  1  0  0  0  0
  8 19  1  0  0  0  0
  8 20  1  0  0  0  0
 10 21  1  0  0  0  0
M  END
> <FRED Chemgauss4 score>
-6.475438

$$$$
C90433636	P141417536
  -OEChem-05182014473D

 37 38  0     1  0  0  0  0  0999 V2000
  117.1294  104.7033  105.9518 C   0  0  0  0  0  0  0  0  0  0  0  0
  117.8913  103.5727  106.2465 C   0  0  0  0  0  0  0  0  0  0  0  0
  119.1258  106.0628  106.0056 C   0  0  0  0  0  0  0  0  0  0  0  0
  119.8878  104.9323  106.3003 C   0  0  0  0  0  0  0  0  0  0  0  0
  117.7467  105.9483  105.8313 C   0  0  0  0  0  0  0  0  0  0  0  0
  119.2705  103.6872  106.4208 C   0  0  0  0  0  0  0  0  0  0  0  0
  122.1134  106.0202  105.8673 C   0  0  0  0  0  0  0  0  0  0  0  0
  124.4845  106.3405  105.2293 C   0  0  0  0  0  0  0  0  0  0  0  0
  124.2194  108.0632  106.7882 C   0  0  0  0  0  0  0  0  0  0  0  0
  123.5391  105.8480  106.3118 C   0  0  1  0  0  0  0  0  0  0  0  0
  123.9131  106.7456  107.4776 C   0  0  2  0  0  0  0  0  0  0  0  0
  123.0895  108.0922  109.2862 C   0  0  0  0  0  0  0  0  0  0  0  0
  116.3827  107.9002  107.0291 N   0  0  0  0  0  0  0  0  0  0  0  0
  121.2845  105.0828  106.4706 N   0  0  0  0  0  0  0  0  0  0  0  0
  122.9112  106.8632  108.5214 N   0  0  0  0  0  0  0  0  0  0  0  0
  121.8053  106.9029  105.0732 O   0  0  0  0  0  0  0  0  0  0  0  0
  117.6609  108.3517  104.8364 O   0  0  0  0  0  0  0  0  0  0  0  0
  115.5778  106.9357  104.7799 O   0  0  0  0  0  0  0  0  0  0  0  0
  124.7516  107.7286  105.4972 O   0  0  0  0  0  0  0  0  0  0  0  0
  116.7927  107.3628  105.4598 S   0  0  0  0  0  0  0  0  0  0  0  0
  120.1761  102.2616  106.7849 Cl  0  0  0  0  0  0  0  0  0  0  0  0
  116.0559  104.6025  105.8169 H   0  0  0  0  0  0  0  0  0  0  0  0
  117.3946  102.6096  106.3366 H   0  0  0  0  0  0  0  0  0  0  0  0
  119.6046  107.0350  105.9104 H   0  0  0  0  0  0  0  0  0  0  0  0
  125.4424  105.8112  105.2771 H   0  0  0  0  0  0  0  0  0  0  0  0
  124.0854  106.2447  104.2148 H   0  0  0  0  0  0  0  0  0  0  0  0
  123.3213  108.6706  106.6269 H   0  0  0  0  0  0  0  0  0  0  0  0
  124.9470  108.6672  107.3388 H   0  0  0  0  0  0  0  0  0  0  0  0
  123.6816  104.7850  106.5321 H   0  0  0  0  0  0  0  0  0  0  0  0
  124.8415  106.3620  107.9213 H   0  0  0  0  0  0  0  0  0  0  0  0
  123.0158  108.9599  108.6254 H   0  0  0  0  0  0  0  0  0  0  0  0
  124.0712  108.0988  109.7675 H   0  0  0  0  0  0  0  0  0  0  0  0
  122.3198  108.1717  110.0586 H   0  0  0  0  0  0  0  0  0  0  0  0
  116.8319  108.7555  107.3782 H   0  0  0  0  0  0  0  0  0  0  0  0
  115.4099  107.7861  107.3388 H   0  0  0  0  0  0  0  0  0  0  0  0
  121.7191  104.4226  107.1119 H   0  0  0  0  0  0  0  0  0  0  0  0
  122.9831  106.0647  109.1542 H   0  0  0  0  0  0  0  0  0  0  0  0
  1  2  2  0  0  0  0
  1  5  1  0  0  0  0
  2  6  1  0  0  0  0
  3  4  1  0  0  0  0
  3  5  2  0  0  0  0
  4  6  2  0  0  0  0
  4 14  1  0  0  0  0
  5 20  1  0  0  0  0
  6 21  1  0  0  0  0
  7 10  1  0  0  0  0
  7 14  1  0  0  0  0
  7 16  2  0  0  0  0
  8 10  1  0  0  0  0
  8 19  1  0  0  0  0
  9 11  1  0  0  0  0
  9 19  1  0  0  0  0
 10 11  1  0  0  0  0
 11 15  1  0  0  0  0
 12 15  1  0  0  0  0
 13 20  1  0  0  0  0
 17 20  2  0  0  0  0
 18 20  2  0  0  0  0
  1 22  1  0  0  0  0
  2 23  1  0  0  0  0
  3 24  1  0  0  0  0
  8 25  1  0  0  0  0
  8 26  1  0  0  0  0
  9 27  1  0  0  0  0
  9 28  1  0  0  0  0
 10 29  1  0  0  0  0
 11 30  1  0  0  0  0
 12 31  1  0  0  0  0
 12 32  1  0  0  0  0
 12 33  1  0  0  0  0
 13 34  1  0  0  0  0
 13 35  1  0  0  0  0
 14 36  1  0  0  0  0
 15 37  1  0  0  0  0
M  END
> <FRED Chemgauss4 score>
-6.474729

$$$$
C35329488	P52423136
  -OEChem-05182014473D

 43 44  0     1  0  0  0  0  0999 V2000
  121.8109  104.3063  106.6677 C   0  0  0  0  0  0  0  0  0  0  0  0
  123.0935  104.2719  107.2148 C   0  0  0  0  0  0  0  0  0  0  0  0
  123.6729  106.2675  105.9823 C   0  0  0  0  0  0  0  0  0  0  0  0
  121.4593  105.3213  105.7777 C   0  0  0  0  0  0  0  0  0  0  0  0
  122.3903  106.3019  105.4351 C   0  0  0  0  0  0  0  0  0  0  0  0
  124.0245  105.2525  106.8722 C   0  0  0  0  0  0  0  0  0  0  0  0
  115.7526  103.6866  104.2100 C   0  0  0  0  0  0  0  0  0  0  0  0
  116.6648  104.0201  105.3855 C   0  0  0  0  0  0  0  0  0  0  0  0
  116.4887  104.1905  102.9799 C   0  0  0  0  0  0  0  0  0  0  0  0
  117.8912  104.6945  104.7668 C   0  0  1  0  0  0  0  0  0  0  0  0
  118.6634  104.3865  101.0982 C   0  0  0  0  0  0  0  0  0  0  0  0
  125.4980  106.1698  109.0496 C   0  0  0  0  0  0  0  0  0  0  0  0
  119.1636  104.3731  105.5404 C   0  0  0  0  0  0  0  0  0  0  0  0
  118.7326  104.9348  102.4828 C   0  0  0  0  0  0  0  0  0  0  0  0
  117.8935  104.1672  103.3951 N   0  0  2  0  0  0  0  0  0  0  0  0
  122.0551  107.3386  104.5358 N   0  0  0  0  0  0  0  0  0  0  0  0
  120.1705  105.3367  105.2415 N   0  0  0  0  0  0  0  0  0  0  0  0
  125.9194  103.8339  107.9358 O   0  0  0  0  0  0  0  0  0  0  0  0
  126.5400  105.9235  106.6732 O   0  0  0  0  0  0  0  0  0  0  0  0
  125.6295  105.2098  107.5581 S   0  0  0  0  0  0  0  0  0  0  0  0
  121.0939  103.5366  106.9418 H   0  0  0  0  0  0  0  0  0  0  0  0
  123.3570  103.4763  107.9065 H   0  0  0  0  0  0  0  0  0  0  0  0
  124.3995  107.0317  105.7156 H   0  0  0  0  0  0  0  0  0  0  0  0
  115.6021  102.6020  104.1550 H   0  0  0  0  0  0  0  0  0  0  0  0
  114.7690  104.1562  104.3119 H   0  0  0  0  0  0  0  0  0  0  0  0
  116.1658  104.6868  106.0970 H   0  0  0  0  0  0  0  0  0  0  0  0
  116.9251  103.0988  105.9203 H   0  0  0  0  0  0  0  0  0  0  0  0
  116.3054  103.5499  102.1114 H   0  0  0  0  0  0  0  0  0  0  0  0
  116.1542  105.2081  102.7400 H   0  0  0  0  0  0  0  0  0  0  0  0
  117.7310  105.7817  104.7642 H   0  0  0  0  0  0  0  0  0  0  0  0
  119.0103  103.3478  101.0715 H   0  0  0  0  0  0  0  0  0  0  0  0
  117.6404  104.4356  100.7096 H   0  0  0  0  0  0  0  0  0  0  0  0
  119.3069  104.9748  100.4332 H   0  0  0  0  0  0  0  0  0  0  0  0
  126.4747  106.1864  109.5357 H   0  0  0  0  0  0  0  0  0  0  0  0
  125.1868  107.1807  108.7821 H   0  0  0  0  0  0  0  0  0  0  0  0
  124.7563  105.6999  109.6972 H   0  0  0  0  0  0  0  0  0  0  0  0
  119.5130  103.3903  105.2484 H   0  0  0  0  0  0  0  0  0  0  0  0
  118.9504  104.3987  106.6018 H   0  0  0  0  0  0  0  0  0  0  0  0
  118.3848  105.9721  102.5023 H   0  0  0  0  0  0  0  0  0  0  0  0
  119.7576  104.8996  102.8634 H   0  0  0  0  0  0  0  0  0  0  0  0
  122.7270  108.0528  104.3460 H   0  0  0  0  0  0  0  0  0  0  0  0
  121.1230  107.3904  104.1806 H   0  0  0  0  0  0  0  0  0  0  0  0
  119.9527  106.0963  104.5922 H   0  0  0  0  0  0  0  0  0  0  0  0
  1  2  2  0  0  0  0
  1  4  1  0  0  0  0
  2  6  1  0  0  0  0
  3  5  1  0  0  0  0
  3  6  2  0  0  0  0
  4  5  2  0  0  0  0
  4 17  1  0  0  0  0
  5 16  1  0  0  0  0
  6 20  1  0  0  0  0
  7  8  1  0  0  0  0
  7  9  1  0  0  0  0
  8 10  1  0  0  0  0
  9 15  1  0  0  0  0
 10 13  1  0  0  0  0
 10 15  1  0  0  0  0
 11 14  1  0  0  0  0
 12 20  1  0  0  0  0
 13 17  1  0  0  0  0
 14 15  1  0  0  0  0
 18 20  2  0  0  0  0
 19 20  2  0  0  0  0
  1 21  1  0  0  0  0
  2 22  1  0  0  0  0
  3 23  1  0  0  0  0
  7 24  1  0  0  0  0
  7 25  1  0  0  0  0
  8 26  1  0  0  0  0
  8 27  1  0  0  0  0
  9 28  1  0  0  0  0
  9 29  1  0  0  0  0
 10 30  1  0  0  0  0
 11 31  1  0  0  0  0
 11 32  1  0  0  0  0
 11 33  1  0  0  0  0
 12 34  1  0  0  0  0
 12 35  1  0  0  0  0
 12 36  1  0  0  0  0
 13 37  1  0  0  0  0
 13 38  1  0  0  0  0
 14 39  1  0  0  0  0
 14 40  1  0  0  0  0
 16 41  1  0  0  0  0
 16 42  1  0  0  0  0
 17 43  1  0  0  0  0
M  END
> <FRED Chemgauss4 score>
-6.474170

$$$$
C01529270	P05158732
  -OEChem-05182014473D

 24 24  0     1  0  0  0  0  0999 V2000
  124.0711  107.9401  107.1838 C   0  0  1  0  0  0  0  0  0  0  0  0
  125.5094  107.5213  106.9538 C   0  0  1  0  0  0  0  0  0  0  0  0
  123.2792  106.6598  106.9202 C   0  0  1  0  0  0  0  0  0  0  0  0
  125.5085  106.0416  107.3444 C   0  0  1  0  0  0  0  0  0  0  0  0
  122.7001  106.5926  105.5135 C   0  0  0  0  0  0  0  0  0  0  0  0
  125.7839  105.8144  108.8303 C   0  0  0  0  0  0  0  0  0  0  0  0
  124.1864  105.5500  107.0723 O   0  0  0  0  0  0  0  0  0  0  0  0
  123.8868  108.3254  108.5417 O   0  0  0  0  0  0  0  0  0  0  0  0
  125.8043  107.6489  105.5644 O   0  0  0  0  0  0  0  0  0  0  0  0
  126.4981  105.3077  106.6297 O   0  0  0  0  0  0  0  0  0  0  0  0
  121.8180  107.6876  105.3292 O   0  0  0  0  0  0  0  0  0  0  0  0
  127.0624  106.3410  109.1421 O   0  0  0  0  0  0  0  0  0  0  0  0
  123.7775  108.7739  106.5517 H   0  0  0  0  0  0  0  0  0  0  0  0
  126.1941  108.1189  107.5135 H   0  0  0  0  0  0  0  0  0  0  0  0
  122.4723  106.5294  107.6421 H   0  0  0  0  0  0  0  0  0  0  0  0
  122.1453  105.6617  105.3764 H   0  0  0  0  0  0  0  0  0  0  0  0
  123.4995  106.6509  104.7714 H   0  0  0  0  0  0  0  0  0  0  0  0
  125.7725  104.7466  109.0565 H   0  0  0  0  0  0  0  0  0  0  0  0
  125.0308  106.3229  109.4352 H   0  0  0  0  0  0  0  0  0  0  0  0
  122.9547  108.5845  108.6413 H   0  0  0  0  0  0  0  0  0  0  0  0
  125.6710  108.5831  105.3266 H   0  0  0  0  0  0  0  0  0  0  0  0
  126.4302  104.3903  106.9337 H   0  0  0  0  0  0  0  0  0  0  0  0
  121.4653  107.6184  104.4263 H   0  0  0  0  0  0  0  0  0  0  0  0
  127.2111  106.1834  110.0897 H   0  0  0  0  0  0  0  0  0  0  0  0
  1  2  1  0  0  0  0
  1  3  1  0  0  0  0
  1  8  1  0  0  0  0
  2  4  1  0  0  0  0
  2  9  1  0  0  0  0
  3  5  1  0  0  0  0
  3  7  1  0  0  0  0
  4  6  1  0  0  0  0
  4  7  1  0  0  0  0
  4 10  1  0  0  0  0
  5 11  1  0  0  0  0
  6 12  1  0  0  0  0
  1 13  1  0  0  0  0
  2 14  1  0  0  0  0
  3 15  1  0  0  0  0
  5 16  1  0  0  0  0
  5 17  1  0  0  0  0
  6 18  1  0  0  0  0
  6 19  1  0  0  0  0
  8 20  1  0  0  0  0
  9 21  1  0  0  0  0
 10 22  1  0  0  0  0
 11 23  1  0  0  0  0
 12 24  1  0  0  0  0
M  END
> <FRED Chemgauss4 score>
-6.473971

$$$$
C01762927	P05459972
  -OEChem-05182014473D

 26 26  0     1  0  0  0  0  0999 V2000
  122.3497  106.6913  105.6436 C   0  0  0  0  0  0  0  0  0  0  0  0
  123.6163  107.0940  105.6358 C   0  0  0  0  0  0  0  0  0  0  0  0
  122.2899  105.4892  106.4778 C   0  0  0  0  0  0  0  0  0  0  0  0
  124.4779  106.2116  106.4471 C   0  0  1  0  0  0  0  0  0  0  0  0
  120.6565  106.3674  104.0926 C   0  0  0  0  0  0  0  0  0  0  0  0
  125.1174  107.8135  104.0213 C   0  0  0  0  0  0  0  0  0  0  0  0
  125.6392  105.8918  108.6562 C   0  0  0  0  0  0  0  0  0  0  0  0
  125.1209  106.9015  107.6397 C   0  0  1  0  0  0  0  0  0  0  0  0
  121.2880  104.8398  106.7203 O   0  0  0  0  0  0  0  0  0  0  0  0
  123.5528  105.2168  106.9314 O   0  0  0  0  0  0  0  0  0  0  0  0
  126.2028  106.5932  109.7594 O   0  0  0  0  0  0  0  0  0  0  0  0
  126.2246  107.6821  107.1825 O   0  0  0  0  0  0  0  0  0  0  0  0
  121.2849  107.2444  105.0093 O   0  0  0  0  0  0  0  0  0  0  0  0
  124.1163  108.1647  104.9548 O   0  0  0  0  0  0  0  0  0  0  0  0
  125.2317  105.7088  105.8324 H   0  0  0  0  0  0  0  0  0  0  0  0
  119.8120  106.8759  103.6211 H   0  0  0  0  0  0  0  0  0  0  0  0
  120.3099  105.4750  104.6198 H   0  0  0  0  0  0  0  0  0  0  0  0
  121.3788  106.0777  103.3257 H   0  0  0  0  0  0  0  0  0  0  0  0
  125.4738  108.7125  103.5125 H   0  0  0  0  0  0  0  0  0  0  0  0
  124.7073  107.1085  103.2937 H   0  0  0  0  0  0  0  0  0  0  0  0
  125.9492  107.3439  104.5518 H   0  0  0  0  0  0  0  0  0  0  0  0
  124.8288  105.2616  109.0373 H   0  0  0  0  0  0  0  0  0  0  0  0
  126.4197  105.2599  108.2209 H   0  0  0  0  0  0  0  0  0  0  0  0
  124.4106  107.5864  108.1165 H   0  0  0  0  0  0  0  0  0  0  0  0
  126.5206  105.9211  110.3828 H   0  0  0  0  0  0  0  0  0  0  0  0
  126.6062  108.1039  107.9673 H   0  0  0  0  0  0  0  0  0  0  0  0
  1  2  2  0  0  0  0
  1  3  1  0  0  0  0
  1 13  1  0  0  0  0
  2  4  1  0  0  0  0
  2 14  1  0  0  0  0
  3  9  2  0  0  0  0
  3 10  1  0  0  0  0
  4  8  1  0  0  0  0
  4 10  1  0  0  0  0
  5 13  1  0  0  0  0
  6 14  1  0  0  0  0
  7  8  1  0  0  0  0
  7 11  1  0  0  0  0
  8 12  1  0  0  0  0
  4 15  1  0  0  0  0
  5 16  1  0  0  0  0
  5 17  1  0  0  0  0
  5 18  1  0  0  0  0
  6 19  1  0  0  0  0
  6 20  1  0  0  0  0
  6 21  1  0  0  0  0
  7 22  1  0  0  0  0
  7 23  1  0  0  0  0
  8 24  1  0  0  0  0
 11 25  1  0  0  0  0
 12 26  1  0  0  0  0
M  END
> <FRED Chemgauss4 score>
-6.473334

$$$$
C42271757	P87779434
  -OEChem-05182014473D

 38 39  0     1  0  0  0  0  0999 V2000
  116.2668  106.1275  105.9301 C   0  0  0  0  0  0  0  0  0  0  0  0
  117.3257  105.2548  105.6796 C   0  0  0  0  0  0  0  0  0  0  0  0
  115.6996  106.1134  103.5817 C   0  0  0  0  0  0  0  0  0  0  0  0
  115.4537  106.5567  104.8811 C   0  0  0  0  0  0  0  0  0  0  0  0
  117.5716  104.8115  104.3802 C   0  0  0  0  0  0  0  0  0  0  0  0
  116.7586  105.2408  103.3312 C   0  0  0  0  0  0  0  0  0  0  0  0
  122.2063  104.3220  105.2238 C   0  0  0  0  0  0  0  0  0  0  0  0
  123.0368  105.0332  106.2859 C   0  0  0  0  0  0  0  0  0  0  0  0
  121.6002  106.6309  104.7051 C   0  0  0  0  0  0  0  0  0  0  0  0
  121.0145  105.2384  104.9359 C   0  0  1  0  0  0  0  0  0  0  0  0
  120.5419  105.1919  101.4126 C   0  0  0  0  0  0  0  0  0  0  0  0
  121.0886  104.5166  102.6241 C   0  0  0  0  0  0  0  0  0  0  0  0
  114.3831  107.4391  105.1350 N   0  0  0  0  0  0  0  0  0  0  0  0
  120.2408  104.7829  103.8148 N   0  0  1  0  0  0  0  0  0  0  0  0
  122.5016  107.5047  107.0259 O   0  0  0  0  0  0  0  0  0  0  0  0
  124.1519  107.1289  105.1360 O   0  0  0  0  0  0  0  0  0  0  0  0
  119.1608  103.0084  105.3763 O   0  0  0  0  0  0  0  0  0  0  0  0
  118.6415  102.9394  102.9248 O   0  0  0  0  0  0  0  0  0  0  0  0
  122.9536  106.7675  105.8644 S   0  0  0  0  0  0  0  0  0  0  0  0
  118.9301  103.7045  104.1239 S   0  0  0  0  0  0  0  0  0  0  0  0
  117.0211  104.7215  101.7050 Cl  0  0  0  0  0  0  0  0  0  0  0  0
  116.0840  106.4668  106.9465 H   0  0  0  0  0  0  0  0  0  0  0  0
  117.9514  104.9282  106.5061 H   0  0  0  0  0  0  0  0  0  0  0  0
  115.0619  106.4519  102.7676 H   0  0  0  0  0  0  0  0  0  0  0  0
  122.8017  104.1174  104.3325 H   0  0  0  0  0  0  0  0  0  0  0  0
  121.8435  103.3695  105.6210 H   0  0  0  0  0  0  0  0  0  0  0  0
  122.6416  104.8812  107.2926 H   0  0  0  0  0  0  0  0  0  0  0  0
  124.0853  104.7247  106.2502 H   0  0  0  0  0  0  0  0  0  0  0  0
  121.9733  106.7872  103.6922 H   0  0  0  0  0  0  0  0  0  0  0  0
  120.8728  107.4038  104.9649 H   0  0  0  0  0  0  0  0  0  0  0  0
  120.3401  105.2644  105.8268 H   0  0  0  0  0  0  0  0  0  0  0  0
  119.5323  104.8318  101.1867 H   0  0  0  0  0  0  0  0  0  0  0  0
  120.5155  106.2784  101.5499 H   0  0  0  0  0  0  0  0  0  0  0  0
  121.1794  104.9752  100.5471 H   0  0  0  0  0  0  0  0  0  0  0  0
  122.0967  104.8807  102.8439 H   0  0  0  0  0  0  0  0  0  0  0  0
  121.1290  103.4330  102.4794 H   0  0  0  0  0  0  0  0  0  0  0  0
  114.1887  107.7121  106.0771 H   0  0  0  0  0  0  0  0  0  0  0  0
  113.7791  107.7022  104.3827 H   0  0  0  0  0  0  0  0  0  0  0  0
  1  2  2  0  0  0  0
  1  4  1  0  0  0  0
  2  5  1  0  0  0  0
  3  4  2  0  0  0  0
  3  6  1  0  0  0  0
  4 13  1  0  0  0  0
  5  6  2  0  0  0  0
  5 20  1  0  0  0  0
  6 21  1  0  0  0  0
  7  8  1  0  0  0  0
  7 10  1  0  0  0  0
  8 19  1  0  0  0  0
  9 10  1  0  0  0  0
  9 19  1  0  0  0  0
 10 14  1  0  0  0  0
 11 12  1  0  0  0  0
 12 14  1  0  0  0  0
 14 20  1  0  0  0  0
 15 19  2  0  0  0  0
 16 19  2  0  0  0  0
 17 20  2  0  0  0  0
 18 20  2  0  0  0  0
  1 22  1  0  0  0  0
  2 23  1  0  0  0  0
  3 24  1  0  0  0  0
  7 25  1  0  0  0  0
  7 26  1  0  0  0  0
  8 27  1  0  0  0  0
  8 28  1  0  0  0  0
  9 29  1  0  0  0  0
  9 30  1  0  0  0  0
 10 31  1  0  0  0  0
 11 32  1  0  0  0  0
 11 33  1  0  0  0  0
 11 34  1  0  0  0  0
 12 35  1  0  0  0  0
 12 36  1  0  0  0  0
 13 37  1  0  0  0  0
 13 38  1  0  0  0  0
M  END
> <FRED Chemgauss4 score>
-6.472425

$$$$
C88628307	P138624546
  -OEChem-05182014473D

 27 27  0     0  0  0  0  0  0999 V2000
  122.7146  108.0266  109.9698 C   0  0  0  0  0  0  0  0  0  0  0  0
  125.4448  106.1067  106.8617 C   0  0  0  0  0  0  0  0  0  0  0  0
  121.5404  105.4211  105.4067 C   0  0  0  0  0  0  0  0  0  0  0  0
  119.0301  105.7964  106.5642 C   0  0  0  0  0  0  0  0  0  0  0  0
  120.5106  104.5169  105.1471 C   0  0  0  0  0  0  0  0  0  0  0  0
  119.2554  104.7046  105.7258 C   0  0  0  0  0  0  0  0  0  0  0  0
  121.3152  106.5129  106.2451 C   0  0  0  0  0  0  0  0  0  0  0  0
  120.0600  106.7006  106.8239 C   0  0  0  0  0  0  0  0  0  0  0  0
  122.6187  106.8109  109.1638 C   0  0  0  0  0  0  0  0  0  0  0  0
  124.3122  105.7603  107.7185 C   0  0  0  0  0  0  0  0  0  0  0  0
  122.7882  108.9904  110.6118 N   0  0  0  0  0  0  0  0  0  0  0  0
  126.3453  106.3783  106.1822 N   0  0  0  0  0  0  0  0  0  0  0  0
  120.7402  103.4147  104.2976 N   0  0  0  0  0  0  0  0  0  0  0  0
  123.4251  106.9337  107.9229 N   0  0  0  0  0  0  0  0  0  0  0  0
  123.5601  107.5164  105.3954 O   0  0  0  0  0  0  0  0  0  0  0  0
  122.0997  108.9102  106.8815 O   0  0  0  0  0  0  0  0  0  0  0  0
  118.2584  103.8419  105.4829 F   0  0  0  0  0  0  0  0  0  0  0  0
  122.6668  107.6201  106.5345 S   0  0  0  0  0  0  0  0  0  0  0  0
  119.6830  108.1657  107.9702 Br  0  0  0  0  0  0  0  0  0  0  0  0
  122.5190  105.2720  104.9556 H   0  0  0  0  0  0  0  0  0  0  0  0
  118.0449  105.9234  107.0057 H   0  0  0  0  0  0  0  0  0  0  0  0
  122.9900  105.9422  109.7151 H   0  0  0  0  0  0  0  0  0  0  0  0
  121.5842  106.6149  108.8678 H   0  0  0  0  0  0  0  0  0  0  0  0
  123.7097  104.9638  107.2726 H   0  0  0  0  0  0  0  0  0  0  0  0
  124.6509  105.4263  108.7034 H   0  0  0  0  0  0  0  0  0  0  0  0
  121.6301  103.3197  103.8515 H   0  0  0  0  0  0  0  0  0  0  0  0
  119.9821  102.7996  104.0811 H   0  0  0  0  0  0  0  0  0  0  0  0
  1  9  1  0  0  0  0
  1 11  3  0  0  0  0
  2 10  1  0  0  0  0
  2 12  3  0  0  0  0
  3  5  1  0  0  0  0
  3  7  2  0  0  0  0
  4  6  1  0  0  0  0
  4  8  2  0  0  0  0
  5  6  2  0  0  0  0
  5 13  1  0  0  0  0
  6 17  1  0  0  0  0
  7  8  1  0  0  0  0
  7 18  1  0  0  0  0
  8 19  1  0  0  0  0
  9 14  1  0  0  0  0
 10 14  1  0  0  0  0
 14 18  1  0  0  0  0
 15 18  2  0  0  0  0
 16 18  2  0  0  0  0
  3 20  1  0  0  0  0
  4 21  1  0  0  0  0
  9 22  1  0  0  0  0
  9 23  1  0  0  0  0
 10 24  1  0  0  0  0
 10 25  1  0  0  0  0
 13 26  1  0  0  0  0
 13 27  1  0  0  0  0
M  END
> <FRED Chemgauss4 score>
-6.471073

$$$$
C70947713	P109519860
  -OEChem-05182014473D

 26 27  0     1  0  0  0  0  0999 V2000
  121.1957  105.1414  105.8374 C   0  0  0  0  0  0  0  0  0  0  0  0
  121.3486  106.2183  105.0617 C   0  0  0  0  0  0  0  0  0  0  0  0
  122.2423  104.8026  106.8100 C   0  0  0  0  0  0  0  0  0  0  0  0
  123.3394  106.7910  105.9236 C   0  0  0  0  0  0  0  0  0  0  0  0
  119.9302  104.4113  105.5858 C   0  0  0  0  0  0  0  0  0  0  0  0
  120.1845  106.3921  104.1459 C   0  0  0  0  0  0  0  0  0  0  0  0
  119.4651  105.0414  104.2673 C   0  0  0  0  0  0  0  0  0  0  0  0
  125.7786  106.8308  106.3980 C   0  0  0  0  0  0  0  0  0  0  0  0
  124.5619  107.6555  106.0365 C   0  0  1  0  0  0  0  0  0  0  0  0
  122.4069  107.0824  105.0659 N   0  0  0  0  0  0  0  0  0  0  0  0
  123.3000  105.7018  106.7829 N   0  0  0  0  0  0  0  0  0  0  0  0
  124.6877  108.2743  104.7490 N   0  0  0  0  0  0  0  0  0  0  0  0
  122.1592  103.8285  107.5479 O   0  0  0  0  0  0  0  0  0  0  0  0
  120.0780  103.3330  105.4775 H   0  0  0  0  0  0  0  0  0  0  0  0
  119.2110  104.5965  106.3904 H   0  0  0  0  0  0  0  0  0  0  0  0
  119.5459  107.2135  104.4874 H   0  0  0  0  0  0  0  0  0  0  0  0
  120.4890  106.5820  103.1123 H   0  0  0  0  0  0  0  0  0  0  0  0
  119.7547  104.3943  103.4287 H   0  0  0  0  0  0  0  0  0  0  0  0
  118.3764  105.1515  104.2269 H   0  0  0  0  0  0  0  0  0  0  0  0
  125.9700  106.0450  105.6581 H   0  0  0  0  0  0  0  0  0  0  0  0
  126.6716  107.4629  106.4479 H   0  0  0  0  0  0  0  0  0  0  0  0
  125.6464  106.3441  107.3700 H   0  0  0  0  0  0  0  0  0  0  0  0
  124.3745  108.4367  106.7753 H   0  0  0  0  0  0  0  0  0  0  0  0
  124.0725  105.5471  107.4245 H   0  0  0  0  0  0  0  0  0  0  0  0
  125.5757  108.6675  104.4729 H   0  0  0  0  0  0  0  0  0  0  0  0
  123.8552  108.4930  104.2211 H   0  0  0  0  0  0  0  0  0  0  0  0
  1  2  2  0  0  0  0
  1  3  1  0  0  0  0
  1  5  1  0  0  0  0
  2  6  1  0  0  0  0
  2 10  1  0  0  0  0
  3 11  1  0  0  0  0
  3 13  2  0  0  0  0
  4  9  1  0  0  0  0
  4 10  2  0  0  0  0
  4 11  1  0  0  0  0
  5  7  1  0  0  0  0
  6  7  1  0  0  0  0
  8  9  1  0  0  0  0
  9 12  1  0  0  0  0
  5 14  1  0  0  0  0
  5 15  1  0  0  0  0
  6 16  1  0  0  0  0
  6 17  1  0  0  0  0
  7 18  1  0  0  0  0
  7 19  1  0  0  0  0
  8 20  1  0  0  0  0
  8 21  1  0  0  0  0
  8 22  1  0  0  0  0
  9 23  1  0  0  0  0
 11 24  1  0  0  0  0
 12 25  1  0  0  0  0
 12 26  1  0  0  0  0
M  END
> <FRED Chemgauss4 score>
-6.469378

$$$$
C85248959	P133376742
  -OEChem-05182014473D

 25 25  0     1  0  0  0  0  0999 V2000
  122.7820  106.0002  105.7541 C   0  0  0  0  0  0  0  0  0  0  0  0
  121.3930  105.4797  106.0492 C   0  0  0  0  0  0  0  0  0  0  0  0
  122.9065  104.8084  107.7944 C   0  0  0  0  0  0  0  0  0  0  0  0
  121.4485  105.1393  107.5354 C   0  0  1  0  0  0  0  0  0  0  0  0
  125.0375  105.7881  106.8619 C   0  0  0  0  0  0  0  0  0  0  0  0
  124.4510  108.1340  107.6742 C   0  0  0  0  0  0  0  0  0  0  0  0
  125.3944  107.2744  106.8383 C   0  0  2  0  0  0  0  0  0  0  0  0
  123.6054  105.5905  106.7989 N   0  0  0  0  0  0  0  0  0  0  0  0
  123.0902  106.6224  104.7483 O   0  0  0  0  0  0  0  0  0  0  0  0
  121.0883  106.2827  108.3060 O   0  0  0  0  0  0  0  0  0  0  0  0
  124.4835  107.6753  109.0223 O   0  0  0  0  0  0  0  0  0  0  0  0
  125.3720  107.7523  105.4928 O   0  0  0  0  0  0  0  0  0  0  0  0
  120.6478  106.2448  105.8161 H   0  0  0  0  0  0  0  0  0  0  0  0
  121.2329  104.5840  105.4406 H   0  0  0  0  0  0  0  0  0  0  0  0
  123.2441  105.0948  108.7947 H   0  0  0  0  0  0  0  0  0  0  0  0
  123.1256  103.7534  107.6017 H   0  0  0  0  0  0  0  0  0  0  0  0
  120.7737  104.3235  107.8099 H   0  0  0  0  0  0  0  0  0  0  0  0
  125.4909  105.2809  106.0036 H   0  0  0  0  0  0  0  0  0  0  0  0
  125.4255  105.3193  107.7722 H   0  0  0  0  0  0  0  0  0  0  0  0
  123.4211  108.0529  107.3132 H   0  0  0  0  0  0  0  0  0  0  0  0
  124.7593  109.1844  107.6752 H   0  0  0  0  0  0  0  0  0  0  0  0
  126.4211  107.4061  107.2000 H   0  0  0  0  0  0  0  0  0  0  0  0
  120.1864  106.5214  108.0415 H   0  0  0  0  0  0  0  0  0  0  0  0
  123.8753  108.2418  109.5223 H   0  0  0  0  0  0  0  0  0  0  0  0
  126.0286  107.2313  105.0067 H   0  0  0  0  0  0  0  0  0  0  0  0
  1  2  1  0  0  0  0
  1  8  1  0  0  0  0
  1  9  2  0  0  0  0
  2  4  1  0  0  0  0
  3  4  1  0  0  0  0
  3  8  1  0  0  0  0
  4 10  1  0  0  0  0
  5  7  1  0  0  0  0
  5  8  1  0  0  0  0
  6  7  1  0  0  0  0
  6 11  1  0  0  0  0
  7 12  1  0  0  0  0
  2 13  1  0  0  0  0
  2 14  1  0  0  0  0
  3 15  1  0  0  0  0
  3 16  1  0  0  0  0
  4 17  1  0  0  0  0
  5 18  1  0  0  0  0
  5 19  1  0  0  0  0
  6 20  1  0  0  0  0
  6 21  1  0  0  0  0
  7 22  1  0  0  0  0
 10 23  1  0  0  0  0
 11 24  1  0  0  0  0
 12 25  1  0  0  0  0
M  END
> <FRED Chemgauss4 score>
-6.468898

$$$$
C86660203	P135651933
  -OEChem-05182014473D

 28 28  0     1  0  0  0  0  0999 V2000
  118.2494  104.1665  104.9214 C   0  0  0  0  0  0  0  0  0  0  0  0
  118.8035  104.8151  106.1936 C   0  0  0  0  0  0  0  0  0  0  0  0
  119.4361  103.5129  104.2161 C   0  0  0  0  0  0  0  0  0  0  0  0
  120.2957  104.4863  106.2207 C   0  0  2  0  0  0  0  0  0  0  0  0
  120.6763  104.2160  104.7653 C   0  0  2  0  0  0  0  0  0  0  0  0
  124.4610  106.7760  106.0560 C   0  0  0  0  0  0  0  0  0  0  0  0
  122.7555  105.9533  104.3105 C   0  0  0  0  0  0  0  0  0  0  0  0
  122.9921  106.5902  105.6828 C   0  0  2  0  0  0  0  0  0  0  0  0
  120.4804  103.2960  106.9869 O   0  0  0  0  0  0  0  0  0  0  0  0
  125.0660  107.6518  105.1086 O   0  0  0  0  0  0  0  0  0  0  0  0
  122.3203  107.8493  105.7407 O   0  0  0  0  0  0  0  0  0  0  0  0
  121.0146  105.7660  103.8633 S   0  0  0  0  0  0  0  0  0  0  0  0
  117.4508  103.4484  105.1477 H   0  0  0  0  0  0  0  0  0  0  0  0
  117.8149  104.9427  104.2747 H   0  0  0  0  0  0  0  0  0  0  0  0
  118.6214  105.9043  106.2167 H   0  0  0  0  0  0  0  0  0  0  0  0
  118.2975  104.4067  107.0891 H   0  0  0  0  0  0  0  0  0  0  0  0
  119.4768  102.4435  104.4501 H   0  0  0  0  0  0  0  0  0  0  0  0
  119.3172  103.6032  103.1312 H   0  0  0  0  0  0  0  0  0  0  0  0
  120.8615  105.2907  106.6799 H   0  0  0  0  0  0  0  0  0  0  0  0
  121.5431  103.5910  104.6929 H   0  0  0  0  0  0  0  0  0  0  0  0
  124.5771  107.2337  107.0432 H   0  0  0  0  0  0  0  0  0  0  0  0
  124.9974  105.8226  106.0256 H   0  0  0  0  0  0  0  0  0  0  0  0
  123.2143  104.9597  104.2790 H   0  0  0  0  0  0  0  0  0  0  0  0
  123.2208  106.5670  103.5322 H   0  0  0  0  0  0  0  0  0  0  0  0
  122.5108  105.9619  106.4415 H   0  0  0  0  0  0  0  0  0  0  0  0
  120.1445  103.4767  107.8816 H   0  0  0  0  0  0  0  0  0  0  0  0
  125.9939  107.7476  105.3739 H   0  0  0  0  0  0  0  0  0  0  0  0
  121.3982  107.6783  105.4972 H   0  0  0  0  0  0  0  0  0  0  0  0
  1  2  1  0  0  0  0
  1  3  1  0  0  0  0
  2  4  1  0  0  0  0
  3  5  1  0  0  0  0
  4  5  1  0  0  0  0
  4  9  1  0  0  0  0
  5 12  1  0  0  0  0
  6  8  1  0  0  0  0
  6 10  1  0  0  0  0
  7  8  1  0  0  0  0
  7 12  1  0  0  0  0
  8 11  1  0  0  0  0
  1 13  1  0  0  0  0
  1 14  1  0  0  0  0
  2 15  1  0  0  0  0
  2 16  1  0  0  0  0
  3 17  1  0  0  0  0
  3 18  1  0  0  0  0
  4 19  1  0  0  0  0
  5 20  1  0  0  0  0
  6 21  1  0  0  0  0
  6 22  1  0  0  0  0
  7 23  1  0  0  0  0
  7 24  1  0  0  0  0
  8 25  1  0  0  0  0
  9 26  1  0  0  0  0
 10 27  1  0  0  0  0
 11 28  1  0  0  0  0
M  END
> <FRED Chemgauss4 score>
-6.466702

$$$$
C40545286	P61562841
  -OEChem-05182014473D

 24 24  0     1  0  0  0  0  0999 V2000
  124.1163  105.2213  108.4690 C   0  0  0  0  0  0  0  0  0  0  0  0
  125.5207  105.7950  108.6388 C   0  0  2  0  0  0  0  0  0  0  0  0
  126.1381  106.1149  107.2755 C   0  0  1  0  0  0  0  0  0  0  0  0
  125.1789  106.9566  106.4333 C   0  0  1  0  0  0  0  0  0  0  0  0
  123.8103  106.2760  106.3655 C   0  0  1  0  0  0  0  0  0  0  0  0
  121.6319  106.5241  105.4851 C   0  0  0  0  0  0  0  0  0  0  0  0
  123.2928  106.0825  107.6851 O   0  0  0  0  0  0  0  0  0  0  0  0
  126.3360  104.8591  109.3359 O   0  0  0  0  0  0  0  0  0  0  0  0
  127.3619  106.8239  107.4448 O   0  0  0  0  0  0  0  0  0  0  0  0
  125.0078  108.2417  107.0397 O   0  0  0  0  0  0  0  0  0  0  0  0
  120.7713  107.2673  104.6340 O   0  0  0  0  0  0  0  0  0  0  0  0
  122.9321  107.0914  105.5955 O   0  0  0  0  0  0  0  0  0  0  0  0
  124.1441  104.2229  108.0146 H   0  0  0  0  0  0  0  0  0  0  0  0
  123.6442  105.0977  109.4497 H   0  0  0  0  0  0  0  0  0  0  0  0
  125.4777  106.7123  109.2493 H   0  0  0  0  0  0  0  0  0  0  0  0
  126.3775  105.1827  106.7500 H   0  0  0  0  0  0  0  0  0  0  0  0
  125.5844  107.1352  105.4316 H   0  0  0  0  0  0  0  0  0  0  0  0
  123.8933  105.3041  105.8616 H   0  0  0  0  0  0  0  0  0  0  0  0
  121.1691  106.3926  106.4701 H   0  0  0  0  0  0  0  0  0  0  0  0
  121.7512  105.5324  105.0392 H   0  0  0  0  0  0  0  0  0  0  0  0
  125.9161  104.7131  110.1983 H   0  0  0  0  0  0  0  0  0  0  0  0
  127.7060  106.9988  106.5549 H   0  0  0  0  0  0  0  0  0  0  0  0
  124.6433  108.0780  107.9214 H   0  0  0  0  0  0  0  0  0  0  0  0
  119.9142  106.8088  104.6201 H   0  0  0  0  0  0  0  0  0  0  0  0
  1  2  1  0  0  0  0
  1  7  1  0  0  0  0
  2  3  1  0  0  0  0
  2  8  1  0  0  0  0
  3  4  1  0  0  0  0
  3  9  1  0  0  0  0
  4  5  1  0  0  0  0
  4 10  1  0  0  0  0
  5  7  1  0  0  0  0
  5 12  1  0  0  0  0
  6 11  1  0  0  0  0
  6 12  1  0  0  0  0
  1 13  1  0  0  0  0
  1 14  1  0  0  0  0
  2 15  1  0  0  0  0
  3 16  1  0  0  0  0
  4 17  1  0  0  0  0
  5 18  1  0  0  0  0
  6 19  1  0  0  0  0
  6 20  1  0  0  0  0
  8 21  1  0  0  0  0
  9 22  1  0  0  0  0
 10 23  1  0  0  0  0
 11 24  1  0  0  0  0
M  END
> <FRED Chemgauss4 score>
-6.461838

$$$$
C53110661	P79635694
  -OEChem-05182014473D

 39 41  0     1  0  0  0  0  0999 V2000
  120.9064  105.7705  103.3673 C   0  0  0  0  0  0  0  0  0  0  0  0
  119.7852  105.9382  106.8495 C   0  0  0  0  0  0  0  0  0  0  0  0
  122.2628  105.9982  103.5196 C   0  0  0  0  0  0  0  0  0  0  0  0
  118.5101  105.6934  106.3976 C   0  0  0  0  0  0  0  0  0  0  0  0
  120.7534  105.9856  105.7914 C   0  0  0  0  0  0  0  0  0  0  0  0
  120.1536  105.7689  104.5477 C   0  0  0  0  0  0  0  0  0  0  0  0
  122.1393  106.2064  105.8283 C   0  0  0  0  0  0  0  0  0  0  0  0
  124.4156  105.5858  109.4639 C   0  0  0  0  0  0  0  0  0  0  0  0
  125.2021  104.4256  108.8622 C   0  0  0  0  0  0  0  0  0  0  0  0
  124.5676  106.8615  108.6354 C   0  0  0  0  0  0  0  0  0  0  0  0
  124.9704  105.4565  106.5641 C   0  0  0  0  0  0  0  0  0  0  0  0
  124.8122  104.1753  107.4009 C   0  0  1  0  0  0  0  0  0  0  0  0
  124.2055  106.6585  107.1527 C   0  0  2  0  0  0  0  0  0  0  0  0
  125.6486  103.0412  106.8091 C   0  0  0  0  0  0  0  0  0  0  0  0
  124.5315  107.9279  106.3558 C   0  0  0  0  0  0  0  0  0  0  0  0
  122.8805  106.2111  104.6979 N   0  0  0  0  0  0  0  0  0  0  0  0
  122.7742  106.4243  107.0336 N   0  0  0  0  0  0  0  0  0  0  0  0
  124.6456  107.5750  104.9926 O   0  0  0  0  0  0  0  0  0  0  0  0
  118.4554  105.5180  104.7030 S   0  0  0  0  0  0  0  0  0  0  0  0
  120.4594  105.6048  102.3945 H   0  0  0  0  0  0  0  0  0  0  0  0
  120.0154  106.0775  107.8987 H   0  0  0  0  0  0  0  0  0  0  0  0
  122.9160  106.0152  102.6525 H   0  0  0  0  0  0  0  0  0  0  0  0
  117.6079  105.6096  106.9870 H   0  0  0  0  0  0  0  0  0  0  0  0
  123.3580  105.3107  109.5480 H   0  0  0  0  0  0  0  0  0  0  0  0
  124.7691  105.7733  110.4846 H   0  0  0  0  0  0  0  0  0  0  0  0
  126.2757  104.6433  108.9307 H   0  0  0  0  0  0  0  0  0  0  0  0
  125.0238  103.5220  109.4576 H   0  0  0  0  0  0  0  0  0  0  0  0
  123.9427  107.6482  109.0770 H   0  0  0  0  0  0  0  0  0  0  0  0
  125.6079  107.2041  108.7152 H   0  0  0  0  0  0  0  0  0  0  0  0
  126.0384  105.7062  106.4962 H   0  0  0  0  0  0  0  0  0  0  0  0
  124.6300  105.2610  105.5384 H   0  0  0  0  0  0  0  0  0  0  0  0
  123.7609  103.8623  107.3707 H   0  0  0  0  0  0  0  0  0  0  0  0
  126.7019  103.3153  106.8218 H   0  0  0  0  0  0  0  0  0  0  0  0
  125.3404  102.8539  105.7822 H   0  0  0  0  0  0  0  0  0  0  0  0
  125.5078  102.1353  107.3957 H   0  0  0  0  0  0  0  0  0  0  0  0
  125.4716  108.3441  106.7071 H   0  0  0  0  0  0  0  0  0  0  0  0
  123.7299  108.6504  106.4820 H   0  0  0  0  0  0  0  0  0  0  0  0
  122.2297  106.4225  107.8828 H   0  0  0  0  0  0  0  0  0  0  0  0
  124.8522  108.3887  104.5001 H   0  0  0  0  0  0  0  0  0  0  0  0
  1  3  2  0  0  0  0
  1  6  1  0  0  0  0
  2  4  2  0  0  0  0
  2  5  1  0  0  0  0
  3 16  1  0  0  0  0
  4 19  1  0  0  0  0
  5  6  2  0  0  0  0
  5  7  1  0  0  0  0
  6 19  1  0  0  0  0
  7 16  2  0  0  0  0
  7 17  1  0  0  0  0
  8  9  1  0  0  0  0
  8 10  1  0  0  0  0
  9 12  1  0  0  0  0
 10 13  1  0  0  0  0
 11 12  1  0  0  0  0
 11 13  1  0  0  0  0
 12 14  1  0  0  0  0
 13 15  1  0  0  0  0
 13 17  1  0  0  0  0
 15 18  1  0  0  0  0
  1 20  1  0  0  0  0
  2 21  1  0  0  0  0
  3 22  1  0  0  0  0
  4 23  1  0  0  0  0
  8 24  1  0  0  0  0
  8 25  1  0  0  0  0
  9 26  1  0  0  0  0
  9 27  1  0  0  0  0
 10 28  1  0  0  0  0
 10 29  1  0  0  0  0
 11 30  1  0  0  0  0
 11 31  1  0  0  0  0
 12 32  1  0  0  0  0
 14 33  1  0  0  0  0
 14 34  1  0  0  0  0
 14 35  1  0  0  0  0
 15 36  1  0  0  0  0
 15 37  1  0  0  0  0
 17 38  1  0  0  0  0
 18 39  1  0  0  0  0
M  END
> <FRED Chemgauss4 score>
-6.460576

$$$$
C81988202	P127905425
  -OEChem-05182014473D

 45 46  0     1  0  0  0  0  0999 V2000
  120.3764  105.4754  103.3595 C   0  0  0  0  0  0  0  0  0  0  0  0
  119.2070  105.4930  104.3435 C   0  0  0  0  0  0  0  0  0  0  0  0
  125.8507  106.3919  107.8949 C   0  0  0  0  0  0  0  0  0  0  0  0
  125.7066  107.3526  106.7101 C   0  0  0  0  0  0  0  0  0  0  0  0
  121.5075  104.7211  104.0529 C   0  0  0  0  0  0  0  0  0  0  0  0
  119.6849  104.7533  105.5900 C   0  0  0  0  0  0  0  0  0  0  0  0
  124.1482  105.0268  106.6187 C   0  0  0  0  0  0  0  0  0  0  0  0
  124.7062  105.3703  108.0037 C   0  0  1  0  0  0  0  0  0  0  0  0
  124.2411  107.5813  106.3354 C   0  0  2  0  0  0  0  0  0  0  0  0
  121.2025  104.8379  105.5383 C   0  0  0  0  0  0  0  0  0  0  0  0
  123.5587  106.2617  105.9152 C   0  0  2  0  0  0  0  0  0  0  0  0
  126.3067  103.4373  107.9829 C   0  0  0  0  0  0  0  0  0  0  0  0
  125.6012  104.4602  110.1645 C   0  0  0  0  0  0  0  0  0  0  0  0
  125.1690  104.1157  108.7416 C   0  0  0  0  0  0  0  0  0  0  0  0
  124.1625  108.5758  105.2628 N   0  0  0  0  0  0  0  0  0  0  0  0
  121.6030  106.3106  107.6542 O   0  0  0  0  0  0  0  0  0  0  0  0
  121.2756  107.4431  105.4222 O   0  0  0  0  0  0  0  0  0  0  0  0
  121.8041  106.3555  106.2202 S   0  0  0  0  0  0  0  0  0  0  0  0
  120.1035  104.9985  102.4126 H   0  0  0  0  0  0  0  0  0  0  0  0
  120.6850  106.5018  103.1298 H   0  0  0  0  0  0  0  0  0  0  0  0
  118.9429  106.5279  104.5895 H   0  0  0  0  0  0  0  0  0  0  0  0
  118.3138  105.0214  103.9209 H   0  0  0  0  0  0  0  0  0  0  0  0
  126.8178  105.8623  107.8237 H   0  0  0  0  0  0  0  0  0  0  0  0
  125.9070  106.9824  108.8265 H   0  0  0  0  0  0  0  0  0  0  0  0
  126.1724  108.3063  106.9697 H   0  0  0  0  0  0  0  0  0  0  0  0
  126.2645  106.9584  105.8567 H   0  0  0  0  0  0  0  0  0  0  0  0
  121.4722  103.6667  103.7526 H   0  0  0  0  0  0  0  0  0  0  0  0
  122.4900  105.1151  103.7754 H   0  0  0  0  0  0  0  0  0  0  0  0
  119.2537  105.1741  106.5036 H   0  0  0  0  0  0  0  0  0  0  0  0
  119.3733  103.7035  105.5253 H   0  0  0  0  0  0  0  0  0  0  0  0
  124.9480  104.6184  105.9965 H   0  0  0  0  0  0  0  0  0  0  0  0
  123.3854  104.2513  106.7096 H   0  0  0  0  0  0  0  0  0  0  0  0
  123.9034  105.8269  108.6033 H   0  0  0  0  0  0  0  0  0  0  0  0
  123.7232  107.9984  107.2152 H   0  0  0  0  0  0  0  0  0  0  0  0
  121.6752  104.0370  106.1157 H   0  0  0  0  0  0  0  0  0  0  0  0
  123.6229  106.1265  104.8428 H   0  0  0  0  0  0  0  0  0  0  0  0
  127.1790  104.0949  107.9002 H   0  0  0  0  0  0  0  0  0  0  0  0
  125.9911  103.1646  106.9704 H   0  0  0  0  0  0  0  0  0  0  0  0
  126.6209  102.5209  108.4937 H   0  0  0  0  0  0  0  0  0  0  0  0
  126.4458  105.1578  110.1672 H   0  0  0  0  0  0  0  0  0  0  0  0
  125.9050  103.5584  110.7065 H   0  0  0  0  0  0  0  0  0  0  0  0
  124.7784  104.9229  110.7198 H   0  0  0  0  0  0  0  0  0  0  0  0
  124.3249  103.4181  108.7958 H   0  0  0  0  0  0  0  0  0  0  0  0
  124.8355  109.3068  105.2602 H   0  0  0  0  0  0  0  0  0  0  0  0
  123.3350  108.5977  104.7130 H   0  0  0  0  0  0  0  0  0  0  0  0
  1  2  1  0  0  0  0
  1  5  1  0  0  0  0
  2  6  1  0  0  0  0
  3  4  1  0  0  0  0
  3  8  1  0  0  0  0
  4  9  1  0  0  0  0
  5 10  1  0  0  0  0
  6 10  1  0  0  0  0
  7  8  1  0  0  0  0
  7 11  1  0  0  0  0
  8 14  1  0  0  0  0
  9 11  1  0  0  0  0
  9 15  1  0  0  0  0
 10 18  1  0  0  0  0
 11 18  1  0  0  0  0
 12 14  1  0  0  0  0
 13 14  1  0  0  0  0
 16 18  2  0  0  0  0
 17 18  2  0  0  0  0
  1 19  1  0  0  0  0
  1 20  1  0  0  0  0
  2 21  1  0  0  0  0
  2 22  1  0  0  0  0
  3 23  1  0  0  0  0
  3 24  1  0  0  0  0
  4 25  1  0  0  0  0
  4 26  1  0  0  0  0
  5 27  1  0  0  0  0
  5 28  1  0  0  0  0
  6 29  1  0  0  0  0
  6 30  1  0  0  0  0
  7 31  1  0  0  0  0
  7 32  1  0  0  0  0
  8 33  1  0  0  0  0
  9 34  1  0  0  0  0
 10 35  1  0  0  0  0
 11 36  1  0  0  0  0
 12 37  1  0  0  0  0
 12 38  1  0  0  0  0
 12 39  1  0  0  0  0
 13 40  1  0  0  0  0
 13 41  1  0  0  0  0
 13 42  1  0  0  0  0
 14 43  1  0  0  0  0
 15 44  1  0  0  0  0
 15 45  1  0  0  0  0
M  END
> <FRED Chemgauss4 score>
-6.460206

$$$$
C83993337	P131402648
  -OEChem-05182014473D

 27 28  0     1  0  0  0  0  0999 V2000
  120.0258  107.1370  105.4836 C   0  0  0  0  0  0  0  0  0  0  0  0
  122.9690  108.4575  108.8584 C   0  0  0  0  0  0  0  0  0  0  0  0
  123.8877  107.7772  107.1119 C   0  0  0  0  0  0  0  0  0  0  0  0
  121.9110  106.2465  105.3821 C   0  0  0  0  0  0  0  0  0  0  0  0
  121.0091  104.8128  102.2152 C   0  0  0  0  0  0  0  0  0  0  0  0
  123.3547  105.8414  105.5426 C   0  0  0  0  0  0  0  0  0  0  0  0
  121.3102  104.4941  103.6696 C   0  0  0  0  0  0  0  0  0  0  0  0
  124.2892  107.0187  105.8665 C   0  0  1  0  0  0  0  0  0  0  0  0
  121.2871  107.2226  105.9998 N   0  0  0  0  0  0  0  0  0  0  0  0
  119.8301  106.1693  104.5854 N   0  0  0  0  0  0  0  0  0  0  0  0
  122.8950  107.4729  107.9152 N   0  0  0  0  0  0  0  0  0  0  0  0
  124.5175  108.8941  107.5654 N   0  0  0  0  0  0  0  0  0  0  0  0
  123.9450  109.3520  108.6892 N   0  0  0  0  0  0  0  0  0  0  0  0
  121.0510  105.6149  104.5388 N   0  0  0  0  0  0  0  0  0  0  0  0
  124.2892  107.9299  104.7658 O   0  0  0  0  0  0  0  0  0  0  0  0
  119.2244  107.8007  105.7710 H   0  0  0  0  0  0  0  0  0  0  0  0
  122.2802  108.5107  109.6913 H   0  0  0  0  0  0  0  0  0  0  0  0
  119.9609  105.1008  102.0819 H   0  0  0  0  0  0  0  0  0  0  0  0
  121.2054  103.9387  101.5868 H   0  0  0  0  0  0  0  0  0  0  0  0
  121.6306  105.6393  101.8546 H   0  0  0  0  0  0  0  0  0  0  0  0
  123.4191  105.0923  106.3438 H   0  0  0  0  0  0  0  0  0  0  0  0
  123.7016  105.3089  104.6470 H   0  0  0  0  0  0  0  0  0  0  0  0
  122.3606  104.2073  103.7928 H   0  0  0  0  0  0  0  0  0  0  0  0
  120.7003  103.6515  104.0146 H   0  0  0  0  0  0  0  0  0  0  0  0
  125.3212  106.6620  105.9710 H   0  0  0  0  0  0  0  0  0  0  0  0
  124.2724  110.1786  109.1814 H   0  0  0  0  0  0  0  0  0  0  0  0
  124.5492  107.4162  103.9868 H   0  0  0  0  0  0  0  0  0  0  0  0
  1  9  1  0  0  0  0
  1 10  2  0  0  0  0
  2 11  2  0  0  0  0
  2 13  1  0  0  0  0
  3  8  1  0  0  0  0
  3 11  1  0  0  0  0
  3 12  2  0  0  0  0
  4  6  1  0  0  0  0
  4  9  2  0  0  0  0
  4 14  1  0  0  0  0
  5  7  1  0  0  0  0
  6  8  1  0  0  0  0
  7 14  1  0  0  0  0
  8 15  1  0  0  0  0
 10 14  1  0  0  0  0
 12 13  1  0  0  0  0
  1 16  1  0  0  0  0
  2 17  1  0  0  0  0
  5 18  1  0  0  0  0
  5 19  1  0  0  0  0
  5 20  1  0  0  0  0
  6 21  1  0  0  0  0
  6 22  1  0  0  0  0
  7 23  1  0  0  0  0
  7 24  1  0  0  0  0
  8 25  1  0  0  0  0
 13 26  1  0  0  0  0
 15 27  1  0  0  0  0
M  END
> <FRED Chemgauss4 score>
-6.458510

$$$$
C01532676	P04873483
  -OEChem-05182014473D

 23 23  0     1  0  0  0  0  0999 V2000
  122.8746  106.9204  106.4501 C   0  0  1  0  0  0  0  0  0  0  0  0
  123.3290  105.4622  106.3628 C   0  0  1  0  0  0  0  0  0  0  0  0
  124.0700  107.8688  106.3447 C   0  0  1  0  0  0  0  0  0  0  0  0
  124.4512  105.1988  107.3746 C   0  0  1  0  0  0  0  0  0  0  0  0
  125.1582  107.4935  107.3495 C   0  0  2  0  0  0  0  0  0  0  0  0
  125.0235  103.7923  107.2218 C   0  0  0  0  0  0  0  0  0  0  0  0
  125.5315  106.1193  107.1999 O   0  0  0  0  0  0  0  0  0  0  0  0
  121.9579  107.2189  105.4007 O   0  0  0  0  0  0  0  0  0  0  0  0
  122.2316  104.6019  106.6570 O   0  0  0  0  0  0  0  0  0  0  0  0
  124.6413  107.7900  105.0376 O   0  0  0  0  0  0  0  0  0  0  0  0
  124.7193  107.7966  108.6693 O   0  0  0  0  0  0  0  0  0  0  0  0
  122.3438  107.0890  107.3945 H   0  0  0  0  0  0  0  0  0  0  0  0
  123.6643  105.2383  105.3421 H   0  0  0  0  0  0  0  0  0  0  0  0
  123.7358  108.9011  106.4960 H   0  0  0  0  0  0  0  0  0  0  0  0
  124.0648  105.2849  108.3976 H   0  0  0  0  0  0  0  0  0  0  0  0
  126.0586  108.0861  107.1489 H   0  0  0  0  0  0  0  0  0  0  0  0
  125.4205  103.6615  106.2161 H   0  0  0  0  0  0  0  0  0  0  0  0
  124.2418  103.0539  107.3945 H   0  0  0  0  0  0  0  0  0  0  0  0
  125.8246  103.6383  107.9435 H   0  0  0  0  0  0  0  0  0  0  0  0
  121.7084  108.1496  105.5089 H   0  0  0  0  0  0  0  0  0  0  0  0
  121.9431  104.8206  107.5565 H   0  0  0  0  0  0  0  0  0  0  0  0
  125.3883  108.4068  105.0289 H   0  0  0  0  0  0  0  0  0  0  0  0
  124.5451  108.7507  108.6918 H   0  0  0  0  0  0  0  0  0  0  0  0
  1  2  1  0  0  0  0
  1  3  1  0  0  0  0
  1  8  1  0  0  0  0
  2  4  1  0  0  0  0
  2  9  1  0  0  0  0
  3  5  1  0  0  0  0
  3 10  1  0  0  0  0
  4  6  1  0  0  0  0
  4  7  1  0  0  0  0
  5  7  1  0  0  0  0
  5 11  1  0  0  0  0
  1 12  1  0  0  0  0
  2 13  1  0  0  0  0
  3 14  1  0  0  0  0
  4 15  1  0  0  0  0
  5 16  1  0  0  0  0
  6 17  1  0  0  0  0
  6 18  1  0  0  0  0
  6 19  1  0  0  0  0
  8 20  1  0  0  0  0
  9 21  1  0  0  0  0
 10 22  1  0  0  0  0
 11 23  1  0  0  0  0
M  END
> <FRED Chemgauss4 score>
-6.458428

$$$$
C80043308	P125038908
  -OEChem-05182014473D

 39 40  0     1  0  0  0  0  0999 V2000
  117.6089  108.0625  105.3832 C   0  0  0  0  0  0  0  0  0  0  0  0
  116.4660  107.4075  105.8798 C   0  0  0  0  0  0  0  0  0  0  0  0
  115.7208  108.4070  106.4562 C   0  0  0  0  0  0  0  0  0  0  0  0
  116.1110  105.9840  105.8168 C   0  0  0  0  0  0  0  0  0  0  0  0
  118.0729  103.5689  104.0731 C   0  0  0  0  0  0  0  0  0  0  0  0
  119.4561  103.7019  104.7127 C   0  0  0  0  0  0  0  0  0  0  0  0
  116.9634  103.7767  105.1002 C   0  0  0  0  0  0  0  0  0  0  0  0
  118.4437  105.1917  106.4769 C   0  0  0  0  0  0  0  0  0  0  0  0
  119.5915  105.0323  105.4714 C   0  0  1  0  0  0  0  0  0  0  0  0
  114.4218  108.4006  107.1509 C   0  0  0  0  0  0  0  0  0  0  0  0
  120.9439  105.1217  106.1730 C   0  0  0  0  0  0  0  0  0  0  0  0
  117.5953  109.3764  105.6230 N   0  0  0  0  0  0  0  0  0  0  0  0
  116.4347  109.5551  106.2766 N   0  0  0  0  0  0  0  0  0  0  0  0
  117.1464  105.0467  105.8018 N   0  0  0  0  0  0  0  0  0  0  0  0
  123.8511  105.3877  107.0730 N   0  0  0  0  0  0  0  0  0  0  0  0
  121.9508  105.4911  105.2357 N   0  0  0  0  0  0  0  0  0  0  0  0
  114.9094  105.7252  105.7704 O   0  0  0  0  0  0  0  0  0  0  0  0
  124.3689  106.3495  104.7478 O   0  0  0  0  0  0  0  0  0  0  0  0
  122.8888  107.6535  106.3142 O   0  0  0  0  0  0  0  0  0  0  0  0
  123.3432  106.3868  105.7731 S   0  0  0  0  0  0  0  0  0  0  0  0
  118.4527  107.6396  104.8564 H   0  0  0  0  0  0  0  0  0  0  0  0
  117.9747  104.3152  103.2748 H   0  0  0  0  0  0  0  0  0  0  0  0
  117.9710  102.5819  103.6087 H   0  0  0  0  0  0  0  0  0  0  0  0
  119.6182  102.8614  105.3996 H   0  0  0  0  0  0  0  0  0  0  0  0
  120.2258  103.6319  103.9350 H   0  0  0  0  0  0  0  0  0  0  0  0
  115.9882  103.7412  104.6046 H   0  0  0  0  0  0  0  0  0  0  0  0
  116.9802  102.9789  105.8521 H   0  0  0  0  0  0  0  0  0  0  0  0
  118.4926  104.4164  107.2516 H   0  0  0  0  0  0  0  0  0  0  0  0
  118.5262  106.1570  106.9835 H   0  0  0  0  0  0  0  0  0  0  0  0
  119.5292  105.8502  104.7404 H   0  0  0  0  0  0  0  0  0  0  0  0
  114.5485  108.2401  108.2351 H   0  0  0  0  0  0  0  0  0  0  0  0
  113.8730  109.3497  107.0171 H   0  0  0  0  0  0  0  0  0  0  0  0
  113.7512  107.6082  106.7733 H   0  0  0  0  0  0  0  0  0  0  0  0
  121.1829  104.1532  106.5926 H   0  0  0  0  0  0  0  0  0  0  0  0
  120.8880  105.8704  106.9519 H   0  0  0  0  0  0  0  0  0  0  0  0
  116.1936  110.4921  106.5753 H   0  0  0  0  0  0  0  0  0  0  0  0
  124.1791  104.4486  106.8093 H   0  0  0  0  0  0  0  0  0  0  0  0
  123.2020  105.3319  107.8695 H   0  0  0  0  0  0  0  0  0  0  0  0
  122.1831  104.7759  104.5029 H   0  0  0  0  0  0  0  0  0  0  0  0
  1  2  1  0  0  0  0
  1 12  2  0  0  0  0
  2  3  2  0  0  0  0
  2  4  1  0  0  0  0
  3 10  1  0  0  0  0
  3 13  1  0  0  0  0
  4 14  1  0  0  0  0
  4 17  2  0  0  0  0
  5  6  1  0  0  0  0
  5  7  1  0  0  0  0
  6  9  1  0  0  0  0
  7 14  1  0  0  0  0
  8  9  1  0  0  0  0
  8 14  1  0  0  0  0
  9 11  1  0  0  0  0
 11 16  1  0  0  0  0
 12 13  1  0  0  0  0
 15 20  1  0  0  0  0
 16 20  1  0  0  0  0
 18 20  2  0  0  0  0
 19 20  2  0  0  0  0
  1 21  1  0  0  0  0
  5 22  1  0  0  0  0
  5 23  1  0  0  0  0
  6 24  1  0  0  0  0
  6 25  1  0  0  0  0
  7 26  1  0  0  0  0
  7 27  1  0  0  0  0
  8 28  1  0  0  0  0
  8 29  1  0  0  0  0
  9 30  1  0  0  0  0
 10 31  1  0  0  0  0
 10 32  1  0  0  0  0
 10 33  1  0  0  0  0
 11 34  1  0  0  0  0
 11 35  1  0  0  0  0
 13 36  1  0  0  0  0
 15 37  1  0  0  0  0
 15 38  1  0  0  0  0
 16 39  1  0  0  0  0
M  END
> <FRED Chemgauss4 score>
-6.451606

$$$$
C82995805	P129751681
  -OEChem-05182014473D

 32 32  0     1  0  0  0  0  0999 V2000
  121.4719  105.6263  106.6384 C   0  0  0  0  0  0  0  0  0  0  0  0
  118.1879  103.9727  104.7171 C   0  0  0  0  0  0  0  0  0  0  0  0
  120.1108  103.6175  106.1032 C   0  0  0  0  0  0  0  0  0  0  0  0
  118.2046  105.4473  105.1052 C   0  0  0  0  0  0  0  0  0  0  0  0
  120.0862  105.0978  106.4691 C   0  0  2  0  0  0  0  0  0  0  0  0
  126.2684  104.7016  109.1235 C   0  0  0  0  0  0  0  0  0  0  0  0
  124.5594  104.5610  107.2758 C   0  0  0  0  0  0  0  0  0  0  0  0
  123.5289  105.4103  108.0183 C   0  0  0  0  0  0  0  0  0  0  0  0
  126.0093  104.9051  107.6362 C   0  0  1  0  0  0  0  0  0  0  0  0
  118.7589  103.1461  105.7857 N   0  0  0  0  0  0  0  0  0  0  0  0
  122.1714  105.0475  107.6801 N   0  0  0  0  0  0  0  0  0  0  0  0
  121.8835  106.4964  105.8799 O   0  0  0  0  0  0  0  0  0  0  0  0
  119.5380  105.8679  105.4014 O   0  0  0  0  0  0  0  0  0  0  0  0
  126.2615  106.2686  107.3086 O   0  0  0  0  0  0  0  0  0  0  0  0
  117.1616  103.6488  104.5159 H   0  0  0  0  0  0  0  0  0  0  0  0
  118.7658  103.8174  103.7983 H   0  0  0  0  0  0  0  0  0  0  0  0
  120.7625  103.4369  105.2388 H   0  0  0  0  0  0  0  0  0  0  0  0
  120.5174  103.0268  106.9317 H   0  0  0  0  0  0  0  0  0  0  0  0
  117.8404  106.0571  104.2724 H   0  0  0  0  0  0  0  0  0  0  0  0
  117.5595  105.6455  105.9698 H   0  0  0  0  0  0  0  0  0  0  0  0
  119.5254  105.2885  107.3916 H   0  0  0  0  0  0  0  0  0  0  0  0
  125.5878  105.3118  109.7275 H   0  0  0  0  0  0  0  0  0  0  0  0
  126.1472  103.6521  109.4085 H   0  0  0  0  0  0  0  0  0  0  0  0
  127.2853  105.0165  109.3818 H   0  0  0  0  0  0  0  0  0  0  0  0
  124.3667  103.5106  107.5287 H   0  0  0  0  0  0  0  0  0  0  0  0
  124.4135  104.6716  106.1943 H   0  0  0  0  0  0  0  0  0  0  0  0
  123.6374  105.2661  109.0982 H   0  0  0  0  0  0  0  0  0  0  0  0
  123.6543  106.4764  107.8071 H   0  0  0  0  0  0  0  0  0  0  0  0
  126.7026  104.2842  107.0586 H   0  0  0  0  0  0  0  0  0  0  0  0
  118.1757  103.2370  106.6181 H   0  0  0  0  0  0  0  0  0  0  0  0
  121.7095  104.3330  108.2346 H   0  0  0  0  0  0  0  0  0  0  0  0
  127.1904  106.4390  107.5294 H   0  0  0  0  0  0  0  0  0  0  0  0
  1  5  1  0  0  0  0
  1 11  1  0  0  0  0
  1 12  2  0  0  0  0
  2  4  1  0  0  0  0
  2 10  1  0  0  0  0
  3  5  1  0  0  0  0
  3 10  1  0  0  0  0
  4 13  1  0  0  0  0
  5 13  1  0  0  0  0
  6  9  1  0  0  0  0
  7  8  1  0  0  0  0
  7  9  1  0  0  0  0
  8 11  1  0  0  0  0
  9 14  1  0  0  0  0
  2 15  1  0  0  0  0
  2 16  1  0  0  0  0
  3 17  1  0  0  0  0
  3 18  1  0  0  0  0
  4 19  1  0  0  0  0
  4 20  1  0  0  0  0
  5 21  1  0  0  0  0
  6 22  1  0  0  0  0
  6 23  1  0  0  0  0
  6 24  1  0  0  0  0
  7 25  1  0  0  0  0
  7 26  1  0  0  0  0
  8 27  1  0  0  0  0
  8 28  1  0  0  0  0
  9 29  1  0  0  0  0
 10 30  1  0  0  0  0
 11 31  1  0  0  0  0
 14 32  1  0  0  0  0
M  END
> <FRED Chemgauss4 score>
-6.448963

$$$$
C37751076	P56135865
  -OEChem-05182014473D

 27 27  0     1  0  0  0  0  0999 V2000
  123.3636  106.6074  105.9537 C   0  0  0  0  0  0  0  0  0  0  0  0
  124.8737  106.6885  105.9496 C   0  0  0  0  0  0  0  0  0  0  0  0
  124.1744  104.7527  107.1740 C   0  0  0  0  0  0  0  0  0  0  0  0
  125.2669  105.8112  107.1398 C   0  0  1  0  0  0  0  0  0  0  0  0
  118.5386  105.1700  106.4659 C   0  0  0  0  0  0  0  0  0  0  0  0
  121.6792  104.9511  106.8444 C   0  0  0  0  0  0  0  0  0  0  0  0
  121.0715  104.5174  105.5242 C   0  0  0  0  0  0  0  0  0  0  0  0
  123.0198  105.4707  106.6837 N   0  0  0  0  0  0  0  0  0  0  0  0
  126.6049  105.2594  107.0189 N   0  0  0  0  0  0  0  0  0  0  0  0
  122.6234  107.3852  105.3707 O   0  0  0  0  0  0  0  0  0  0  0  0
  118.8937  103.6087  104.3997 O   0  0  0  0  0  0  0  0  0  0  0  0
  119.5273  102.7608  106.6913 O   0  0  0  0  0  0  0  0  0  0  0  0
  119.4530  103.8394  105.7207 S   0  0  0  0  0  0  0  0  0  0  0  0
  125.2358  106.2914  104.9948 H   0  0  0  0  0  0  0  0  0  0  0  0
  125.2113  107.7207  106.0749 H   0  0  0  0  0  0  0  0  0  0  0  0
  124.3658  103.9150  106.4940 H   0  0  0  0  0  0  0  0  0  0  0  0
  123.9951  104.3756  108.1854 H   0  0  0  0  0  0  0  0  0  0  0  0
  125.2119  106.4158  108.0545 H   0  0  0  0  0  0  0  0  0  0  0  0
  117.5124  104.8354  106.6258 H   0  0  0  0  0  0  0  0  0  0  0  0
  119.0110  105.4225  107.4164 H   0  0  0  0  0  0  0  0  0  0  0  0
  118.5610  106.0249  105.7884 H   0  0  0  0  0  0  0  0  0  0  0  0
  121.0791  105.7289  107.3267 H   0  0  0  0  0  0  0  0  0  0  0  0
  121.7487  104.0972  107.5251 H   0  0  0  0  0  0  0  0  0  0  0  0
  121.6787  103.7313  105.0654 H   0  0  0  0  0  0  0  0  0  0  0  0
  120.9860  105.3524  104.8223 H   0  0  0  0  0  0  0  0  0  0  0  0
  126.8214  104.4194  107.5178 H   0  0  0  0  0  0  0  0  0  0  0  0
  127.3214  105.8300  106.6156 H   0  0  0  0  0  0  0  0  0  0  0  0
  1  2  1  0  0  0  0
  1  8  1  0  0  0  0
  1 10  2  0  0  0  0
  2  4  1  0  0  0  0
  3  4  1  0  0  0  0
  3  8  1  0  0  0  0
  4  9  1  0  0  0  0
  5 13  1  0  0  0  0
  6  7  1  0  0  0  0
  6  8  1  0  0  0  0
  7 13  1  0  0  0  0
 11 13  2  0  0  0  0
 12 13  2  0  0  0  0
  2 14  1  0  0  0  0
  2 15  1  0  0  0  0
  3 16  1  0  0  0  0
  3 17  1  0  0  0  0
  4 18  1  0  0  0  0
  5 19  1  0  0  0  0
  5 20  1  0  0  0  0
  5 21  1  0  0  0  0
  6 22  1  0  0  0  0
  6 23  1  0  0  0  0
  7 24  1  0  0  0  0
  7 25  1  0  0  0  0
  9 26  1  0  0  0  0
  9 27  1  0  0  0  0
M  END
> <FRED Chemgauss4 score>
-6.448893

$$$$
C44686306	P67425244
  -OEChem-05182014473D

 41 43  0     1  0  0  0  0  0999 V2000
  124.4175  104.6089  109.0515 C   0  0  0  0  0  0  0  0  0  0  0  0
  125.6456  104.2827  108.4763 C   0  0  0  0  0  0  0  0  0  0  0  0
  124.9727  105.3669  106.4247 C   0  0  0  0  0  0  0  0  0  0  0  0
  123.4669  105.3141  108.3132 C   0  0  0  0  0  0  0  0  0  0  0  0
  125.9233  104.6617  107.1629 C   0  0  0  0  0  0  0  0  0  0  0  0
  123.7446  105.6930  106.9999 C   0  0  0  0  0  0  0  0  0  0  0  0
  116.7790  103.4611  104.6130 C   0  0  0  0  0  0  0  0  0  0  0  0
  116.5904  104.3420  103.4121 C   0  0  0  0  0  0  0  0  0  0  0  0
  121.2053  105.2713  103.4419 C   0  0  0  0  0  0  0  0  0  0  0  0
  119.8376  104.9151  102.8665 C   0  0  0  0  0  0  0  0  0  0  0  0
  120.0395  103.6561  104.8127 C   0  0  0  0  0  0  0  0  0  0  0  0
  117.9115  103.6607  103.6431 C   0  0  0  0  0  0  0  0  0  0  0  0
  121.2847  104.5352  104.7812 C   0  0  2  0  0  0  0  0  0  0  0  0
  122.1618  105.6478  108.9587 C   0  0  0  0  0  0  0  0  0  0  0  0
  119.0827  104.4360  104.0239 N   0  0  2  0  0  0  0  0  0  0  0  0
  127.1658  104.3328  106.5823 N   0  0  0  0  0  0  0  0  0  0  0  0
  121.3020  105.4585  105.8909 N   0  0  0  0  0  0  0  0  0  0  0  0
  122.1086  107.7186  106.8249 O   0  0  0  0  0  0  0  0  0  0  0  0
  123.1583  106.8030  104.7311 O   0  0  0  0  0  0  0  0  0  0  0  0
  122.5640  106.5893  106.0367 S   0  0  0  0  0  0  0  0  0  0  0  0
  124.2115  104.3084  110.0754 H   0  0  0  0  0  0  0  0  0  0  0  0
  126.3786  103.7328  109.0611 H   0  0  0  0  0  0  0  0  0  0  0  0
  125.1905  105.6616  105.4005 H   0  0  0  0  0  0  0  0  0  0  0  0
  116.8338  103.9394  105.5834 H   0  0  0  0  0  0  0  0  0  0  0  0
  116.2809  102.4992  104.6157 H   0  0  0  0  0  0  0  0  0  0  0  0
  115.9659  103.9717  102.6082 H   0  0  0  0  0  0  0  0  0  0  0  0
  116.5187  105.4100  103.5785 H   0  0  0  0  0  0  0  0  0  0  0  0
  121.9976  104.9014  102.7784 H   0  0  0  0  0  0  0  0  0  0  0  0
  121.3276  106.3572  103.5292 H   0  0  0  0  0  0  0  0  0  0  0  0
  119.3755  105.8113  102.4267 H   0  0  0  0  0  0  0  0  0  0  0  0
  119.9170  104.1525  102.0818 H   0  0  0  0  0  0  0  0  0  0  0  0
  120.2315  102.6764  104.3630 H   0  0  0  0  0  0  0  0  0  0  0  0
  119.6822  103.4983  105.8389 H   0  0  0  0  0  0  0  0  0  0  0  0
  118.1421  102.8224  102.9934 H   0  0  0  0  0  0  0  0  0  0  0  0
  122.1996  103.9130  104.8041 H   0  0  0  0  0  0  0  0  0  0  0  0
  122.2247  106.6195  109.4618 H   0  0  0  0  0  0  0  0  0  0  0  0
  121.3530  105.6886  108.2189 H   0  0  0  0  0  0  0  0  0  0  0  0
  121.8802  104.8883  109.6984 H   0  0  0  0  0  0  0  0  0  0  0  0
  127.8565  103.8696  107.1376 H   0  0  0  0  0  0  0  0  0  0  0  0
  127.3710  104.6508  105.6567 H   0  0  0  0  0  0  0  0  0  0  0  0
  120.3899  105.6698  106.3058 H   0  0  0  0  0  0  0  0  0  0  0  0
  1  2  2  0  0  0  0
  1  4  1  0  0  0  0
  2  5  1  0  0  0  0
  3  5  2  0  0  0  0
  3  6  1  0  0  0  0
  4  6  2  0  0  0  0
  4 14  1  0  0  0  0
  5 16  1  0  0  0  0
  6 20  1  0  0  0  0
  7  8  1  0  0  0  0
  7 12  1  0  0  0  0
  8 12  1  0  0  0  0
  9 10  1  0  0  0  0
  9 13  1  0  0  0  0
 10 15  1  0  0  0  0
 11 13  1  0  0  0  0
 11 15  1  0  0  0  0
 12 15  1  0  0  0  0
 13 17  1  0  0  0  0
 17 20  1  0  0  0  0
 18 20  2  0  0  0  0
 19 20  2  0  0  0  0
  1 21  1  0  0  0  0
  2 22  1  0  0  0  0
  3 23  1  0  0  0  0
  7 24  1  0  0  0  0
  7 25  1  0  0  0  0
  8 26  1  0  0  0  0
  8 27  1  0  0  0  0
  9 28  1  0  0  0  0
  9 29  1  0  0  0  0
 10 30  1  0  0  0  0
 10 31  1  0  0  0  0
 11 32  1  0  0  0  0
 11 33  1  0  0  0  0
 12 34  1  0  0  0  0
 13 35  1  0  0  0  0
 14 36  1  0  0  0  0
 14 37  1  0  0  0  0
 14 38  1  0  0  0  0
 16 39  1  0  0  0  0
 16 40  1  0  0  0  0
 17 41  1  0  0  0  0
M  END
> <FRED Chemgauss4 score>
-6.439713

$$$$
C84405170	P132073028
  -OEChem-05182014473D

 28 28  0     1  0  0  0  0  0999 V2000
  116.2103  104.0623  105.7828 C   0  0  0  0  0  0  0  0  0  0  0  0
  118.6887  104.2255  106.1378 C   0  0  0  0  0  0  0  0  0  0  0  0
  122.1844  106.7734  105.6633 C   0  0  0  0  0  0  0  0  0  0  0  0
  124.6263  106.5929  106.0733 C   0  0  0  0  0  0  0  0  0  0  0  0
  116.1604  105.5442  105.5001 C   0  0  0  0  0  0  0  0  0  0  0  0
  117.4674  106.0362  104.9028 C   0  0  0  0  0  0  0  0  0  0  0  0
  118.6103  105.7166  105.8580 C   0  0  2  0  0  0  0  0  0  0  0  0
  120.8872  106.3288  106.3078 C   0  0  0  0  0  0  0  0  0  0  0  0
  117.4695  103.5513  106.0814 N   0  0  0  0  0  0  0  0  0  0  0  0
  125.4938  106.0189  106.9865 N   0  0  0  0  0  0  0  0  0  0  0  0
  123.2906  106.3297  106.3929 N   0  0  0  0  0  0  0  0  0  0  0  0
  119.8772  106.1510  105.2754 N   0  0  0  0  0  0  0  0  0  0  0  0
  115.1888  103.3761  105.7965 O   0  0  0  0  0  0  0  0  0  0  0  0
  119.7381  103.6588  106.4432 O   0  0  0  0  0  0  0  0  0  0  0  0
  122.2392  107.4547  104.6427 O   0  0  0  0  0  0  0  0  0  0  0  0
  125.0104  107.2500  105.1077 O   0  0  0  0  0  0  0  0  0  0  0  0
  115.3406  105.7370  104.7997 H   0  0  0  0  0  0  0  0  0  0  0  0
  115.9386  106.0638  106.4388 H   0  0  0  0  0  0  0  0  0  0  0  0
  117.6303  105.5501  103.9314 H   0  0  0  0  0  0  0  0  0  0  0  0
  117.4049  107.1160  104.7221 H   0  0  0  0  0  0  0  0  0  0  0  0
  118.4550  106.2293  106.8185 H   0  0  0  0  0  0  0  0  0  0  0  0
  121.0434  105.3814  106.8333 H   0  0  0  0  0  0  0  0  0  0  0  0
  120.5686  107.0877  107.0292 H   0  0  0  0  0  0  0  0  0  0  0  0
  117.5056  102.5563  106.2858 H   0  0  0  0  0  0  0  0  0  0  0  0
  125.1133  105.4883  107.7630 H   0  0  0  0  0  0  0  0  0  0  0  0
  126.4999  106.1147  106.8999 H   0  0  0  0  0  0  0  0  0  0  0  0
  123.1098  105.7708  107.2226 H   0  0  0  0  0  0  0  0  0  0  0  0
  119.7328  107.0335  104.7879 H   0  0  0  0  0  0  0  0  0  0  0  0
  1  5  1  0  0  0  0
  1  9  1  0  0  0  0
  1 13  2  0  0  0  0
  2  7  1  0  0  0  0
  2  9  1  0  0  0  0
  2 14  2  0  0  0  0
  3  8  1  0  0  0  0
  3 11  1  0  0  0  0
  3 15  2  0  0  0  0
  4 10  1  0  0  0  0
  4 11  1  0  0  0  0
  4 16  2  0  0  0  0
  5  6  1  0  0  0  0
  6  7  1  0  0  0  0
  7 12  1  0  0  0  0
  8 12  1  0  0  0  0
  5 17  1  0  0  0  0
  5 18  1  0  0  0  0
  6 19  1  0  0  0  0
  6 20  1  0  0  0  0
  7 21  1  0  0  0  0
  8 22  1  0  0  0  0
  8 23  1  0  0  0  0
  9 24  1  0  0  0  0
 10 25  1  0  0  0  0
 10 26  1  0  0  0  0
 11 27  1  0  0  0  0
 12 28  1  0  0  0  0
M  END
> <FRED Chemgauss4 score>
-6.439079

$$$$
C84472387	P153165800
  -OEChem-05182014473D

 45 46  0     1  0  0  0  0  0999 V2000
  119.5901  103.9344  102.9693 C   0  0  0  0  0  0  0  0  0  0  0  0
  119.1405  104.2295  104.4001 C   0  0  0  0  0  0  0  0  0  0  0  0
  120.2215  105.2221  102.4484 C   0  0  0  0  0  0  0  0  0  0  0  0
  119.5287  105.6789  104.6774 C   0  0  0  0  0  0  0  0  0  0  0  0
  126.1104  105.7433  107.4894 C   0  0  0  0  0  0  0  0  0  0  0  0
  124.3779  103.9281  107.8257 C   0  0  0  0  0  0  0  0  0  0  0  0
  120.6609  105.9817  103.6983 C   0  0  0  0  0  0  0  0  0  0  0  0
  125.4784  104.7677  108.4956 C   0  0  1  0  0  0  0  0  0  0  0  0
  125.0788  106.6488  106.7901 C   0  0  1  0  0  0  0  0  0  0  0  0
  123.2973  104.7850  107.1461 C   0  0  2  0  0  0  0  0  0  0  0  0
  123.9584  105.7826  106.1763 C   0  0  1  0  0  0  0  0  0  0  0  0
  126.5493  103.8575  109.0985 C   0  0  0  0  0  0  0  0  0  0  0  0
  124.6119  107.7649  107.7313 C   0  0  0  0  0  0  0  0  0  0  0  0
  122.0174  105.5092  104.2172 C   0  0  0  0  0  0  0  0  0  0  0  0
  122.4670  105.4289  108.1646 N   0  0  0  0  0  0  0  0  0  0  0  0
  123.5158  107.6425  104.4075 O   0  0  0  0  0  0  0  0  0  0  0  0
  121.7797  107.2097  106.1880 O   0  0  0  0  0  0  0  0  0  0  0  0
  122.7781  106.7302  105.2557 S   0  0  0  0  0  0  0  0  0  0  0  0
  120.2982  103.1001  102.9285 H   0  0  0  0  0  0  0  0  0  0  0  0
  118.7235  103.6587  102.3568 H   0  0  0  0  0  0  0  0  0  0  0  0
  118.0541  104.1041  104.4802 H   0  0  0  0  0  0  0  0  0  0  0  0
  119.6022  103.5481  105.1224 H   0  0  0  0  0  0  0  0  0  0  0  0
  121.0881  104.9788  101.8150 H   0  0  0  0  0  0  0  0  0  0  0  0
  119.5205  105.8029  101.8339 H   0  0  0  0  0  0  0  0  0  0  0  0
  118.6768  106.3619  104.5530 H   0  0  0  0  0  0  0  0  0  0  0  0
  119.8757  105.7765  105.7180 H   0  0  0  0  0  0  0  0  0  0  0  0
  126.8448  106.3635  108.0166 H   0  0  0  0  0  0  0  0  0  0  0  0
  126.6766  105.1807  106.7373 H   0  0  0  0  0  0  0  0  0  0  0  0
  124.8333  103.2479  107.0936 H   0  0  0  0  0  0  0  0  0  0  0  0
  123.9169  103.2843  108.5864 H   0  0  0  0  0  0  0  0  0  0  0  0
  120.7046  107.0460  103.4939 H   0  0  0  0  0  0  0  0  0  0  0  0
  125.0407  105.3336  109.3006 H   0  0  0  0  0  0  0  0  0  0  0  0
  125.5941  107.1398  105.9559 H   0  0  0  0  0  0  0  0  0  0  0  0
  122.6548  104.1255  106.5683 H   0  0  0  0  0  0  0  0  0  0  0  0
  124.4480  105.1596  105.3478 H   0  0  0  0  0  0  0  0  0  0  0  0
  127.0133  103.2697  108.3106 H   0  0  0  0  0  0  0  0  0  0  0  0
  126.0928  103.1901  109.8251 H   0  0  0  0  0  0  0  0  0  0  0  0
  127.3066  104.4628  109.5905 H   0  0  0  0  0  0  0  0  0  0  0  0
  124.0908  107.3321  108.5824 H   0  0  0  0  0  0  0  0  0  0  0  0
  123.9381  108.4337  107.2003 H   0  0  0  0  0  0  0  0  0  0  0  0
  125.4720  108.3287  108.0858 H   0  0  0  0  0  0  0  0  0  0  0  0
  122.7065  105.3145  103.3907 H   0  0  0  0  0  0  0  0  0  0  0  0
  121.9129  104.5986  104.8134 H   0  0  0  0  0  0  0  0  0  0  0  0
  122.2931  104.9295  109.0080 H   0  0  0  0  0  0  0  0  0  0  0  0
  121.9479  106.2363  107.9003 H   0  0  0  0  0  0  0  0  0  0  0  0
  1  2  1  0  0  0  0
  1  3  1  0  0  0  0
  2  4  1  0  0  0  0
  3  7  1  0  0  0  0
  4  7  1  0  0  0  0
  5  8  1  0  0  0  0
  5  9  1  0  0  0  0
  6  8  1  0  0  0  0
  6 10  1  0  0  0  0
  7 14  1  0  0  0  0
  8 12  1  0  0  0  0
  9 11  1  0  0  0  0
  9 13  1  0  0  0  0
 10 11  1  0  0  0  0
 10 15  1  0  0  0  0
 11 18  1  0  0  0  0
 14 18  1  0  0  0  0
 16 18  2  0  0  0  0
 17 18  2  0  0  0  0
  1 19  1  0  0  0  0
  1 20  1  0  0  0  0
  2 21  1  0  0  0  0
  2 22  1  0  0  0  0
  3 23  1  0  0  0  0
  3 24  1  0  0  0  0
  4 25  1  0  0  0  0
  4 26  1  0  0  0  0
  5 27  1  0  0  0  0
  5 28  1  0  0  0  0
  6 29  1  0  0  0  0
  6 30  1  0  0  0  0
  7 31  1  0  0  0  0
  8 32  1  0  0  0  0
  9 33  1  0  0  0  0
 10 34  1  0  0  0  0
 11 35  1  0  0  0  0
 12 36  1  0  0  0  0
 12 37  1  0  0  0  0
 12 38  1  0  0  0  0
 13 39  1  0  0  0  0
 13 40  1  0  0  0  0
 13 41  1  0  0  0  0
 14 42  1  0  0  0  0
 14 43  1  0  0  0  0
 15 44  1  0  0  0  0
 15 45  1  0  0  0  0
M  END
> <FRED Chemgauss4 score>
-6.438248

$$$$
C85187277	P133297783
  -OEChem-05182014473D

 27 27  0     1  0  0  0  0  0999 V2000
  123.2946  108.3212  108.5132 C   0  0  0  0  0  0  0  0  0  0  0  0
  123.2024  106.3813  109.3842 C   0  0  0  0  0  0  0  0  0  0  0  0
  123.5950  107.4469  107.4955 C   0  0  0  0  0  0  0  0  0  0  0  0
  125.3794  103.0425  107.0531 C   0  0  0  0  0  0  0  0  0  0  0  0
  125.1450  104.3709  107.7533 C   0  0  0  0  0  0  0  0  0  0  0  0
  123.7677  104.9399  107.4200 C   0  0  0  0  0  0  0  0  0  0  0  0
  125.3146  107.1312  105.6655 C   0  0  0  0  0  0  0  0  0  0  0  0
  123.9339  107.6775  106.0386 C   0  0  1  0  0  0  0  0  0  0  0  0
  123.0515  107.6516  109.6863 N   0  0  0  0  0  0  0  0  0  0  0  0
  123.5325  106.2080  108.0687 N   0  0  0  0  0  0  0  0  0  0  0  0
  122.9132  107.1167  105.1792 N   0  0  0  0  0  0  0  0  0  0  0  0
  125.7778  107.7894  104.4909 O   0  0  0  0  0  0  0  0  0  0  0  0
  123.2404  109.3993  108.4634 H   0  0  0  0  0  0  0  0  0  0  0  0
  123.0871  105.5517  110.0683 H   0  0  0  0  0  0  0  0  0  0  0  0
  125.2887  103.1501  105.9676 H   0  0  0  0  0  0  0  0  0  0  0  0
  124.6424  102.3040  107.3842 H   0  0  0  0  0  0  0  0  0  0  0  0
  126.3769  102.6514  107.2778 H   0  0  0  0  0  0  0  0  0  0  0  0
  125.2425  104.2304  108.8365 H   0  0  0  0  0  0  0  0  0  0  0  0
  125.9274  105.0794  107.4557 H   0  0  0  0  0  0  0  0  0  0  0  0
  122.9722  104.2531  107.7330 H   0  0  0  0  0  0  0  0  0  0  0  0
  123.6559  105.0926  106.3400 H   0  0  0  0  0  0  0  0  0  0  0  0
  126.0407  107.3258  106.4625 H   0  0  0  0  0  0  0  0  0  0  0  0
  125.2896  106.0538  105.4688 H   0  0  0  0  0  0  0  0  0  0  0  0
  123.9191  108.7541  105.8264 H   0  0  0  0  0  0  0  0  0  0  0  0
  123.1467  106.9077  104.2263 H   0  0  0  0  0  0  0  0  0  0  0  0
  121.9585  107.1397  105.4865 H   0  0  0  0  0  0  0  0  0  0  0  0
  126.6505  107.4164  104.2897 H   0  0  0  0  0  0  0  0  0  0  0  0
  1  3  2  0  0  0  0
  1  9  1  0  0  0  0
  2  9  2  0  0  0  0
  2 10  1  0  0  0  0
  3  8  1  0  0  0  0
  3 10  1  0  0  0  0
  4  5  1  0  0  0  0
  5  6  1  0  0  0  0
  6 10  1  0  0  0  0
  7  8  1  0  0  0  0
  7 12  1  0  0  0  0
  8 11  1  0  0  0  0
  1 13  1  0  0  0  0
  2 14  1  0  0  0  0
  4 15  1  0  0  0  0
  4 16  1  0  0  0  0
  4 17  1  0  0  0  0
  5 18  1  0  0  0  0
  5 19  1  0  0  0  0
  6 20  1  0  0  0  0
  6 21  1  0  0  0  0
  7 22  1  0  0  0  0
  7 23  1  0  0  0  0
  8 24  1  0  0  0  0
 11 25  1  0  0  0  0
 11 26  1  0  0  0  0
 12 27  1  0  0  0  0
M  END
> <FRED Chemgauss4 score>
-6.435563

$$$$
C69638109	P107234400
  -OEChem-05182014473D

 22 22  0     1  0  0  0  0  0999 V2000
  122.8972  104.8417  106.0778 C   0  0  0  0  0  0  0  0  0  0  0  0
  121.5971  104.4769  105.7933 C   0  0  0  0  0  0  0  0  0  0  0  0
  121.1760  106.5100  104.8678 C   0  0  0  0  0  0  0  0  0  0  0  0
  123.2551  106.1196  105.6997 C   0  0  0  0  0  0  0  0  0  0  0  0
  124.3969  106.4454  108.5285 C   0  0  0  0  0  0  0  0  0  0  0  0
  124.6629  106.6113  105.9703 C   0  0  2  0  0  0  0  0  0  0  0  0
  124.7951  107.3153  107.3368 C   0  0  1  0  0  0  0  0  0  0  0  0
  120.7063  105.2889  105.1871 N   0  0  0  0  0  0  0  0  0  0  0  0
  122.4168  106.9836  105.0904 N   0  0  0  0  0  0  0  0  0  0  0  0
  123.9977  108.5243  107.3342 N   0  0  0  0  0  0  0  0  0  0  0  0
  125.1027  107.4728  104.9206 O   0  0  0  0  0  0  0  0  0  0  0  0
  123.5842  104.1622  106.5657 H   0  0  0  0  0  0  0  0  0  0  0  0
  121.2239  103.4919  106.0528 H   0  0  0  0  0  0  0  0  0  0  0  0
  120.4813  107.1824  104.3797 H   0  0  0  0  0  0  0  0  0  0  0  0
  123.3692  106.0829  108.4347 H   0  0  0  0  0  0  0  0  0  0  0  0
  124.4607  107.0199  109.4597 H   0  0  0  0  0  0  0  0  0  0  0  0
  125.0601  105.5807  108.6379 H   0  0  0  0  0  0  0  0  0  0  0  0
  125.3290  105.7386  105.9393 H   0  0  0  0  0  0  0  0  0  0  0  0
  125.8294  107.6501  107.4817 H   0  0  0  0  0  0  0  0  0  0  0  0
  123.9181  109.0463  106.4819 H   0  0  0  0  0  0  0  0  0  0  0  0
  123.7173  108.9175  108.2130 H   0  0  0  0  0  0  0  0  0  0  0  0
  126.0020  107.7501  105.1524 H   0  0  0  0  0  0  0  0  0  0  0  0
  1  2  2  0  0  0  0
  1  4  1  0  0  0  0
  2  8  1  0  0  0  0
  3  8  2  0  0  0  0
  3  9  1  0  0  0  0
  4  6  1  0  0  0  0
  4  9  2  0  0  0  0
  5  7  1  0  0  0  0
  6  7  1  0  0  0  0
  6 11  1  0  0  0  0
  7 10  1  0  0  0  0
  1 12  1  0  0  0  0
  2 13  1  0  0  0  0
  3 14  1  0  0  0  0
  5 15  1  0  0  0  0
  5 16  1  0  0  0  0
  5 17  1  0  0  0  0
  6 18  1  0  0  0  0
  7 19  1  0  0  0  0
 10 20  1  0  0  0  0
 10 21  1  0  0  0  0
 11 22  1  0  0  0  0
M  END
> <FRED Chemgauss4 score>
-6.434408

$$$$
C48630515	P72697623
  -OEChem-05182014473D

 26 27  0     1  0  0  0  0  0999 V2000
  125.3019  104.3570  109.0672 C   0  0  0  0  0  0  0  0  0  0  0  0
  126.7394  105.8247  108.2696 C   0  0  0  0  0  0  0  0  0  0  0  0
  125.2790  104.3877  107.6927 C   0  0  0  0  0  0  0  0  0  0  0  0
  123.2328  105.6256  105.8106 C   0  0  0  0  0  0  0  0  0  0  0  0
  124.0074  107.5357  105.3117 C   0  0  0  0  0  0  0  0  0  0  0  0
  124.8772  108.7079  105.2431 C   0  0  0  0  0  0  0  0  0  0  0  0
  124.4245  103.5693  106.7530 C   0  0  0  0  0  0  0  0  0  0  0  0
  123.0823  104.2461  106.4170 C   0  0  1  0  0  0  0  0  0  0  0  0
  122.3332  106.1889  104.9805 N   0  5  0  0  0  0  0  0  0  0  0  0
  126.1763  105.3032  107.2024 N   0  0  0  0  0  0  0  0  0  0  0  0
  124.2755  106.4375  106.0307 N   0  0  0  0  0  0  0  0  0  0  0  0
  122.8349  107.4249  104.6570 N   0  0  0  0  0  0  0  0  0  0  0  0
  126.2425  105.2825  109.4222 N   0  0  0  0  0  0  0  0  0  0  0  0
  122.2595  104.2688  107.6704 N   0  3  0  0  0  0  0  0  0  0  0  0
  124.7562  103.7826  109.8019 H   0  0  0  0  0  0  0  0  0  0  0  0
  127.5036  106.5891  108.2773 H   0  0  0  0  0  0  0  0  0  0  0  0
  125.6106  108.6291  104.4166 H   0  0  0  0  0  0  0  0  0  0  0  0
  124.3146  109.6506  105.0862 H   0  0  0  0  0  0  0  0  0  0  0  0
  125.4574  108.8661  106.1751 H   0  0  0  0  0  0  0  0  0  0  0  0
  124.2629  102.5694  107.1771 H   0  0  0  0  0  0  0  0  0  0  0  0
  125.0021  103.4051  105.8329 H   0  0  0  0  0  0  0  0  0  0  0  0
  122.5091  103.6069  105.7343 H   0  0  0  0  0  0  0  0  0  0  0  0
  126.5197  105.5230  110.3645 H   0  0  0  0  0  0  0  0  0  0  0  0
  122.0896  105.2315  107.9614 H   0  0  0  0  0  0  0  0  0  0  0  0
  122.7493  103.7800  108.4200 H   0  0  0  0  0  0  0  0  0  0  0  0
  121.3625  103.8104  107.5097 H   0  0  0  0  0  0  0  0  0  0  0  0
  1  3  2  0  0  0  0
  1 13  1  0  0  0  0
  2 10  2  0  0  0  0
  2 13  1  0  0  0  0
  3  7  1  0  0  0  0
  3 10  1  0  0  0  0
  4  8  1  0  0  0  0
  4  9  1  0  0  0  0
  4 11  2  0  0  0  0
  5  6  1  0  0  0  0
  5 11  1  0  0  0  0
  5 12  2  0  0  0  0
  7  8  1  0  0  0  0
  8 14  1  0  0  0  0
  9 12  1  0  0  0  0
  1 15  1  0  0  0  0
  2 16  1  0  0  0  0
  6 17  1  0  0  0  0
  6 18  1  0  0  0  0
  6 19  1  0  0  0  0
  7 20  1  0  0  0  0
  7 21  1  0  0  0  0
  8 22  1  0  0  0  0
 13 23  1  0  0  0  0
 14 24  1  0  0  0  0
 14 25  1  0  0  0  0
 14 26  1  0  0  0  0
M  CHG  2   9  -1  14   1
M  END
> <FRED Chemgauss4 score>
-6.432868

$$$$
C80590635	P125852228
  -OEChem-05182014473D

 29 30  0     0  0  0  0  0  0999 V2000
  119.2702  104.7134  105.2171 C   0  0  0  0  0  0  0  0  0  0  0  0
  119.7839  105.8754  105.7820 C   0  0  0  0  0  0  0  0  0  0  0  0
  120.0570  103.5733  105.2505 C   0  0  0  0  0  0  0  0  0  0  0  0
  125.9944  105.6665  110.2766 C   0  0  0  0  0  0  0  0  0  0  0  0
  121.0507  105.8621  106.3550 C   0  0  0  0  0  0  0  0  0  0  0  0
  121.7577  104.6706  106.3377 C   0  0  0  0  0  0  0  0  0  0  0  0
  125.5892  104.6256  108.5132 C   0  0  0  0  0  0  0  0  0  0  0  0
  121.5820  107.0857  106.9395 C   0  0  0  0  0  0  0  0  0  0  0  0
  125.2013  103.6002  107.4764 C   0  0  0  0  0  0  0  0  0  0  0  0
  123.6896  103.4430  107.3307 C   0  0  0  0  0  0  0  0  0  0  0  0
  121.2919  103.5218  105.7982 N   0  0  0  0  0  0  0  0  0  0  0  0
  125.5520  104.4599  109.8150 N   0  0  0  0  0  0  0  0  0  0  0  0
  126.0349  105.8775  108.2238 N   0  0  0  0  0  0  0  0  0  0  0  0
  126.3030  106.5683  109.3423 N   0  0  0  0  0  0  0  0  0  0  0  0
  121.3228  107.3237  108.2852 N   0  0  0  0  0  0  0  0  0  0  0  0
  123.0512  104.6496  106.9176 N   0  0  0  0  0  0  0  0  0  0  0  0
  122.2298  107.8987  106.2590 O   0  0  0  0  0  0  0  0  0  0  0  0
  118.2858  104.7011  104.7635 H   0  0  0  0  0  0  0  0  0  0  0  0
  119.1884  106.7845  105.7694 H   0  0  0  0  0  0  0  0  0  0  0  0
  119.7021  102.6412  104.8233 H   0  0  0  0  0  0  0  0  0  0  0  0
  126.0894  105.8797  111.3333 H   0  0  0  0  0  0  0  0  0  0  0  0
  125.6405  102.6353  107.7597 H   0  0  0  0  0  0  0  0  0  0  0  0
  125.6485  103.8630  106.5092 H   0  0  0  0  0  0  0  0  0  0  0  0
  123.4647  102.6900  106.5688 H   0  0  0  0  0  0  0  0  0  0  0  0
  123.2239  103.1277  108.2702 H   0  0  0  0  0  0  0  0  0  0  0  0
  126.6471  107.5245  109.3347 H   0  0  0  0  0  0  0  0  0  0  0  0
  120.7797  106.6491  108.8130 H   0  0  0  0  0  0  0  0  0  0  0  0
  121.6657  108.1582  108.7499 H   0  0  0  0  0  0  0  0  0  0  0  0
  123.5058  105.5324  107.0286 H   0  0  0  0  0  0  0  0  0  0  0  0
  1  2  1  0  0  0  0
  1  3  2  0  0  0  0
  2  5  2  0  0  0  0
  3 11  1  0  0  0  0
  4 12  2  0  0  0  0
  4 14  1  0  0  0  0
  5  6  1  0  0  0  0
  5  8  1  0  0  0  0
  6 11  2  0  0  0  0
  6 16  1  0  0  0  0
  7  9  1  0  0  0  0
  7 12  1  0  0  0  0
  7 13  2  0  0  0  0
  8 15  1  0  0  0  0
  8 17  2  0  0  0  0
  9 10  1  0  0  0  0
 10 16  1  0  0  0  0
 13 14  1  0  0  0  0
  1 18  1  0  0  0  0
  2 19  1  0  0  0  0
  3 20  1  0  0  0  0
  4 21  1  0  0  0  0
  9 22  1  0  0  0  0
  9 23  1  0  0  0  0
 10 24  1  0  0  0  0
 10 25  1  0  0  0  0
 14 26  1  0  0  0  0
 15 27  1  0  0  0  0
 15 28  1  0  0  0  0
 16 29  1  0  0  0  0
M  END
> <FRED Chemgauss4 score>
-6.427296

$$$$
C82872757	P129533931
  -OEChem-05182014473D

 29 29  0     1  0  0  0  0  0999 V2000
  121.6199  104.3107  106.6558 C   0  0  0  0  0  0  0  0  0  0  0  0
  121.0177  104.3230  105.4026 C   0  0  0  0  0  0  0  0  0  0  0  0
  122.3742  105.4032  107.0692 C   0  0  0  0  0  0  0  0  0  0  0  0
  121.1988  105.4429  104.6070 C   0  0  0  0  0  0  0  0  0  0  0  0
  122.4947  106.4746  106.1989 C   0  0  0  0  0  0  0  0  0  0  0  0
  120.5652  105.4905  103.2566 C   0  0  0  0  0  0  0  0  0  0  0  0
  123.2901  107.6765  106.5909 C   0  0  0  0  0  0  0  0  0  0  0  0
  124.5618  105.5514  108.3810 C   0  0  0  0  0  0  0  0  0  0  0  0
  125.2566  104.4279  107.6187 C   0  0  0  0  0  0  0  0  0  0  0  0
  123.0335  105.3952  108.4324 C   0  0  1  0  0  0  0  0  0  0  0  0
  121.9244  106.5228  104.9742 N   0  0  0  0  0  0  0  0  0  0  0  0
  122.4641  106.4246  109.2753 N   0  0  0  0  0  0  0  0  0  0  0  0
  126.6598  104.6561  107.6482 O   0  0  0  0  0  0  0  0  0  0  0  0
  121.4959  103.4467  107.3026 H   0  0  0  0  0  0  0  0  0  0  0  0
  120.4279  103.4763  105.0677 H   0  0  0  0  0  0  0  0  0  0  0  0
  119.5626  105.9297  103.3215 H   0  0  0  0  0  0  0  0  0  0  0  0
  121.1634  106.0888  102.5578 H   0  0  0  0  0  0  0  0  0  0  0  0
  120.4787  104.4862  102.8226 H   0  0  0  0  0  0  0  0  0  0  0  0
  124.3354  107.5568  106.2837 H   0  0  0  0  0  0  0  0  0  0  0  0
  122.8904  108.5854  106.1246 H   0  0  0  0  0  0  0  0  0  0  0  0
  123.2602  107.8347  107.6761 H   0  0  0  0  0  0  0  0  0  0  0  0
  124.8147  106.5066  107.9001 H   0  0  0  0  0  0  0  0  0  0  0  0
  124.9891  105.6262  109.3897 H   0  0  0  0  0  0  0  0  0  0  0  0
  125.0600  103.4534  108.0755 H   0  0  0  0  0  0  0  0  0  0  0  0
  124.9307  104.4060  106.5740 H   0  0  0  0  0  0  0  0  0  0  0  0
  122.8039  104.4512  108.9426 H   0  0  0  0  0  0  0  0  0  0  0  0
  122.9936  106.7509  110.0624 H   0  0  0  0  0  0  0  0  0  0  0  0
  121.4889  106.6404  109.1807 H   0  0  0  0  0  0  0  0  0  0  0  0
  127.0719  103.9273  107.1570 H   0  0  0  0  0  0  0  0  0  0  0  0
  1  2  2  0  0  0  0
  1  3  1  0  0  0  0
  2  4  1  0  0  0  0
  3  5  2  0  0  0  0
  3 10  1  0  0  0  0
  4  6  1  0  0  0  0
  4 11  2  0  0  0  0
  5  7  1  0  0  0  0
  5 11  1  0  0  0  0
  8  9  1  0  0  0  0
  8 10  1  0  0  0  0
  9 13  1  0  0  0  0
 10 12  1  0  0  0  0
  1 14  1  0  0  0  0
  2 15  1  0  0  0  0
  6 16  1  0  0  0  0
  6 17  1  0  0  0  0
  6 18  1  0  0  0  0
  7 19  1  0  0  0  0
  7 20  1  0  0  0  0
  7 21  1  0  0  0  0
  8 22  1  0  0  0  0
  8 23  1  0  0  0  0
  9 24  1  0  0  0  0
  9 25  1  0  0  0  0
 10 26  1  0  0  0  0
 12 27  1  0  0  0  0
 12 28  1  0  0  0  0
 13 29  1  0  0  0  0
M  END
> <FRED Chemgauss4 score>
-6.426485

$$$$
C35679899	P52962559
  -OEChem-05182014473D

 27 28  0     1  0  0  0  0  0999 V2000
  120.9450  107.0474  107.6552 C   0  0  0  0  0  0  0  0  0  0  0  0
  119.1819  105.9959  106.4022 C   0  0  0  0  0  0  0  0  0  0  0  0
  120.0269  108.0142  108.0325 C   0  0  0  0  0  0  0  0  0  0  0  0
  118.3427  107.0096  106.8357 C   0  0  0  0  0  0  0  0  0  0  0  0
  120.5064  106.0224  106.8244 C   0  0  0  0  0  0  0  0  0  0  0  0
  123.2359  106.4980  105.4794 C   0  0  0  0  0  0  0  0  0  0  0  0
  124.7428  106.5642  105.5877 C   0  0  0  0  0  0  0  0  0  0  0  0
  123.9176  104.7595  106.9283 C   0  0  0  0  0  0  0  0  0  0  0  0
  125.0269  105.7999  106.8822 C   0  0  1  0  0  0  0  0  0  0  0  0
  121.4594  104.9490  106.3843 C   0  0  0  0  0  0  0  0  0  0  0  0
  118.7325  108.0217  107.6428 N   0  0  0  0  0  0  0  0  0  0  0  0
  122.8170  105.4386  106.2828 N   0  0  0  0  0  0  0  0  0  0  0  0
  126.3609  105.2267  106.9202 N   0  0  0  0  0  0  0  0  0  0  0  0
  122.5567  107.2241  104.7692 O   0  0  0  0  0  0  0  0  0  0  0  0
  121.9719  107.0972  108.0012 H   0  0  0  0  0  0  0  0  0  0  0  0
  118.8100  105.2095  105.7543 H   0  0  0  0  0  0  0  0  0  0  0  0
  120.3192  108.8355  108.6787 H   0  0  0  0  0  0  0  0  0  0  0  0
  117.3007  107.0342  106.5345 H   0  0  0  0  0  0  0  0  0  0  0  0
  125.1718  106.0754  104.7060 H   0  0  0  0  0  0  0  0  0  0  0  0
  125.0868  107.6006  105.6424 H   0  0  0  0  0  0  0  0  0  0  0  0
  124.1475  103.8595  106.3470 H   0  0  0  0  0  0  0  0  0  0  0  0
  123.6534  104.4814  107.9531 H   0  0  0  0  0  0  0  0  0  0  0  0
  124.9106  106.4887  107.7291 H   0  0  0  0  0  0  0  0  0  0  0  0
  121.4542  104.1138  107.0930 H   0  0  0  0  0  0  0  0  0  0  0  0
  121.1744  104.5473  105.4062 H   0  0  0  0  0  0  0  0  0  0  0  0
  126.5235  104.4356  107.5111 H   0  0  0  0  0  0  0  0  0  0  0  0
  127.1162  105.7498  106.5235 H   0  0  0  0  0  0  0  0  0  0  0  0
  1  3  1  0  0  0  0
  1  5  2  0  0  0  0
  2  4  2  0  0  0  0
  2  5  1  0  0  0  0
  3 11  2  0  0  0  0
  4 11  1  0  0  0  0
  5 10  1  0  0  0  0
  6  7  1  0  0  0  0
  6 12  1  0  0  0  0
  6 14  2  0  0  0  0
  7  9  1  0  0  0  0
  8  9  1  0  0  0  0
  8 12  1  0  0  0  0
  9 13  1  0  0  0  0
 10 12  1  0  0  0  0
  1 15  1  0  0  0  0
  2 16  1  0  0  0  0
  3 17  1  0  0  0  0
  4 18  1  0  0  0  0
  7 19  1  0  0  0  0
  7 20  1  0  0  0  0
  8 21  1  0  0  0  0
  8 22  1  0  0  0  0
  9 23  1  0  0  0  0
 10 24  1  0  0  0  0
 10 25  1  0  0  0  0
 13 26  1  0  0  0  0
 13 27  1  0  0  0  0
M  END
> <FRED Chemgauss4 score>
-6.420677

$$$$
C84991419	P133024252
  -OEChem-05182014473D

 27 27  0     1  0  0  0  0  0999 V2000
  122.1462  105.7364  105.1909 C   0  0  0  0  0  0  0  0  0  0  0  0
  122.3571  104.7394  106.1140 C   0  0  0  0  0  0  0  0  0  0  0  0
  123.4343  106.5832  106.6586 C   0  0  0  0  0  0  0  0  0  0  0  0
  125.6704  103.6754  107.0011 C   0  0  0  0  0  0  0  0  0  0  0  0
  124.4701  103.3652  107.8802 C   0  0  0  0  0  0  0  0  0  0  0  0
  123.6915  104.6326  108.2256 C   0  0  0  0  0  0  0  0  0  0  0  0
  125.7727  107.4623  106.9816 C   0  0  0  0  0  0  0  0  0  0  0  0
  124.3195  107.5096  107.4604 C   0  0  1  0  0  0  0  0  0  0  0  0
  122.8198  106.8815  105.5355 N   0  0  0  0  0  0  0  0  0  0  0  0
  123.1844  105.2966  107.0479 N   0  0  0  0  0  0  0  0  0  0  0  0
  125.8431  107.8588  105.5932 N   0  0  0  0  0  0  0  0  0  0  0  0
  123.8128  108.8387  107.3349 O   0  0  0  0  0  0  0  0  0  0  0  0
  121.5437  105.6879  104.2956 H   0  0  0  0  0  0  0  0  0  0  0  0
  122.0029  103.7204  106.1835 H   0  0  0  0  0  0  0  0  0  0  0  0
  126.3423  104.3868  107.4917 H   0  0  0  0  0  0  0  0  0  0  0  0
  125.3432  104.1149  106.0536 H   0  0  0  0  0  0  0  0  0  0  0  0
  126.2371  102.7661  106.7761 H   0  0  0  0  0  0  0  0  0  0  0  0
  123.8179  102.6518  107.3623 H   0  0  0  0  0  0  0  0  0  0  0  0
  124.8119  102.8712  108.7977 H   0  0  0  0  0  0  0  0  0  0  0  0
  124.3237  105.3479  108.7650 H   0  0  0  0  0  0  0  0  0  0  0  0
  122.8366  104.4049  108.8735 H   0  0  0  0  0  0  0  0  0  0  0  0
  126.1818  106.4505  107.0760 H   0  0  0  0  0  0  0  0  0  0  0  0
  126.4041  108.1393  107.5675 H   0  0  0  0  0  0  0  0  0  0  0  0
  124.2610  107.2479  108.5242 H   0  0  0  0  0  0  0  0  0  0  0  0
  125.1132  107.5664  104.9690 H   0  0  0  0  0  0  0  0  0  0  0  0
  126.7046  108.2353  105.2409 H   0  0  0  0  0  0  0  0  0  0  0  0
  123.8386  109.0531  106.3903 H   0  0  0  0  0  0  0  0  0  0  0  0
  1  2  2  0  0  0  0
  1  9  1  0  0  0  0
  2 10  1  0  0  0  0
  3  8  1  0  0  0  0
  3  9  2  0  0  0  0
  3 10  1  0  0  0  0
  4  5  1  0  0  0  0
  5  6  1  0  0  0  0
  6 10  1  0  0  0  0
  7  8  1  0  0  0  0
  7 11  1  0  0  0  0
  8 12  1  0  0  0  0
  1 13  1  0  0  0  0
  2 14  1  0  0  0  0
  4 15  1  0  0  0  0
  4 16  1  0  0  0  0
  4 17  1  0  0  0  0
  5 18  1  0  0  0  0
  5 19  1  0  0  0  0
  6 20  1  0  0  0  0
  6 21  1  0  0  0  0
  7 22  1  0  0  0  0
  7 23  1  0  0  0  0
  8 24  1  0  0  0  0
 11 25  1  0  0  0  0
 11 26  1  0  0  0  0
 12 27  1  0  0  0  0
M  END
> <FRED Chemgauss4 score>
-6.419400

$$$$
C36762383	P54642196
  -OEChem-05182014473D

 24 24  0     1  0  0  0  0  0999 V2000
  123.3473  106.4091  105.8226 C   0  0  0  0  0  0  0  0  0  0  0  0
  121.7871  105.0512  105.7873 C   0  0  0  0  0  0  0  0  0  0  0  0
  120.8325  103.9429  105.9246 C   0  0  0  0  0  0  0  0  0  0  0  0
  125.8741  104.9970  108.0183 C   0  0  0  0  0  0  0  0  0  0  0  0
  124.7962  105.9734  108.4632 C   0  0  0  0  0  0  0  0  0  0  0  0
  124.8559  107.2766  107.6599 C   0  0  0  0  0  0  0  0  0  0  0  0
  124.6861  107.0402  106.1502 C   0  0  2  0  0  0  0  0  0  0  0  0
  122.9779  105.1905  106.3130 N   0  0  0  0  0  0  0  0  0  0  0  0
  122.4533  107.0135  105.0344 N   0  0  0  0  0  0  0  0  0  0  0  0
  124.8227  108.2606  105.3897 N   0  0  0  0  0  0  0  0  0  0  0  0
  121.3965  106.0948  105.0097 O   0  0  0  0  0  0  0  0  0  0  0  0
  120.1540  104.0977  106.7826 H   0  0  0  0  0  0  0  0  0  0  0  0
  120.2020  103.8168  105.0247 H   0  0  0  0  0  0  0  0  0  0  0  0
  121.3366  102.9698  106.0747 H   0  0  0  0  0  0  0  0  0  0  0  0
  126.8704  105.4378  108.1243 H   0  0  0  0  0  0  0  0  0  0  0  0
  125.8396  104.0774  108.6111 H   0  0  0  0  0  0  0  0  0  0  0  0
  125.7314  104.7286  106.9669 H   0  0  0  0  0  0  0  0  0  0  0  0
  123.8158  105.4988  108.3432 H   0  0  0  0  0  0  0  0  0  0  0  0
  124.9257  106.1882  109.5304 H   0  0  0  0  0  0  0  0  0  0  0  0
  124.0626  107.9479  108.0145 H   0  0  0  0  0  0  0  0  0  0  0  0
  125.8100  107.7795  107.8647 H   0  0  0  0  0  0  0  0  0  0  0  0
  125.4959  106.3857  105.8043 H   0  0  0  0  0  0  0  0  0  0  0  0
  124.4237  108.3056  104.4690 H   0  0  0  0  0  0  0  0  0  0  0  0
  125.4765  108.9563  105.7026 H   0  0  0  0  0  0  0  0  0  0  0  0
  1  7  1  0  0  0  0
  1  8  1  0  0  0  0
  1  9  2  0  0  0  0
  2  3  1  0  0  0  0
  2  8  2  0  0  0  0
  2 11  1  0  0  0  0
  4  5  1  0  0  0  0
  5  6  1  0  0  0  0
  6  7  1  0  0  0  0
  7 10  1  0  0  0  0
  9 11  1  0  0  0  0
  3 12  1  0  0  0  0
  3 13  1  0  0  0  0
  3 14  1  0  0  0  0
  4 15  1  0  0  0  0
  4 16  1  0  0  0  0
  4 17  1  0  0  0  0
  5 18  1  0  0  0  0
  5 19  1  0  0  0  0
  6 20  1  0  0  0  0
  6 21  1  0  0  0  0
  7 22  1  0  0  0  0
 10 23  1  0  0  0  0
 10 24  1  0  0  0  0
M  END
> <FRED Chemgauss4 score>
-6.415953

$$$$
C42436697	P64186413
  -OEChem-05182014473D

 25 25  0     0  0  0  0  0  0999 V2000
  122.8313  105.8527  106.5521 C   0  0  0  0  0  0  0  0  0  0  0  0
  119.2846  103.6906  105.6187 C   0  0  0  0  0  0  0  0  0  0  0  0
  122.1584  105.0042  107.5487 C   0  0  0  0  0  0  0  0  0  0  0  0
  125.2115  105.5028  107.3860 C   0  0  0  0  0  0  0  0  0  0  0  0
  125.7345  106.5167  108.3977 C   0  0  0  0  0  0  0  0  0  0  0  0
  120.6900  104.6946  107.2123 C   0  0  0  0  0  0  0  0  0  0  0  0
  122.2826  106.5371  105.5749 N   0  0  0  0  0  0  0  0  0  0  0  0
  123.3251  107.1613  104.9279 N   0  0  0  0  0  0  0  0  0  0  0  0
  124.4865  106.8651  105.4984 N   0  0  0  0  0  0  0  0  0  0  0  0
  124.1752  106.0469  106.5133 N   0  0  0  0  0  0  0  0  0  0  0  0
  126.2932  107.6837  107.7703 N   0  0  0  0  0  0  0  0  0  0  0  0
  120.6262  103.9887  105.9796 O   0  0  0  0  0  0  0  0  0  0  0  0
  119.2735  103.1495  104.6694 H   0  0  0  0  0  0  0  0  0  0  0  0
  118.7158  104.6194  105.5276 H   0  0  0  0  0  0  0  0  0  0  0  0
  118.8375  103.0667  106.3963 H   0  0  0  0  0  0  0  0  0  0  0  0
  122.6936  104.0426  107.6787 H   0  0  0  0  0  0  0  0  0  0  0  0
  122.1793  105.4851  108.5463 H   0  0  0  0  0  0  0  0  0  0  0  0
  126.0278  105.1604  106.7386 H   0  0  0  0  0  0  0  0  0  0  0  0
  124.8022  104.6173  107.8867 H   0  0  0  0  0  0  0  0  0  0  0  0
  124.9170  106.8620  109.0380 H   0  0  0  0  0  0  0  0  0  0  0  0
  126.5112  106.0832  109.0359 H   0  0  0  0  0  0  0  0  0  0  0  0
  120.2395  104.0623  107.9842 H   0  0  0  0  0  0  0  0  0  0  0  0
  120.1023  105.6143  107.1233 H   0  0  0  0  0  0  0  0  0  0  0  0
  126.9751  108.2316  108.2705 H   0  0  0  0  0  0  0  0  0  0  0  0
  125.8568  108.0515  106.9398 H   0  0  0  0  0  0  0  0  0  0  0  0
  1  3  1  0  0  0  0
  1  7  2  0  0  0  0
  1 10  1  0  0  0  0
  2 12  1  0  0  0  0
  3  6  1  0  0  0  0
  4  5  1  0  0  0  0
  4 10  1  0  0  0  0
  5 11  1  0  0  0  0
  6 12  1  0  0  0  0
  7  8  1  0  0  0  0
  8  9  2  0  0  0  0
  9 10  1  0  0  0  0
  2 13  1  0  0  0  0
  2 14  1  0  0  0  0
  2 15  1  0  0  0  0
  3 16  1  0  0  0  0
  3 17  1  0  0  0  0
  4 18  1  0  0  0  0
  4 19  1  0  0  0  0
  5 20  1  0  0  0  0
  5 21  1  0  0  0  0
  6 22  1  0  0  0  0
  6 23  1  0  0  0  0
 11 24  1  0  0  0  0
 11 25  1  0  0  0  0
M  END
> <FRED Chemgauss4 score>
-6.408806

$$$$
C82471512	P128883647
  -OEChem-05182014473D

 28 28  0     0  0  0  0  0  0999 V2000
  124.6314  107.0483  105.7370 C   0  0  0  0  0  0  0  0  0  0  0  0
  123.1868  106.2963  107.2144 C   0  0  0  0  0  0  0  0  0  0  0  0
  124.5367  106.4011  106.9836 C   0  0  0  0  0  0  0  0  0  0  0  0
  125.5760  105.9361  107.8496 C   0  0  0  0  0  0  0  0  0  0  0  0
  120.0886  104.0994  105.6083 C   0  0  0  0  0  0  0  0  0  0  0  0
  120.7785  104.8699  104.4950 C   0  0  0  0  0  0  0  0  0  0  0  0
  120.6018  106.3866  104.5934 C   0  0  0  0  0  0  0  0  0  0  0  0
  121.0933  106.9997  105.9121 C   0  0  0  0  0  0  0  0  0  0  0  0
  123.4368  107.3343  105.2125 N   0  0  0  0  0  0  0  0  0  0  0  0
  122.5787  106.8646  106.1339 N   0  0  0  0  0  0  0  0  0  0  0  0
  125.2175  105.3140  109.0550 N   0  0  0  0  0  0  0  0  0  0  0  0
  120.4664  103.2077  107.7849 N   0  0  0  0  0  0  0  0  0  0  0  0
  120.9260  103.9198  106.6963 N   0  0  0  0  0  0  0  0  0  0  0  0
  126.7935  106.0801  107.5759 O   0  0  0  0  0  0  0  0  0  0  0  0
  118.9402  103.6727  105.5159 O   0  0  0  0  0  0  0  0  0  0  0  0
  125.5198  107.3233  105.1859 H   0  0  0  0  0  0  0  0  0  0  0  0
  122.6201  105.8748  108.0338 H   0  0  0  0  0  0  0  0  0  0  0  0
  120.3366  104.5249  103.5518 H   0  0  0  0  0  0  0  0  0  0  0  0
  121.8409  104.6047  104.4656 H   0  0  0  0  0  0  0  0  0  0  0  0
  121.1311  106.8523  103.7529 H   0  0  0  0  0  0  0  0  0  0  0  0
  119.5411  106.6382  104.4692 H   0  0  0  0  0  0  0  0  0  0  0  0
  120.5474  106.5681  106.7592 H   0  0  0  0  0  0  0  0  0  0  0  0
  120.8435  108.0689  105.9203 H   0  0  0  0  0  0  0  0  0  0  0  0
  124.2336  105.2114  109.2789 H   0  0  0  0  0  0  0  0  0  0  0  0
  125.9079  104.9632  109.7109 H   0  0  0  0  0  0  0  0  0  0  0  0
  121.2678  102.7133  108.1749 H   0  0  0  0  0  0  0  0  0  0  0  0
  119.8401  102.4885  107.4250 H   0  0  0  0  0  0  0  0  0  0  0  0
  121.8646  104.3065  106.6930 H   0  0  0  0  0  0  0  0  0  0  0  0
  1  3  1  0  0  0  0
  1  9  2  0  0  0  0
  2  3  2  0  0  0  0
  2 10  1  0  0  0  0
  3  4  1  0  0  0  0
  4 11  1  0  0  0  0
  4 14  2  0  0  0  0
  5  6  1  0  0  0  0
  5 13  1  0  0  0  0
  5 15  2  0  0  0  0
  6  7  1  0  0  0  0
  7  8  1  0  0  0  0
  8 10  1  0  0  0  0
  9 10  1  0  0  0  0
 12 13  1  0  0  0  0
  1 16  1  0  0  0  0
  2 17  1  0  0  0  0
  6 18  1  0  0  0  0
  6 19  1  0  0  0  0
  7 20  1  0  0  0  0
  7 21  1  0  0  0  0
  8 22  1  0  0  0  0
  8 23  1  0  0  0  0
 11 24  1  0  0  0  0
 11 25  1  0  0  0  0
 12 26  1  0  0  0  0
 12 27  1  0  0  0  0
 13 28  1  0  0  0  0
M  END
> <FRED Chemgauss4 score>
-6.406716

$$$$
C09915899	P111277742
  -OEChem-05182014473D

 19 19  0     1  0  0  0  0  0999 V2000
  125.4104  107.2391  107.2737 C   0  0  0  0  0  0  0  0  0  0  0  0
  124.7494  107.3363  106.1160 C   0  0  0  0  0  0  0  0  0  0  0  0
  123.3221  106.9079  106.1082 C   0  0  0  0  0  0  0  0  0  0  0  0
  122.7945  106.1763  107.3351 C   0  0  0  0  0  0  0  0  0  0  0  0
  123.4353  106.6506  108.6459 C   0  0  2  0  0  0  0  0  0  0  0  0
  122.8148  107.9553  109.1436 C   0  0  0  0  0  0  0  0  0  0  0  0
  124.8641  106.8341  108.4612 N   0  0  0  0  0  0  0  0  0  0  0  0
  122.6266  107.0775  105.1091 O   0  0  0  0  0  0  0  0  0  0  0  0
  125.3347  107.7938  104.9615 O   0  0  0  0  0  0  0  0  0  0  0  0
  121.4294  107.7469  109.3547 O   0  0  0  0  0  0  0  0  0  0  0  0
  126.4689  107.4638  107.3497 H   0  0  0  0  0  0  0  0  0  0  0  0
  121.7035  106.3247  107.3518 H   0  0  0  0  0  0  0  0  0  0  0  0
  122.9797  105.0996  107.2072 H   0  0  0  0  0  0  0  0  0  0  0  0
  123.2910  105.8767  109.4153 H   0  0  0  0  0  0  0  0  0  0  0  0
  122.9498  108.7420  108.4000 H   0  0  0  0  0  0  0  0  0  0  0  0
  123.2794  108.2569  110.0835 H   0  0  0  0  0  0  0  0  0  0  0  0
  125.5055  106.4204  109.1391 H   0  0  0  0  0  0  0  0  0  0  0  0
  124.6956  107.7889  104.2385 H   0  0  0  0  0  0  0  0  0  0  0  0
  121.0598  108.5890  109.6699 H   0  0  0  0  0  0  0  0  0  0  0  0
  1  2  2  0  0  0  0
  1  7  1  0  0  0  0
  2  3  1  0  0  0  0
  2  9  1  0  0  0  0
  3  4  1  0  0  0  0
  3  8  2  0  0  0  0
  4  5  1  0  0  0  0
  5  6  1  0  0  0  0
  5  7  1  0  0  0  0
  6 10  1  0  0  0  0
  1 11  1  0  0  0  0
  4 12  1  0  0  0  0
  4 13  1  0  0  0  0
  5 14  1  0  0  0  0
  6 15  1  0  0  0  0
  6 16  1  0  0  0  0
  7 17  1  0  0  0  0
  9 18  1  0  0  0  0
 10 19  1  0  0  0  0
M  END
> <FRED Chemgauss4 score>
-6.406242

$$$$
C88001846	P137647841
  -OEChem-05182014473D

 30 31  0     1  0  0  0  0  0999 V2000
  121.9267  105.2078  106.3373 C   0  0  0  0  0  0  0  0  0  0  0  0
  123.6843  106.3516  105.7790 C   0  0  0  0  0  0  0  0  0  0  0  0
  125.3245  103.6729  106.7607 C   0  0  0  0  0  0  0  0  0  0  0  0
  124.1129  102.8836  107.1462 C   0  0  0  0  0  0  0  0  0  0  0  0
  124.1341  104.3779  107.3677 C   0  0  0  0  0  0  0  0  0  0  0  0
  121.0822  104.1797  106.9720 C   0  0  0  0  0  0  0  0  0  0  0  0
  126.6264  106.3406  109.0413 C   0  0  0  0  0  0  0  0  0  0  0  0
  125.6985  107.1968  107.0592 C   0  0  0  0  0  0  0  0  0  0  0  0
  125.1280  106.7981  105.6955 C   0  0  2  0  0  0  0  0  0  0  0  0
  121.5329  106.1691  105.5327 N   0  0  0  0  0  0  0  0  0  0  0  0
  122.6511  106.8968  105.1776 N   0  0  0  0  0  0  0  0  0  0  0  0
  123.2741  105.2850  106.5199 N   0  0  0  0  0  0  0  0  0  0  0  0
  125.2795  107.8857  104.7527 N   0  0  0  0  0  0  0  0  0  0  0  0
  126.0990  106.0244  107.7611 O   0  0  0  0  0  0  0  0  0  0  0  0
  126.2125  103.5663  107.3718 H   0  0  0  0  0  0  0  0  0  0  0  0
  125.5211  103.8088  105.7041 H   0  0  0  0  0  0  0  0  0  0  0  0
  123.4950  102.4882  106.3492 H   0  0  0  0  0  0  0  0  0  0  0  0
  124.1823  102.2453  108.0185 H   0  0  0  0  0  0  0  0  0  0  0  0
  124.2144  104.7439  108.3680 H   0  0  0  0  0  0  0  0  0  0  0  0
  120.9977  103.2833  106.3349 H   0  0  0  0  0  0  0  0  0  0  0  0
  121.4828  103.8578  107.9492 H   0  0  0  0  0  0  0  0  0  0  0  0
  120.0594  104.5459  107.1697 H   0  0  0  0  0  0  0  0  0  0  0  0
  126.9230  105.4208  109.5513 H   0  0  0  0  0  0  0  0  0  0  0  0
  125.8697  106.8675  109.6281 H   0  0  0  0  0  0  0  0  0  0  0  0
  127.5008  106.9836  108.9166 H   0  0  0  0  0  0  0  0  0  0  0  0
  126.5837  107.8317  106.9426 H   0  0  0  0  0  0  0  0  0  0  0  0
  124.9626  107.7295  107.6714 H   0  0  0  0  0  0  0  0  0  0  0  0
  125.7393  105.9826  105.2888 H   0  0  0  0  0  0  0  0  0  0  0  0
  124.7023  107.8965  103.9324 H   0  0  0  0  0  0  0  0  0  0  0  0
  126.0820  108.4827  104.8304 H   0  0  0  0  0  0  0  0  0  0  0  0
  1  6  1  0  0  0  0
  1 10  2  0  0  0  0
  1 12  1  0  0  0  0
  2  9  1  0  0  0  0
  2 11  2  0  0  0  0
  2 12  1  0  0  0  0
  3  4  1  0  0  0  0
  3  5  1  0  0  0  0
  4  5  1  0  0  0  0
  5 12  1  0  0  0  0
  7 14  1  0  0  0  0
  8  9  1  0  0  0  0
  8 14  1  0  0  0  0
  9 13  1  0  0  0  0
 10 11  1  0  0  0  0
  3 15  1  0  0  0  0
  3 16  1  0  0  0  0
  4 17  1  0  0  0  0
  4 18  1  0  0  0  0
  5 19  1  0  0  0  0
  6 20  1  0  0  0  0
  6 21  1  0  0  0  0
  6 22  1  0  0  0  0
  7 23  1  0  0  0  0
  7 24  1  0  0  0  0
  7 25  1  0  0  0  0
  8 26  1  0  0  0  0
  8 27  1  0  0  0  0
  9 28  1  0  0  0  0
 13 29  1  0  0  0  0
 13 30  1  0  0  0  0
M  END
> <FRED Chemgauss4 score>
-6.404573

$$$$
C98245623	P156263510
  -OEChem-05182014473D

 27 27  0     0  0  0  0  0  0999 V2000
  119.2514  103.9699  106.0479 C   0  0  0  0  0  0  0  0  0  0  0  0
  118.0427  105.8930  105.6577 C   0  0  0  0  0  0  0  0  0  0  0  0
  117.8727  103.5003  105.6827 C   0  0  0  0  0  0  0  0  0  0  0  0
  117.0766  104.7682  105.4224 C   0  0  0  0  0  0  0  0  0  0  0  0
  120.4272  106.1511  106.2994 C   0  0  0  0  0  0  0  0  0  0  0  0
  124.5706  107.3945  106.1564 C   0  0  0  0  0  0  0  0  0  0  0  0
  121.2049  106.4149  105.0230 C   0  0  0  0  0  0  0  0  0  0  0  0
  123.3990  106.4754  105.8625 C   0  0  0  0  0  0  0  0  0  0  0  0
  119.2589  105.3455  105.9996 N   0  0  0  0  0  0  0  0  0  0  0  0
  125.0414  108.0170  104.8979 N   0  0  0  0  0  0  0  0  0  0  0  0
  120.1739  103.2196  106.3352 O   0  0  0  0  0  0  0  0  0  0  0  0
  117.7529  107.0769  105.5537 O   0  0  0  0  0  0  0  0  0  0  0  0
  122.3294  107.2344  105.3159 O   0  0  0  0  0  0  0  0  0  0  0  0
  117.9213  102.8692  104.7905 H   0  0  0  0  0  0  0  0  0  0  0  0
  117.4471  102.9253  106.5104 H   0  0  0  0  0  0  0  0  0  0  0  0
  116.2311  104.8567  106.1109 H   0  0  0  0  0  0  0  0  0  0  0  0
  116.7104  104.8051  104.3922 H   0  0  0  0  0  0  0  0  0  0  0  0
  121.0369  105.6121  107.0314 H   0  0  0  0  0  0  0  0  0  0  0  0
  120.0879  107.0933  106.7402 H   0  0  0  0  0  0  0  0  0  0  0  0
  124.2846  108.1932  106.8481 H   0  0  0  0  0  0  0  0  0  0  0  0
  125.4008  106.8272  106.5878 H   0  0  0  0  0  0  0  0  0  0  0  0
  120.5756  106.9491  104.3044 H   0  0  0  0  0  0  0  0  0  0  0  0
  121.5569  105.4841  104.5664 H   0  0  0  0  0  0  0  0  0  0  0  0
  123.0454  106.0113  106.7884 H   0  0  0  0  0  0  0  0  0  0  0  0
  123.6726  105.6894  105.1511 H   0  0  0  0  0  0  0  0  0  0  0  0
  125.9814  108.3182  104.8707 H   0  0  0  0  0  0  0  0  0  0  0  0
  124.3514  108.2793  104.2418 H   0  0  0  0  0  0  0  0  0  0  0  0
  1  3  1  0  0  0  0
  1  9  1  0  0  0  0
  1 11  2  0  0  0  0
  2  4  1  0  0  0  0
  2  9  1  0  0  0  0
  2 12  2  0  0  0  0
  3  4  1  0  0  0  0
  5  7  1  0  0  0  0
  5  9  1  0  0  0  0
  6  8  1  0  0  0  0
  6 10  1  0  0  0  0
  7 13  1  0  0  0  0
  8 13  1  0  0  0  0
  3 14  1  0  0  0  0
  3 15  1  0  0  0  0
  4 16  1  0  0  0  0
  4 17  1  0  0  0  0
  5 18  1  0  0  0  0
  5 19  1  0  0  0  0
  6 20  1  0  0  0  0
  6 21  1  0  0  0  0
  7 22  1  0  0  0  0
  7 23  1  0  0  0  0
  8 24  1  0  0  0  0
  8 25  1  0  0  0  0
 10 26  1  0  0  0  0
 10 27  1  0  0  0  0
M  END
> <FRED Chemgauss4 score>
-6.393421

$$$$
C88067871	P137751168
  -OEChem-05182014473D

 26 26  0     1  0  0  0  0  0999 V2000
  118.3316  104.2278  106.1249 C   0  0  0  0  0  0  0  0  0  0  0  0
  118.6472  105.4943  106.5730 C   0  0  0  0  0  0  0  0  0  0  0  0
  119.3683  103.3170  106.1305 C   0  0  0  0  0  0  0  0  0  0  0  0
  120.8016  104.8774  106.9539 C   0  0  0  0  0  0  0  0  0  0  0  0
  125.4375  105.1399  107.0427 C   0  0  0  0  0  0  0  0  0  0  0  0
  122.1825  105.2405  107.4174 C   0  0  0  0  0  0  0  0  0  0  0  0
  125.3809  107.6759  106.7587 C   0  0  0  0  0  0  0  0  0  0  0  0
  124.6104  106.4166  107.1718 C   0  0  1  0  0  0  0  0  0  0  0  0
  119.8764  105.8550  106.9964 N   0  0  0  0  0  0  0  0  0  0  0  0
  120.6204  103.6088  106.5397 N   0  0  0  0  0  0  0  0  0  0  0  0
  125.8458  107.5940  105.3779 N   0  0  0  0  0  0  0  0  0  0  0  0
  122.4360  107.6212  106.1866 O   0  0  0  0  0  0  0  0  0  0  0  0
  123.0939  106.2830  106.1399 S   0  0  2  0  0  0  0  0  0  0  0  0
  117.3366  103.9661  105.7910 H   0  0  0  0  0  0  0  0  0  0  0  0
  117.8974  106.2776  106.6050 H   0  0  0  0  0  0  0  0  0  0  0  0
  119.2160  102.2964  105.7958 H   0  0  0  0  0  0  0  0  0  0  0  0
  125.8098  105.0051  106.0211 H   0  0  0  0  0  0  0  0  0  0  0  0
  126.2996  105.1560  107.7172 H   0  0  0  0  0  0  0  0  0  0  0  0
  124.8409  104.2567  107.2963 H   0  0  0  0  0  0  0  0  0  0  0  0
  122.1387  105.8141  108.3493 H   0  0  0  0  0  0  0  0  0  0  0  0
  122.7787  104.3434  107.6151 H   0  0  0  0  0  0  0  0  0  0  0  0
  124.7490  108.5652  106.8676 H   0  0  0  0  0  0  0  0  0  0  0  0
  126.2496  107.8189  107.4123 H   0  0  0  0  0  0  0  0  0  0  0  0
  124.2565  106.5166  108.2047 H   0  0  0  0  0  0  0  0  0  0  0  0
  126.6475  108.1281  105.1193 H   0  0  0  0  0  0  0  0  0  0  0  0
  125.2406  107.1794  104.7019 H   0  0  0  0  0  0  0  0  0  0  0  0
  1  2  1  0  0  0  0
  1  3  2  0  0  0  0
  2  9  2  0  0  0  0
  3 10  1  0  0  0  0
  4  6  1  0  0  0  0
  4  9  1  0  0  0  0
  4 10  2  0  0  0  0
  5  8  1  0  0  0  0
  6 13  1  0  0  0  0
  7  8  1  0  0  0  0
  7 11  1  0  0  0  0
  8 13  1  0  0  0  0
 12 13  2  0  0  0  0
  1 14  1  0  0  0  0
  2 15  1  0  0  0  0
  3 16  1  0  0  0  0
  5 17  1  0  0  0  0
  5 18  1  0  0  0  0
  5 19  1  0  0  0  0
  6 20  1  0  0  0  0
  6 21  1  0  0  0  0
  7 22  1  0  0  0  0
  7 23  1  0  0  0  0
  8 24  1  0  0  0  0
 11 25  1  0  0  0  0
 11 26  1  0  0  0  0
M  END
> <FRED Chemgauss4 score>
-6.391480

$$$$
C51004195	P76349427
  -OEChem-05182014473D

 18 18  0     0  0  0  0  0  0999 V2000
  125.0047  103.9303  107.3525 C   0  0  0  0  0  0  0  0  0  0  0  0
  121.7694  105.8365  105.2659 C   0  0  0  0  0  0  0  0  0  0  0  0
  122.2149  105.1120  106.3462 C   0  0  0  0  0  0  0  0  0  0  0  0
  123.6961  106.6188  105.7200 C   0  0  0  0  0  0  0  0  0  0  0  0
  124.3234  105.1834  107.6879 C   0  0  0  0  0  0  0  0  0  0  0  0
  124.9515  107.3971  105.7271 C   0  0  0  0  0  0  0  0  0  0  0  0
  125.5453  102.9381  107.0887 N   0  0  0  0  0  0  0  0  0  0  0  0
  122.6961  106.7726  104.8807 N   0  0  0  0  0  0  0  0  0  0  0  0
  123.4506  105.6242  106.6254 N   0  0  0  0  0  0  0  0  0  0  0  0
  125.3399  107.8493  104.4092 N   0  0  0  0  0  0  0  0  0  0  0  0
  120.8284  105.7315  104.7458 H   0  0  0  0  0  0  0  0  0  0  0  0
  121.7754  104.3066  106.9180 H   0  0  0  0  0  0  0  0  0  0  0  0
  123.7162  105.0718  108.5933 H   0  0  0  0  0  0  0  0  0  0  0  0
  125.0452  105.9849  107.8804 H   0  0  0  0  0  0  0  0  0  0  0  0
  124.8733  108.2964  106.3630 H   0  0  0  0  0  0  0  0  0  0  0  0
  125.8010  106.8150  106.1251 H   0  0  0  0  0  0  0  0  0  0  0  0
  126.3118  108.0154  104.2224 H   0  0  0  0  0  0  0  0  0  0  0  0
  124.6285  108.1796  103.7830 H   0  0  0  0  0  0  0  0  0  0  0  0
  1  5  1  0  0  0  0
  1  7  3  0  0  0  0
  2  3  2  0  0  0  0
  2  8  1  0  0  0  0
  3  9  1  0  0  0  0
  4  6  1  0  0  0  0
  4  8  2  0  0  0  0
  4  9  1  0  0  0  0
  5  9  1  0  0  0  0
  6 10  1  0  0  0  0
  2 11  1  0  0  0  0
  3 12  1  0  0  0  0
  5 13  1  0  0  0  0
  5 14  1  0  0  0  0
  6 15  1  0  0  0  0
  6 16  1  0  0  0  0
 10 17  1  0  0  0  0
 10 18  1  0  0  0  0
M  END
> <FRED Chemgauss4 score>
-6.390999

$$$$
C54793127	P82471189
  -OEChem-05182014473D

 21 21  0     0  0  0  0  0  0999 V2000
  122.9575  105.3497  106.7147 C   0  0  0  0  0  0  0  0  0  0  0  0
  122.0212  104.4792  106.1949 C   0  0  0  0  0  0  0  0  0  0  0  0
  123.1316  106.5265  106.0153 C   0  0  0  0  0  0  0  0  0  0  0  0
  121.5651  105.9095  104.4880 C   0  0  0  0  0  0  0  0  0  0  0  0
  119.6024  105.3022  103.0239 C   0  0  0  0  0  0  0  0  0  0  0  0
  124.1230  107.5300  106.5006 C   0  0  0  0  0  0  0  0  0  0  0  0
  120.7927  106.2200  103.2510 C   0  0  0  0  0  0  0  0  0  0  0  0
  121.3043  104.7281  105.0794 N   0  0  0  0  0  0  0  0  0  0  0  0
  122.4499  106.8400  104.8940 N   0  0  0  0  0  0  0  0  0  0  0  0
  119.7165  104.5569  101.8694 N   0  0  0  0  0  0  0  0  0  0  0  0
  118.6410  105.2336  103.7844 O   0  0  0  0  0  0  0  0  0  0  0  0
  124.6465  108.2506  105.3919 O   0  0  0  0  0  0  0  0  0  0  0  0
  123.5138  105.1148  107.6129 H   0  0  0  0  0  0  0  0  0  0  0  0
  121.8152  103.5284  106.6755 H   0  0  0  0  0  0  0  0  0  0  0  0
  123.6624  108.2435  107.1973 H   0  0  0  0  0  0  0  0  0  0  0  0
  124.9536  107.0430  107.0293 H   0  0  0  0  0  0  0  0  0  0  0  0
  120.4204  107.2573  103.2789 H   0  0  0  0  0  0  0  0  0  0  0  0
  121.4466  106.1593  102.3655 H   0  0  0  0  0  0  0  0  0  0  0  0
  120.5384  104.6645  101.2836 H   0  0  0  0  0  0  0  0  0  0  0  0
  118.9906  103.9024  101.5971 H   0  0  0  0  0  0  0  0  0  0  0  0
  125.2838  108.8892  105.7497 H   0  0  0  0  0  0  0  0  0  0  0  0
  1  2  1  0  0  0  0
  1  3  2  0  0  0  0
  2  8  2  0  0  0  0
  3  6  1  0  0  0  0
  3  9  1  0  0  0  0
  4  7  1  0  0  0  0
  4  8  1  0  0  0  0
  4  9  2  0  0  0  0
  5  7  1  0  0  0  0
  5 10  1  0  0  0  0
  5 11  2  0  0  0  0
  6 12  1  0  0  0  0
  1 13  1  0  0  0  0
  2 14  1  0  0  0  0
  6 15  1  0  0  0  0
  6 16  1  0  0  0  0
  7 17  1  0  0  0  0
  7 18  1  0  0  0  0
 10 19  1  0  0  0  0
 10 20  1  0  0  0  0
 12 21  1  0  0  0  0
M  END
> <FRED Chemgauss4 score>
-6.387286

$$$$
C85189699	P133308478
  -OEChem-05182014473D

 25 26  0     1  0  0  0  0  0999 V2000
  124.8926  107.4901  105.5848 C   0  0  0  0  0  0  0  0  0  0  0  0
  122.8781  106.8960  105.2390 C   0  0  0  0  0  0  0  0  0  0  0  0
  124.6893  106.3940  106.3897 C   0  0  0  0  0  0  0  0  0  0  0  0
  121.2528  104.5275  106.3401 C   0  0  0  0  0  0  0  0  0  0  0  0
  121.4700  105.1293  107.6931 C   0  0  0  0  0  0  0  0  0  0  0  0
  122.6535  104.8706  106.7904 C   0  0  0  0  0  0  0  0  0  0  0  0
  125.0839  105.7378  108.7892 C   0  0  0  0  0  0  0  0  0  0  0  0
  125.6046  105.6714  107.3513 C   0  0  2  0  0  0  0  0  0  0  0  0
  123.7612  107.7977  104.8713 N   0  0  0  0  0  0  0  0  0  0  0  0
  123.3943  106.0249  106.1577 N   0  0  0  0  0  0  0  0  0  0  0  0
  124.9887  107.1171  109.2116 N   0  0  0  0  0  0  0  0  0  0  0  0
  126.8991  106.2694  107.2773 O   0  0  0  0  0  0  0  0  0  0  0  0
  125.7951  108.0752  105.4814 H   0  0  0  0  0  0  0  0  0  0  0  0
  121.8603  106.8266  104.8799 H   0  0  0  0  0  0  0  0  0  0  0  0
  120.9819  103.4800  106.2906 H   0  0  0  0  0  0  0  0  0  0  0  0
  120.7880  105.1472  105.5827 H   0  0  0  0  0  0  0  0  0  0  0  0
  121.1508  106.1530  107.8459 H   0  0  0  0  0  0  0  0  0  0  0  0
  121.3472  104.4875  108.5569 H   0  0  0  0  0  0  0  0  0  0  0  0
  123.3185  104.0721  107.0384 H   0  0  0  0  0  0  0  0  0  0  0  0
  125.7577  105.2100  109.4730 H   0  0  0  0  0  0  0  0  0  0  0  0
  124.0915  105.2811  108.8717 H   0  0  0  0  0  0  0  0  0  0  0  0
  125.7206  104.6267  107.0370 H   0  0  0  0  0  0  0  0  0  0  0  0
  125.6997  107.7627  108.9190 H   0  0  0  0  0  0  0  0  0  0  0  0
  124.3427  107.3557  109.9422 H   0  0  0  0  0  0  0  0  0  0  0  0
  127.1957  106.1670  106.3606 H   0  0  0  0  0  0  0  0  0  0  0  0
  1  3  2  0  0  0  0
  1  9  1  0  0  0  0
  2  9  2  0  0  0  0
  2 10  1  0  0  0  0
  3  8  1  0  0  0  0
  3 10  1  0  0  0  0
  4  5  1  0  0  0  0
  4  6  1  0  0  0  0
  5  6  1  0  0  0  0
  6 10  1  0  0  0  0
  7  8  1  0  0  0  0
  7 11  1  0  0  0  0
  8 12  1  0  0  0  0
  1 13  1  0  0  0  0
  2 14  1  0  0  0  0
  4 15  1  0  0  0  0
  4 16  1  0  0  0  0
  5 17  1  0  0  0  0
  5 18  1  0  0  0  0
  6 19  1  0  0  0  0
  7 20  1  0  0  0  0
  7 21  1  0  0  0  0
  8 22  1  0  0  0  0
 11 23  1  0  0  0  0
 11 24  1  0  0  0  0
 12 25  1  0  0  0  0
M  END
> <FRED Chemgauss4 score>
-6.375174

$$$$
C86827631	P135917923
  -OEChem-05182014473D

 23 24  0     1  0  0  0  0  0999 V2000
  124.5867  105.1479  106.3375 C   0  0  0  0  0  0  0  0  0  0  0  0
  120.7254  106.6498  105.3380 C   0  0  0  0  0  0  0  0  0  0  0  0
  125.0139  104.0611  107.0642 C   0  0  0  0  0  0  0  0  0  0  0  0
  125.5949  105.8214  108.2101 C   0  0  0  0  0  0  0  0  0  0  0  0
  120.1632  106.2304  106.5255 C   0  0  0  0  0  0  0  0  0  0  0  0
  124.9641  106.2912  107.0816 C   0  0  0  0  0  0  0  0  0  0  0  0
  122.1791  107.5343  106.7215 C   0  0  0  0  0  0  0  0  0  0  0  0
  123.3790  108.2919  107.2428 C   0  0  0  0  0  0  0  0  0  0  0  0
  124.7224  107.7445  106.7109 C   0  0  2  0  0  0  0  0  0  0  0  0
  121.8812  107.3979  105.4484 N   0  0  0  0  0  0  0  0  0  0  0  0
  124.7970  107.9312  105.2555 N   0  0  0  0  0  0  0  0  0  0  0  0
  125.6294  104.4630  108.2071 O   0  0  0  0  0  0  0  0  0  0  0  0
  121.1129  106.7881  107.8402 S   0  0  0  0  0  0  0  0  0  0  0  0
  124.0682  105.1161  105.3898 H   0  0  0  0  0  0  0  0  0  0  0  0
  120.3288  106.4347  104.3548 H   0  0  0  0  0  0  0  0  0  0  0  0
  124.9597  102.9928  106.9134 H   0  0  0  0  0  0  0  0  0  0  0  0
  126.0513  106.2969  109.0663 H   0  0  0  0  0  0  0  0  0  0  0  0
  119.2706  105.6405  106.6781 H   0  0  0  0  0  0  0  0  0  0  0  0
  123.3597  108.2297  108.3399 H   0  0  0  0  0  0  0  0  0  0  0  0
  123.2701  109.3596  107.0107 H   0  0  0  0  0  0  0  0  0  0  0  0
  125.5340  108.3485  107.1366 H   0  0  0  0  0  0  0  0  0  0  0  0
  125.4413  107.3684  104.7518 H   0  0  0  0  0  0  0  0  0  0  0  0
  124.3604  108.7362  104.8719 H   0  0  0  0  0  0  0  0  0  0  0  0
  1  3  2  0  0  0  0
  1  6  1  0  0  0  0
  2  5  2  0  0  0  0
  2 10  1  0  0  0  0
  3 12  1  0  0  0  0
  4  6  2  0  0  0  0
  4 12  1  0  0  0  0
  5 13  1  0  0  0  0
  6  9  1  0  0  0  0
  7  8  1  0  0  0  0
  7 10  2  0  0  0  0
  7 13  1  0  0  0  0
  8  9  1  0  0  0  0
  9 11  1  0  0  0  0
  1 14  1  0  0  0  0
  2 15  1  0  0  0  0
  3 16  1  0  0  0  0
  4 17  1  0  0  0  0
  5 18  1  0  0  0  0
  8 19  1  0  0  0  0
  8 20  1  0  0  0  0
  9 21  1  0  0  0  0
 11 22  1  0  0  0  0
 11 23  1  0  0  0  0
M  END
> <FRED Chemgauss4 score>
-6.374123

$$$$
C86591349	P135571780
  -OEChem-05182014473D

 26 26  0     1  0  0  0  0  0999 V2000
  121.8287  107.8998  107.2363 C   0  0  0  0  0  0  0  0  0  0  0  0
  123.7893  107.4442  106.6838 C   0  0  0  0  0  0  0  0  0  0  0  0
  119.7388  108.7051  108.3907 C   0  0  0  0  0  0  0  0  0  0  0  0
  126.1853  106.7269  107.0535 C   0  0  0  0  0  0  0  0  0  0  0  0
  118.4989  106.5826  106.7582 C   0  0  0  0  0  0  0  0  0  0  0  0
  120.3620  107.9426  107.2081 C   0  0  2  0  0  0  0  0  0  0  0  0
  125.0675  106.9544  106.0379 C   0  0  2  0  0  0  0  0  0  0  0  0
  122.5544  107.2317  106.2921 N   0  0  0  0  0  0  0  0  0  0  0  0
  122.5368  108.5123  108.1875 N   0  0  0  0  0  0  0  0  0  0  0  0
  123.7874  108.2054  107.8108 N   0  0  0  0  0  0  0  0  0  0  0  0
  125.5045  107.8520  104.9933 N   0  0  0  0  0  0  0  0  0  0  0  0
  119.8304  106.6043  107.2346 O   0  0  0  0  0  0  0  0  0  0  0  0
  120.0967  108.3012  109.3431 H   0  0  0  0  0  0  0  0  0  0  0  0
  118.6456  108.6309  108.3727 H   0  0  0  0  0  0  0  0  0  0  0  0
  119.9768  109.7739  108.3535 H   0  0  0  0  0  0  0  0  0  0  0  0
  126.4255  107.6515  107.5898 H   0  0  0  0  0  0  0  0  0  0  0  0
  125.8860  105.9744  107.7918 H   0  0  0  0  0  0  0  0  0  0  0  0
  127.1035  106.3638  106.5782 H   0  0  0  0  0  0  0  0  0  0  0  0
  118.1172  105.5591  106.7875 H   0  0  0  0  0  0  0  0  0  0  0  0
  118.4710  106.9641  105.7345 H   0  0  0  0  0  0  0  0  0  0  0  0
  117.8819  107.2176  107.3985 H   0  0  0  0  0  0  0  0  0  0  0  0
  119.9567  108.4030  106.2800 H   0  0  0  0  0  0  0  0  0  0  0  0
  124.8735  105.9983  105.5364 H   0  0  0  0  0  0  0  0  0  0  0  0
  124.5675  108.5444  108.3615 H   0  0  0  0  0  0  0  0  0  0  0  0
  124.8126  108.3186  104.4347 H   0  0  0  0  0  0  0  0  0  0  0  0
  126.4690  107.8363  104.7134 H   0  0  0  0  0  0  0  0  0  0  0  0
  1  6  1  0  0  0  0
  1  8  1  0  0  0  0
  1  9  2  0  0  0  0
  2  7  1  0  0  0  0
  2  8  2  0  0  0  0
  2 10  1  0  0  0  0
  3  6  1  0  0  0  0
  4  7  1  0  0  0  0
  5 12  1  0  0  0  0
  6 12  1  0  0  0  0
  7 11  1  0  0  0  0
  9 10  1  0  0  0  0
  3 13  1  0  0  0  0
  3 14  1  0  0  0  0
  3 15  1  0  0  0  0
  4 16  1  0  0  0  0
  4 17  1  0  0  0  0
  4 18  1  0  0  0  0
  5 19  1  0  0  0  0
  5 20  1  0  0  0  0
  5 21  1  0  0  0  0
  6 22  1  0  0  0  0
  7 23  1  0  0  0  0
 10 24  1  0  0  0  0
 11 25  1  0  0  0  0
 11 26  1  0  0  0  0
M  END
> <FRED Chemgauss4 score>
-6.372824

$$$$
C50445595	P75433552
  -OEChem-05182014473D

 21 21  0     0  0  0  0  0  0999 V2000
  124.7862  105.4361  108.0008 C   0  0  0  0  0  0  0  0  0  0  0  0
  125.4002  106.3591  107.0868 C   0  0  0  0  0  0  0  0  0  0  0  0
  123.4727  105.2061  107.9264 C   0  0  0  0  0  0  0  0  0  0  0  0
  124.6936  107.0079  106.1476 C   0  0  0  0  0  0  0  0  0  0  0  0
  123.2074  106.7505  106.0596 C   0  0  0  0  0  0  0  0  0  0  0  0
  121.2573  105.5218  106.9827 C   0  0  0  0  0  0  0  0  0  0  0  0
  120.9468  104.5812  105.8327 C   0  0  0  0  0  0  0  0  0  0  0  0
  122.6815  105.8381  106.9853 N   0  0  0  0  0  0  0  0  0  0  0  0
  125.2119  107.8949  105.2507 N   0  0  0  0  0  0  0  0  0  0  0  0
  122.5415  107.3358  105.2045 O   0  0  0  0  0  0  0  0  0  0  0  0
  121.7240  103.3981  105.9674 O   0  0  0  0  0  0  0  0  0  0  0  0
  125.4057  104.9404  108.7388 H   0  0  0  0  0  0  0  0  0  0  0  0
  126.4704  106.5132  107.1856 H   0  0  0  0  0  0  0  0  0  0  0  0
  122.9790  104.5159  108.6013 H   0  0  0  0  0  0  0  0  0  0  0  0
  120.6982  106.4584  106.8913 H   0  0  0  0  0  0  0  0  0  0  0  0
  121.0110  105.0493  107.9383 H   0  0  0  0  0  0  0  0  0  0  0  0
  121.2113  105.0526  104.8811 H   0  0  0  0  0  0  0  0  0  0  0  0
  119.8873  104.3061  105.8125 H   0  0  0  0  0  0  0  0  0  0  0  0
  126.1895  108.0883  105.2805 H   0  0  0  0  0  0  0  0  0  0  0  0
  124.5976  108.3230  104.5924 H   0  0  0  0  0  0  0  0  0  0  0  0
  121.4963  102.8271  105.2161 H   0  0  0  0  0  0  0  0  0  0  0  0
  1  2  1  0  0  0  0
  1  3  2  0  0  0  0
  2  4  2  0  0  0  0
  3  8  1  0  0  0  0
  4  5  1  0  0  0  0
  4  9  1  0  0  0  0
  5  8  1  0  0  0  0
  5 10  2  0  0  0  0
  6  7  1  0  0  0  0
  6  8  1  0  0  0  0
  7 11  1  0  0  0  0
  1 12  1  0  0  0  0
  2 13  1  0  0  0  0
  3 14  1  0  0  0  0
  6 15  1  0  0  0  0
  6 16  1  0  0  0  0
  7 17  1  0  0  0  0
  7 18  1  0  0  0  0
  9 19  1  0  0  0  0
  9 20  1  0  0  0  0
 11 21  1  0  0  0  0
M  END
> <FRED Chemgauss4 score>
-6.372591

$$$$
C82563966	P129028527
  -OEChem-05182014473D

 19 19  0     0  0  0  0  0  0999 V2000
  124.8434  106.0817  107.1957 C   0  0  0  0  0  0  0  0  0  0  0  0
  124.6850  107.4004  105.6096 C   0  0  0  0  0  0  0  0  0  0  0  0
  125.4285  105.3154  108.3550 C   0  0  0  0  0  0  0  0  0  0  0  0
  124.5433  104.1631  108.8480 C   0  0  0  0  0  0  0  0  0  0  0  0
  123.1370  104.5595  109.2873 C   0  0  0  0  0  0  0  0  0  0  0  0
  125.5659  107.0004  106.4915 N   0  0  0  0  0  0  0  0  0  0  0  0
  123.5818  105.9024  106.7931 N   0  0  0  0  0  0  0  0  0  0  0  0
  122.3943  103.3814  109.7925 N   0  3  0  0  0  0  0  0  0  0  0  0
  124.9393  108.2380  104.7732 O   0  5  0  0  0  0  0  0  0  0  0  0
  123.4734  106.7949  105.7192 O   0  0  0  0  0  0  0  0  0  0  0  0
  126.4288  104.9459  108.1000 H   0  0  0  0  0  0  0  0  0  0  0  0
  125.5852  106.0197  109.1829 H   0  0  0  0  0  0  0  0  0  0  0  0
  125.0349  103.6571  109.6882 H   0  0  0  0  0  0  0  0  0  0  0  0
  124.4691  103.4194  108.0442 H   0  0  0  0  0  0  0  0  0  0  0  0
  123.1800  105.2762  110.1130 H   0  0  0  0  0  0  0  0  0  0  0  0
  122.5455  104.9902  108.4748 H   0  0  0  0  0  0  0  0  0  0  0  0
  121.9809  102.8468  109.0201 H   0  0  0  0  0  0  0  0  0  0  0  0
  121.6336  103.6667  110.4198 H   0  0  0  0  0  0  0  0  0  0  0  0
  123.0134  102.7513  110.3152 H   0  0  0  0  0  0  0  0  0  0  0  0
  1  3  1  0  0  0  0
  1  6  1  0  0  0  0
  1  7  2  0  0  0  0
  2  6  2  0  0  0  0
  2  9  1  0  0  0  0
  2 10  1  0  0  0  0
  3  4  1  0  0  0  0
  4  5  1  0  0  0  0
  5  8  1  0  0  0  0
  7 10  1  0  0  0  0
  3 11  1  0  0  0  0
  3 12  1  0  0  0  0
  4 13  1  0  0  0  0
  4 14  1  0  0  0  0
  5 15  1  0  0  0  0
  5 16  1  0  0  0  0
  8 17  1  0  0  0  0
  8 18  1  0  0  0  0
  8 19  1  0  0  0  0
M  CHG  2   8   1   9  -1
M  END
> <FRED Chemgauss4 score>
-6.372114

$$$$
C52815753	P79155819
  -OEChem-05182014473D

 20 20  0     0  0  0  0  0  0999 V2000
  122.7131  105.6960  106.3836 C   0  0  0  0  0  0  0  0  0  0  0  0
  123.7072  105.9935  107.2991 C   0  0  0  0  0  0  0  0  0  0  0  0
  122.5557  106.5409  105.3034 C   0  0  0  0  0  0  0  0  0  0  0  0
  124.4784  107.1160  107.0735 C   0  0  0  0  0  0  0  0  0  0  0  0
  127.0897  105.5866  108.2508 C   0  0  0  0  0  0  0  0  0  0  0  0
  126.0341  106.4582  108.9100 C   0  0  0  0  0  0  0  0  0  0  0  0
  123.3249  107.6327  105.1077 N   0  0  0  0  0  0  0  0  0  0  0  0
  124.3022  107.9249  106.0073 N   0  0  0  0  0  0  0  0  0  0  0  0
  126.5654  104.8533  107.1300 N   0  0  0  0  0  0  0  0  0  0  0  0
  125.4758  107.4147  107.9929 N   0  0  0  0  0  0  0  0  0  0  0  0
  122.0786  104.8264  106.5103 H   0  0  0  0  0  0  0  0  0  0  0  0
  123.8642  105.3554  108.1623 H   0  0  0  0  0  0  0  0  0  0  0  0
  121.7955  106.3627  104.5517 H   0  0  0  0  0  0  0  0  0  0  0  0
  127.5019  104.8570  108.9550 H   0  0  0  0  0  0  0  0  0  0  0  0
  127.9081  106.2077  107.8736 H   0  0  0  0  0  0  0  0  0  0  0  0
  125.2067  105.8413  109.2740 H   0  0  0  0  0  0  0  0  0  0  0  0
  126.4490  107.0164  109.7555 H   0  0  0  0  0  0  0  0  0  0  0  0
  125.6395  104.4607  107.1897 H   0  0  0  0  0  0  0  0  0  0  0  0
  127.1912  104.5688  106.3933 H   0  0  0  0  0  0  0  0  0  0  0  0
  125.8277  108.3683  108.0155 H   0  0  0  0  0  0  0  0  0  0  0  0
  1  2  1  0  0  0  0
  1  3  2  0  0  0  0
  2  4  2  0  0  0  0
  3  7  1  0  0  0  0
  4  8  1  0  0  0  0
  4 10  1  0  0  0  0
  5  6  1  0  0  0  0
  5  9  1  0  0  0  0
  6 10  1  0  0  0  0
  7  8  2  0  0  0  0
  1 11  1  0  0  0  0
  2 12  1  0  0  0  0
  3 13  1  0  0  0  0
  5 14  1  0  0  0  0
  5 15  1  0  0  0  0
  6 16  1  0  0  0  0
  6 17  1  0  0  0  0
  9 18  1  0  0  0  0
  9 19  1  0  0  0  0
 10 20  1  0  0  0  0
M  END
> <FRED Chemgauss4 score>
-6.370925

$$$$
C87826162	P137377939
  -OEChem-05182014473D

 43 44  0     1  0  0  0  0  0999 V2000
  119.4009  104.0307  105.4046 C   0  0  0  0  0  0  0  0  0  0  0  0
  118.0897  104.2008  104.9604 C   0  0  0  0  0  0  0  0  0  0  0  0
  119.8557  106.3604  104.9545 C   0  0  0  0  0  0  0  0  0  0  0  0
  120.2839  105.1105  105.4017 C   0  0  0  0  0  0  0  0  0  0  0  0
  118.5444  106.5305  104.5102 C   0  0  0  0  0  0  0  0  0  0  0  0
  117.6615  105.4507  104.5132 C   0  0  0  0  0  0  0  0  0  0  0  0
  124.4546  107.4976  106.1887 C   0  0  0  0  0  0  0  0  0  0  0  0
  122.4469  108.1962  107.4922 C   0  0  0  0  0  0  0  0  0  0  0  0
  121.9658  106.7592  107.4219 C   0  0  0  0  0  0  0  0  0  0  0  0
  123.8200  106.1279  105.9694 C   0  0  1  0  0  0  0  0  0  0  0  0
  126.0230  105.1677  106.6536 C   0  0  0  0  0  0  0  0  0  0  0  0
  115.5442  104.4420  104.1189 C   0  0  0  0  0  0  0  0  0  0  0  0
  121.6948  104.9271  105.8814 C   0  0  0  0  0  0  0  0  0  0  0  0
  118.1024  107.8757  104.0361 C   0  0  0  0  0  0  0  0  0  0  0  0
  124.5474  105.1119  106.8582 C   0  0  0  0  0  0  0  0  0  0  0  0
  123.8156  108.3567  107.0537 N   0  0  0  0  0  0  0  0  0  0  0  0
  122.3588  106.2045  106.1275 N   0  0  1  0  0  0  0  0  0  0  0  0
  117.8790  108.7920  105.1246 N   0  0  0  0  0  0  0  0  0  0  0  0
  125.5431  107.7743  105.6787 O   0  0  0  0  0  0  0  0  0  0  0  0
  116.3776  105.5985  104.0812 O   0  0  0  0  0  0  0  0  0  0  0  0
  119.7262  103.0536  105.7520 H   0  0  0  0  0  0  0  0  0  0  0  0
  117.4069  103.3554  104.9673 H   0  0  0  0  0  0  0  0  0  0  0  0
  120.5447  107.2018  104.9530 H   0  0  0  0  0  0  0  0  0  0  0  0
  121.8193  108.8489  106.8729 H   0  0  0  0  0  0  0  0  0  0  0  0
  122.3997  108.5715  108.5235 H   0  0  0  0  0  0  0  0  0  0  0  0
  122.4283  106.2074  108.2497 H   0  0  0  0  0  0  0  0  0  0  0  0
  120.8778  106.7103  107.5627 H   0  0  0  0  0  0  0  0  0  0  0  0
  124.0620  105.8736  104.9051 H   0  0  0  0  0  0  0  0  0  0  0  0
  126.2521  104.9525  105.6033 H   0  0  0  0  0  0  0  0  0  0  0  0
  126.5342  104.4226  107.2723 H   0  0  0  0  0  0  0  0  0  0  0  0
  126.4150  106.1627  106.8898 H   0  0  0  0  0  0  0  0  0  0  0  0
  114.5485  104.6972  103.7481 H   0  0  0  0  0  0  0  0  0  0  0  0
  115.4788  104.0722  105.1452 H   0  0  0  0  0  0  0  0  0  0  0  0
  115.9803  103.6686  103.4822 H   0  0  0  0  0  0  0  0  0  0  0  0
  121.7140  104.3520  106.8135 H   0  0  0  0  0  0  0  0  0  0  0  0
  122.2911  104.3759  105.1467 H   0  0  0  0  0  0  0  0  0  0  0  0
  118.8530  108.3262  103.3727 H   0  0  0  0  0  0  0  0  0  0  0  0
  117.1680  107.8120  103.4630 H   0  0  0  0  0  0  0  0  0  0  0  0
  124.3080  105.3248  107.9008 H   0  0  0  0  0  0  0  0  0  0  0  0
  124.1768  104.1133  106.6235 H   0  0  0  0  0  0  0  0  0  0  0  0
  124.3369  109.1537  107.4069 H   0  0  0  0  0  0  0  0  0  0  0  0
  117.2356  109.5555  104.9971 H   0  0  0  0  0  0  0  0  0  0  0  0
  118.5080  108.7805  105.9105 H   0  0  0  0  0  0  0  0  0  0  0  0
  1  2  2  0  0  0  0
  1  4  1  0  0  0  0
  2  6  1  0  0  0  0
  3  4  2  0  0  0  0
  3  5  1  0  0  0  0
  4 13  1  0  0  0  0
  5  6  2  0  0  0  0
  5 14  1  0  0  0  0
  6 20  1  0  0  0  0
  7 10  1  0  0  0  0
  7 16  1  0  0  0  0
  7 19  2  0  0  0  0
  8  9  1  0  0  0  0
  8 16  1  0  0  0  0
  9 17  1  0  0  0  0
 10 15  1  0  0  0  0
 10 17  1  0  0  0  0
 11 15  1  0  0  0  0
 12 20  1  0  0  0  0
 13 17  1  0  0  0  0
 14 18  1  0  0  0  0
  1 21  1  0  0  0  0
  2 22  1  0  0  0  0
  3 23  1  0  0  0  0
  8 24  1  0  0  0  0
  8 25  1  0  0  0  0
  9 26  1  0  0  0  0
  9 27  1  0  0  0  0
 10 28  1  0  0  0  0
 11 29  1  0  0  0  0
 11 30  1  0  0  0  0
 11 31  1  0  0  0  0
 12 32  1  0  0  0  0
 12 33  1  0  0  0  0
 12 34  1  0  0  0  0
 13 35  1  0  0  0  0
 13 36  1  0  0  0  0
 14 37  1  0  0  0  0
 14 38  1  0  0  0  0
 15 39  1  0  0  0  0
 15 40  1  0  0  0  0
 16 41  1  0  0  0  0
 18 42  1  0  0  0  0
 18 43  1  0  0  0  0
M  END
> <FRED Chemgauss4 score>
-6.368217

$$$$
C41011592	P62245845
  -OEChem-05182014473D

 31 32  0     0  0  0  0  0  0999 V2000
  124.2282  104.8660  107.1675 C   0  0  0  0  0  0  0  0  0  0  0  0
  125.3643  105.5948  106.8159 C   0  0  0  0  0  0  0  0  0  0  0  0
  123.9654  107.4292  106.0982 C   0  0  0  0  0  0  0  0  0  0  0  0
  119.1117  103.7641  102.0883 C   0  0  0  0  0  0  0  0  0  0  0  0
  119.4390  104.3166  100.8678 C   0  0  0  0  0  0  0  0  0  0  0  0
  122.9606  105.4188  106.9844 C   0  0  0  0  0  0  0  0  0  0  0  0
  125.2329  106.8764  106.2812 C   0  0  0  0  0  0  0  0  0  0  0  0
  122.8293  106.7004  106.4498 C   0  0  0  0  0  0  0  0  0  0  0  0
  120.4315  105.3668  102.7951 C   0  0  0  0  0  0  0  0  0  0  0  0
  121.7644  104.6121  107.3713 C   0  0  0  0  0  0  0  0  0  0  0  0
  121.2133  106.2611  103.7133 C   0  0  0  0  0  0  0  0  0  0  0  0
  119.6802  104.3648  103.1946 N   0  0  0  0  0  0  0  0  0  0  0  0
  126.3821  107.6134  105.9272 N   0  0  0  0  0  0  0  0  0  0  0  0
  120.5630  106.4081  105.0233 N   0  0  0  0  0  0  0  0  0  0  0  0
  120.4895  107.2947  107.4410 O   0  0  0  0  0  0  0  0  0  0  0  0
  121.4606  108.7445  105.6302 O   0  0  0  0  0  0  0  0  0  0  0  0
  120.4995  105.6438  101.1029 S   0  0  0  0  0  0  0  0  0  0  0  0
  121.2544  107.4250  106.2091 S   0  0  0  0  0  0  0  0  0  0  0  0
  124.3420  103.8681  107.5829 H   0  0  0  0  0  0  0  0  0  0  0  0
  126.3469  105.1537  106.9629 H   0  0  0  0  0  0  0  0  0  0  0  0
  123.8644  108.4287  105.6810 H   0  0  0  0  0  0  0  0  0  0  0  0
  118.4563  102.9150  102.2283 H   0  0  0  0  0  0  0  0  0  0  0  0
  119.1144  104.0151   99.8820 H   0  0  0  0  0  0  0  0  0  0  0  0
  121.4977  104.8061  108.4166 H   0  0  0  0  0  0  0  0  0  0  0  0
  120.9015  104.8549  106.7392 H   0  0  0  0  0  0  0  0  0  0  0  0
  121.9555  103.5384  107.2525 H   0  0  0  0  0  0  0  0  0  0  0  0
  122.2191  105.8598  103.8791 H   0  0  0  0  0  0  0  0  0  0  0  0
  121.3292  107.2614  103.2830 H   0  0  0  0  0  0  0  0  0  0  0  0
  127.2857  107.2251  106.1081 H   0  0  0  0  0  0  0  0  0  0  0  0
  126.2767  108.5486  105.5892 H   0  0  0  0  0  0  0  0  0  0  0  0
  119.5494  106.2425  105.0443 H   0  0  0  0  0  0  0  0  0  0  0  0
  1  2  2  0  0  0  0
  1  6  1  0  0  0  0
  2  7  1  0  0  0  0
  3  7  2  0  0  0  0
  3  8  1  0  0  0  0
  4  5  2  0  0  0  0
  4 12  1  0  0  0  0
  5 17  1  0  0  0  0
  6  8  2  0  0  0  0
  6 10  1  0  0  0  0
  7 13  1  0  0  0  0
  8 18  1  0  0  0  0
  9 11  1  0  0  0  0
  9 12  2  0  0  0  0
  9 17  1  0  0  0  0
 11 14  1  0  0  0  0
 14 18  1  0  0  0  0
 15 18  2  0  0  0  0
 16 18  2  0  0  0  0
  1 19  1  0  0  0  0
  2 20  1  0  0  0  0
  3 21  1  0  0  0  0
  4 22  1  0  0  0  0
  5 23  1  0  0  0  0
 10 24  1  0  0  0  0
 10 25  1  0  0  0  0
 10 26  1  0  0  0  0
 11 27  1  0  0  0  0
 11 28  1  0  0  0  0
 13 29  1  0  0  0  0
 13 30  1  0  0  0  0
 14 31  1  0  0  0  0
M  END
> <FRED Chemgauss4 score>
-6.359998

$$$$
C82887367	P129564044
  -OEChem-05182014473D

 28 27  0     1  0  0  0  0  0999 V2000
  119.3517  108.1294  107.4880 C   0  0  0  0  0  0  0  0  0  0  0  0
  120.8201  107.8802  107.5542 C   0  0  0  0  0  0  0  0  0  0  0  0
  122.6185  106.4219  106.9127 C   0  0  0  0  0  0  0  0  0  0  0  0
  120.4461  105.5127  107.3889 C   0  0  0  0  0  0  0  0  0  0  0  0
  124.8959  106.9985  105.9178 C   0  0  0  0  0  0  0  0  0  0  0  0
  123.3864  107.2465  105.8720 C   0  0  1  0  0  0  0  0  0  0  0  0
  120.3678  104.3752  106.4020 C   0  0  0  0  0  0  0  0  0  0  0  0
  122.8856  106.9421  104.5470 N   0  0  0  0  0  0  0  0  0  0  0  0
  121.1804  106.6541  106.8403 N   0  0  1  0  0  0  0  0  0  0  0  0
  125.5347  107.8023  104.9310 O   0  0  0  0  0  0  0  0  0  0  0  0
  119.6884  103.3346  106.9330 F   0  0  0  0  0  0  0  0  0  0  0  0
  119.7297  104.7462  105.2715 F   0  0  0  0  0  0  0  0  0  0  0  0
  121.5969  103.9309  106.0633 F   0  0  0  0  0  0  0  0  0  0  0  0
  119.0208  108.2420  106.4498 H   0  0  0  0  0  0  0  0  0  0  0  0
  118.7954  107.3108  107.9574 H   0  0  0  0  0  0  0  0  0  0  0  0
  119.1076  109.0552  108.0226 H   0  0  0  0  0  0  0  0  0  0  0  0
  121.1436  107.7687  108.5934 H   0  0  0  0  0  0  0  0  0  0  0  0
  121.3747  108.7060  107.0990 H   0  0  0  0  0  0  0  0  0  0  0  0
  122.9671  106.6784  107.9204 H   0  0  0  0  0  0  0  0  0  0  0  0
  122.8173  105.3530  106.7709 H   0  0  0  0  0  0  0  0  0  0  0  0
  120.9587  105.1969  108.3024 H   0  0  0  0  0  0  0  0  0  0  0  0
  119.4444  105.8611  107.6567 H   0  0  0  0  0  0  0  0  0  0  0  0
  125.3122  107.2577  106.8973 H   0  0  0  0  0  0  0  0  0  0  0  0
  125.1362  105.9543  105.6964 H   0  0  0  0  0  0  0  0  0  0  0  0
  123.1855  108.3148  106.0206 H   0  0  0  0  0  0  0  0  0  0  0  0
  123.4714  107.1330  103.7562 H   0  0  0  0  0  0  0  0  0  0  0  0
  121.9090  106.7448  104.4360 H   0  0  0  0  0  0  0  0  0  0  0  0
  126.4846  107.6157  104.9937 H   0  0  0  0  0  0  0  0  0  0  0  0
  1  2  1  0  0  0  0
  2  9  1  0  0  0  0
  3  6  1  0  0  0  0
  3  9  1  0  0  0  0
  4  7  1  0  0  0  0
  4  9  1  0  0  0  0
  5  6  1  0  0  0  0
  5 10  1  0  0  0  0
  6  8  1  0  0  0  0
  7 11  1  0  0  0  0
  7 12  1  0  0  0  0
  7 13  1  0  0  0  0
  1 14  1  0  0  0  0
  1 15  1  0  0  0  0
  1 16  1  0  0  0  0
  2 17  1  0  0  0  0
  2 18  1  0  0  0  0
  3 19  1  0  0  0  0
  3 20  1  0  0  0  0
  4 21  1  0  0  0  0
  4 22  1  0  0  0  0
  5 23  1  0  0  0  0
  5 24  1  0  0  0  0
  6 25  1  0  0  0  0
  8 26  1  0  0  0  0
  8 27  1  0  0  0  0
 10 28  1  0  0  0  0
M  END
> <FRED Chemgauss4 score>
-6.359581

$$$$
C94072275	P147433706
  -OEChem-05182014473D

 44 45  0     0  0  0  0  0  0999 V2000
  126.9723  105.9163  108.9382 C   0  0  0  0  0  0  0  0  0  0  0  0
  127.1163  106.3526  107.6370 C   0  0  0  0  0  0  0  0  0  0  0  0
  125.7734  105.2992  109.2317 C   0  0  0  0  0  0  0  0  0  0  0  0
  125.0456  105.5858  107.0974 C   0  0  0  0  0  0  0  0  0  0  0  0
  123.5113  106.4614  105.5497 C   0  0  0  0  0  0  0  0  0  0  0  0
  119.4427  105.4892  106.7746 C   0  0  0  0  0  0  0  0  0  0  0  0
  119.5869  103.6431  105.0672 C   0  0  0  0  0  0  0  0  0  0  0  0
  120.4946  106.2550  105.9658 C   0  0  0  0  0  0  0  0  0  0  0  0
  120.6336  104.4780  104.3227 C   0  0  0  0  0  0  0  0  0  0  0  0
  118.6522  104.5051  105.9142 C   0  0  0  0  0  0  0  0  0  0  0  0
  122.4220  106.0777  104.5324 C   0  0  0  0  0  0  0  0  0  0  0  0
  115.7478  105.1753  103.7455 C   0  0  0  0  0  0  0  0  0  0  0  0
  115.1233  106.3181  104.5276 C   0  0  0  0  0  0  0  0  0  0  0  0
  116.6959  104.3614  104.6143 C   0  0  0  0  0  0  0  0  0  0  0  0
  126.1699  106.2033  106.6872 N   0  0  0  0  0  0  0  0  0  0  0  0
  124.7843  105.1167  108.3324 N   0  0  0  0  0  0  0  0  0  0  0  0
  124.0354  105.4124  106.1321 N   0  0  0  0  0  0  0  0  0  0  0  0
  121.3867  105.3336  105.2496 N   0  0  0  0  0  0  0  0  0  0  0  0
  114.3241  105.7620  105.6457 N   0  3  0  0  0  0  0  0  0  0  0  0
  123.7438  107.6838  105.6893 O   0  5  0  0  0  0  0  0  0  0  0  0
  117.7387  105.2090  105.0760 O   0  0  0  0  0  0  0  0  0  0  0  0
  127.7485  106.0494  109.6797 H   0  0  0  0  0  0  0  0  0  0  0  0
  128.0244  106.8495  107.3124 H   0  0  0  0  0  0  0  0  0  0  0  0
  125.5686  104.9230  110.2283 H   0  0  0  0  0  0  0  0  0  0  0  0
  119.9258  104.9502  107.6037 H   0  0  0  0  0  0  0  0  0  0  0  0
  118.7512  106.1990  107.2569 H   0  0  0  0  0  0  0  0  0  0  0  0
  118.9968  103.0527  104.3473 H   0  0  0  0  0  0  0  0  0  0  0  0
  120.0872  102.9002  105.7069 H   0  0  0  0  0  0  0  0  0  0  0  0
  119.9697  106.8984  105.2491 H   0  0  0  0  0  0  0  0  0  0  0  0
  121.0652  106.9118  106.6356 H   0  0  0  0  0  0  0  0  0  0  0  0
  121.3080  103.8112  103.7690 H   0  0  0  0  0  0  0  0  0  0  0  0
  120.1104  105.0987  103.5850 H   0  0  0  0  0  0  0  0  0  0  0  0
  118.0498  103.8494  106.5756 H   0  0  0  0  0  0  0  0  0  0  0  0
  121.9920  106.9643  104.0526 H   0  0  0  0  0  0  0  0  0  0  0  0
  122.8593  105.4454  103.7516 H   0  0  0  0  0  0  0  0  0  0  0  0
  116.2934  105.5592  102.8739 H   0  0  0  0  0  0  0  0  0  0  0  0
  114.9695  104.5157  103.3412 H   0  0  0  0  0  0  0  0  0  0  0  0
  114.4395  106.9104  103.9125 H   0  0  0  0  0  0  0  0  0  0  0  0
  115.8794  106.9718  104.9723 H   0  0  0  0  0  0  0  0  0  0  0  0
  117.1412  103.5406  104.0434 H   0  0  0  0  0  0  0  0  0  0  0  0
  116.1724  103.9489  105.4828 H   0  0  0  0  0  0  0  0  0  0  0  0
  114.9291  105.3162  106.3441 H   0  0  0  0  0  0  0  0  0  0  0  0
  113.6603  105.0566  105.3073 H   0  0  0  0  0  0  0  0  0  0  0  0
  113.7883  106.4991  106.1170 H   0  0  0  0  0  0  0  0  0  0  0  0
  1  2  1  0  0  0  0
  1  3  2  0  0  0  0
  2 15  2  0  0  0  0
  3 16  1  0  0  0  0
  4 15  1  0  0  0  0
  4 16  2  0  0  0  0
  4 17  1  0  0  0  0
  5 11  1  0  0  0  0
  5 17  2  0  0  0  0
  5 20  1  0  0  0  0
  6  8  1  0  0  0  0
  6 10  1  0  0  0  0
  7  9  1  0  0  0  0
  7 10  1  0  0  0  0
  8 18  1  0  0  0  0
  9 18  1  0  0  0  0
 10 21  1  0  0  0  0
 11 18  1  0  0  0  0
 12 13  1  0  0  0  0
 12 14  1  0  0  0  0
 13 19  1  0  0  0  0
 14 21  1  0  0  0  0
  1 22  1  0  0  0  0
  2 23  1  0  0  0  0
  3 24  1  0  0  0  0
  6 25  1  0  0  0  0
  6 26  1  0  0  0  0
  7 27  1  0  0  0  0
  7 28  1  0  0  0  0
  8 29  1  0  0  0  0
  8 30  1  0  0  0  0
  9 31  1  0  0  0  0
  9 32  1  0  0  0  0
 10 33  1  0  0  0  0
 11 34  1  0  0  0  0
 11 35  1  0  0  0  0
 12 36  1  0  0  0  0
 12 37  1  0  0  0  0
 13 38  1  0  0  0  0
 13 39  1  0  0  0  0
 14 40  1  0  0  0  0
 14 41  1  0  0  0  0
 19 42  1  0  0  0  0
 19 43  1  0  0  0  0
 19 44  1  0  0  0  0
M  CHG  2  19   1  20  -1
M  END
> <FRED Chemgauss4 score>
-6.357260

$$$$
C63065427	P96833789
  -OEChem-05182014473D

 25 25  0     1  0  0  0  0  0999 V2000
  120.6031  105.0605  104.8796 C   0  0  0  0  0  0  0  0  0  0  0  0
  120.9901  106.2710  104.3417 C   0  0  0  0  0  0  0  0  0  0  0  0
  121.4019  104.5758  105.8951 C   0  0  0  0  0  0  0  0  0  0  0  0
  122.7691  106.3862  105.7521 C   0  0  0  0  0  0  0  0  0  0  0  0
  121.0632  103.2731  106.5384 C   0  0  0  0  0  0  0  0  0  0  0  0
  124.7065  106.4075  107.3998 C   0  0  0  0  0  0  0  0  0  0  0  0
  124.9914  107.3939  105.1009 C   0  0  0  0  0  0  0  0  0  0  0  0
  123.9988  107.1379  106.2466 C   0  0  1  0  0  0  0  0  0  0  0  0
  122.0715  106.9636  104.7554 N   0  0  0  0  0  0  0  0  0  0  0  0
  122.4965  105.2147  106.3578 N   0  0  0  0  0  0  0  0  0  0  0  0
  125.5365  107.3573  108.1792 N   0  0  0  0  0  0  0  0  0  0  0  0
  126.1163  108.1139  105.5936 O   0  0  0  0  0  0  0  0  0  0  0  0
  119.7283  104.5337  104.5209 H   0  0  0  0  0  0  0  0  0  0  0  0
  120.4243  106.7316  103.5385 H   0  0  0  0  0  0  0  0  0  0  0  0
  121.5568  102.4476  106.0114 H   0  0  0  0  0  0  0  0  0  0  0  0
  121.3794  103.2540  107.5892 H   0  0  0  0  0  0  0  0  0  0  0  0
  119.9802  103.0943  106.5290 H   0  0  0  0  0  0  0  0  0  0  0  0
  125.3438  105.5893  107.0488 H   0  0  0  0  0  0  0  0  0  0  0  0
  123.9667  105.9810  108.0869 H   0  0  0  0  0  0  0  0  0  0  0  0
  125.3447  106.4645  104.6420 H   0  0  0  0  0  0  0  0  0  0  0  0
  124.5241  108.0058  104.3218 H   0  0  0  0  0  0  0  0  0  0  0  0
  123.6664  108.1182  106.6169 H   0  0  0  0  0  0  0  0  0  0  0  0
  126.0421  108.0326  107.6676 H   0  0  0  0  0  0  0  0  0  0  0  0
  125.6962  107.1367  109.1275 H   0  0  0  0  0  0  0  0  0  0  0  0
  126.7108  108.2508  104.8391 H   0  0  0  0  0  0  0  0  0  0  0  0
  1  2  2  0  0  0  0
  1  3  1  0  0  0  0
  2  9  1  0  0  0  0
  3  5  1  0  0  0  0
  3 10  2  0  0  0  0
  4  8  1  0  0  0  0
  4  9  2  0  0  0  0
  4 10  1  0  0  0  0
  6  8  1  0  0  0  0
  6 11  1  0  0  0  0
  7  8  1  0  0  0  0
  7 12  1  0  0  0  0
  1 13  1  0  0  0  0
  2 14  1  0  0  0  0
  5 15  1  0  0  0  0
  5 16  1  0  0  0  0
  5 17  1  0  0  0  0
  6 18  1  0  0  0  0
  6 19  1  0  0  0  0
  7 20  1  0  0  0  0
  7 21  1  0  0  0  0
  8 22  1  0  0  0  0
 11 23  1  0  0  0  0
 11 24  1  0  0  0  0
 12 25  1  0  0  0  0
M  END
> <FRED Chemgauss4 score>
-6.352330

$$$$
C85248143	P133396850
  -OEChem-05182014473D

 29 29  0     1  0  0  0  0  0999 V2000
  120.0953  104.9899  106.5536 C   0  0  0  0  0  0  0  0  0  0  0  0
  120.0411  103.9941  104.7455 C   0  0  0  0  0  0  0  0  0  0  0  0
  120.7639  105.2778  105.1959 C   0  0  0  0  0  0  0  0  0  0  0  0
  120.2911  106.5506  104.5090 C   0  0  0  0  0  0  0  0  0  0  0  0
  122.2836  105.1572  105.2171 C   0  0  0  0  0  0  0  0  0  0  0  0
  124.2233  106.1240  106.2484 C   0  0  0  0  0  0  0  0  0  0  0  0
  124.3279  108.4183  107.3583 C   0  0  0  0  0  0  0  0  0  0  0  0
  124.9830  107.4435  106.3847 C   0  0  2  0  0  0  0  0  0  0  0  0
  122.8564  106.3439  105.7596 N   0  0  0  0  0  0  0  0  0  0  0  0
  119.6684  103.6791  106.1092 O   0  0  0  0  0  0  0  0  0  0  0  0
  124.2442  107.8022  108.6399 O   0  0  0  0  0  0  0  0  0  0  0  0
  125.0819  108.0748  105.1076 O   0  0  0  0  0  0  0  0  0  0  0  0
  120.7643  104.9241  107.4169 H   0  0  0  0  0  0  0  0  0  0  0  0
  119.2335  105.6138  106.8123 H   0  0  0  0  0  0  0  0  0  0  0  0
  119.1529  104.1306  104.1200 H   0  0  0  0  0  0  0  0  0  0  0  0
  120.6716  103.2130  104.3101 H   0  0  0  0  0  0  0  0  0  0  0  0
  120.8113  106.6792  103.5590 H   0  0  0  0  0  0  0  0  0  0  0  0
  120.4944  107.4154  105.1417 H   0  0  0  0  0  0  0  0  0  0  0  0
  119.2184  106.4974  104.3188 H   0  0  0  0  0  0  0  0  0  0  0  0
  122.6377  105.0211  104.2029 H   0  0  0  0  0  0  0  0  0  0  0  0
  122.5633  104.3122  105.8330 H   0  0  0  0  0  0  0  0  0  0  0  0
  124.7385  105.4672  105.5395 H   0  0  0  0  0  0  0  0  0  0  0  0
  124.1814  105.6089  107.2138 H   0  0  0  0  0  0  0  0  0  0  0  0
  123.3130  108.6724  107.0373 H   0  0  0  0  0  0  0  0  0  0  0  0
  124.9188  109.3331  107.4697 H   0  0  0  0  0  0  0  0  0  0  0  0
  126.0090  107.2384  106.7126 H   0  0  0  0  0  0  0  0  0  0  0  0
  122.8931  107.0911  105.0509 H   0  0  0  0  0  0  0  0  0  0  0  0
  123.8247  108.4473  109.2305 H   0  0  0  0  0  0  0  0  0  0  0  0
  125.5605  107.4578  104.5340 H   0  0  0  0  0  0  0  0  0  0  0  0
  1  3  1  0  0  0  0
  1 10  1  0  0  0  0
  2  3  1  0  0  0  0
  2 10  1  0  0  0  0
  3  4  1  0  0  0  0
  3  5  1  0  0  0  0
  5  9  1  0  0  0  0
  6  8  1  0  0  0  0
  6  9  1  0  0  0  0
  7  8  1  0  0  0  0
  7 11  1  0  0  0  0
  8 12  1  0  0  0  0
  1 13  1  0  0  0  0
  1 14  1  0  0  0  0
  2 15  1  0  0  0  0
  2 16  1  0  0  0  0
  4 17  1  0  0  0  0
  4 18  1  0  0  0  0
  4 19  1  0  0  0  0
  5 20  1  0  0  0  0
  5 21  1  0  0  0  0
  6 22  1  0  0  0  0
  6 23  1  0  0  0  0
  7 24  1  0  0  0  0
  7 25  1  0  0  0  0
  8 26  1  0  0  0  0
  9 27  1  0  0  0  0
 11 28  1  0  0  0  0
 12 29  1  0  0  0  0
M  END
> <FRED Chemgauss4 score>
-6.351949

$$$$
C90805554	P142050179
  -OEChem-05182014473D

 29 29  0     1  0  0  0  0  0999 V2000
  123.2901  104.8055  107.4075 C   0  0  0  0  0  0  0  0  0  0  0  0
  124.6277  104.8553  107.4316 C   0  0  0  0  0  0  0  0  0  0  0  0
  125.3096  105.9109  106.6366 C   0  0  0  0  0  0  0  0  0  0  0  0
  123.0610  106.7036  105.9085 C   0  0  0  0  0  0  0  0  0  0  0  0
  126.1014  102.8765  107.2968 C   0  0  0  0  0  0  0  0  0  0  0  0
  125.4771  103.9062  108.2143 C   0  0  0  0  0  0  0  0  0  0  0  0
  120.5841  105.7075  108.1992 C   0  0  0  0  0  0  0  0  0  0  0  0
  121.0569  105.5058  106.7534 C   0  0  2  0  0  0  0  0  0  0  0  0
  120.6822  104.1500  106.1729 C   0  0  0  0  0  0  0  0  0  0  0  0
  124.4591  106.7527  105.9360 N   0  0  0  0  0  0  0  0  0  0  0  0
  122.5034  105.6794  106.6855 N   0  0  0  0  0  0  0  0  0  0  0  0
  120.9640  107.0099  108.7338 N   0  0  0  0  0  0  0  0  0  0  0  0
  126.5334  106.0116  106.6160 O   0  0  0  0  0  0  0  0  0  0  0  0
  122.4082  107.5113  105.2443 O   0  0  0  0  0  0  0  0  0  0  0  0
  121.1643  104.0133  104.9164 F   0  0  0  0  0  0  0  0  0  0  0  0
  121.1932  103.1370  106.9059 F   0  0  0  0  0  0  0  0  0  0  0  0
  119.3428  103.9851  106.1194 F   0  0  0  0  0  0  0  0  0  0  0  0
  122.7530  104.0506  107.9736 H   0  0  0  0  0  0  0  0  0  0  0  0
  125.3238  102.3045  106.7814 H   0  0  0  0  0  0  0  0  0  0  0  0
  126.7280  102.1764  107.8597 H   0  0  0  0  0  0  0  0  0  0  0  0
  126.7342  103.3535  106.5410 H   0  0  0  0  0  0  0  0  0  0  0  0
  126.2486  104.4815  108.7325 H   0  0  0  0  0  0  0  0  0  0  0  0
  124.8425  103.4218  108.9609 H   0  0  0  0  0  0  0  0  0  0  0  0
  119.4915  105.6244  108.2429 H   0  0  0  0  0  0  0  0  0  0  0  0
  120.9855  104.9169  108.8445 H   0  0  0  0  0  0  0  0  0  0  0  0
  120.6310  106.2912  106.1177 H   0  0  0  0  0  0  0  0  0  0  0  0
  124.8970  107.4843  105.3830 H   0  0  0  0  0  0  0  0  0  0  0  0
  121.0461  107.1073  109.7235 H   0  0  0  0  0  0  0  0  0  0  0  0
  120.9295  107.7982  108.1227 H   0  0  0  0  0  0  0  0  0  0  0  0
  1  2  2  0  0  0  0
  1 11  1  0  0  0  0
  2  3  1  0  0  0  0
  2  6  1  0  0  0  0
  3 10  1  0  0  0  0
  3 13  2  0  0  0  0
  4 10  1  0  0  0  0
  4 11  1  0  0  0  0
  4 14  2  0  0  0  0
  5  6  1  0  0  0  0
  7  8  1  0  0  0  0
  7 12  1  0  0  0  0
  8  9  1  0  0  0  0
  8 11  1  0  0  0  0
  9 15  1  0  0  0  0
  9 16  1  0  0  0  0
  9 17  1  0  0  0  0
  1 18  1  0  0  0  0
  5 19  1  0  0  0  0
  5 20  1  0  0  0  0
  5 21  1  0  0  0  0
  6 22  1  0  0  0  0
  6 23  1  0  0  0  0
  7 24  1  0  0  0  0
  7 25  1  0  0  0  0
  8 26  1  0  0  0  0
 10 27  1  0  0  0  0
 12 28  1  0  0  0  0
 12 29  1  0  0  0  0
M  END
> <FRED Chemgauss4 score>
-6.350203

$$$$
C37461511	P55710219
  -OEChem-05182014473D

 27 27  0     1  0  0  0  0  0999 V2000
  122.7007  105.3164  106.4005 C   0  0  0  0  0  0  0  0  0  0  0  0
  126.1678  105.7147  107.9324 C   0  0  0  0  0  0  0  0  0  0  0  0
  124.4780  103.8337  107.5033 C   0  0  0  0  0  0  0  0  0  0  0  0
  123.7161  105.1286  107.4430 C   0  0  1  0  0  0  0  0  0  0  0  0
  125.1746  105.0879  107.0529 C   0  0  1  0  0  0  0  0  0  0  0  0
  120.6484  104.3136  105.4183 C   0  0  0  0  0  0  0  0  0  0  0  0
  119.4121  103.6363  105.9779 C   0  0  0  0  0  0  0  0  0  0  0  0
  118.7563  102.8090  103.5414 N   0  0  0  0  0  0  0  0  0  0  0  0
  121.7406  104.3233  106.3649 N   0  0  0  0  0  0  0  0  0  0  0  0
  122.7640  106.2943  105.6647 O   0  0  0  0  0  0  0  0  0  0  0  0
  126.0999  105.7540  109.1519 O   0  0  0  0  0  0  0  0  0  0  0  0
  116.9821  102.8670  105.4030 O   0  0  0  0  0  0  0  0  0  0  0  0
  117.8372  105.0391  104.4353 O   0  0  0  0  0  0  0  0  0  0  0  0
  127.1789  106.2516  107.2066 O   0  0  0  0  0  0  0  0  0  0  0  0
  118.0602  103.6628  104.8425 S   0  0  0  0  0  0  0  0  0  0  0  0
  124.7113  103.4339  108.4832 H   0  0  0  0  0  0  0  0  0  0  0  0
  124.2745  103.0765  106.7552 H   0  0  0  0  0  0  0  0  0  0  0  0
  123.4677  105.5858  108.3956 H   0  0  0  0  0  0  0  0  0  0  0  0
  125.4094  105.1548  105.9954 H   0  0  0  0  0  0  0  0  0  0  0  0
  121.0029  103.8160  104.5102 H   0  0  0  0  0  0  0  0  0  0  0  0
  120.4284  105.3577  105.1760 H   0  0  0  0  0  0  0  0  0  0  0  0
  119.0669  104.1562  106.8766 H   0  0  0  0  0  0  0  0  0  0  0  0
  119.6007  102.5877  106.2271 H   0  0  0  0  0  0  0  0  0  0  0  0
  118.4114  101.8598  103.3529 H   0  0  0  0  0  0  0  0  0  0  0  0
  118.9939  103.3391  102.6939 H   0  0  0  0  0  0  0  0  0  0  0  0
  121.8054  103.5639  107.0361 H   0  0  0  0  0  0  0  0  0  0  0  0
  127.8534  106.6778  107.7773 H   0  0  0  0  0  0  0  0  0  0  0  0
  1  4  1  0  0  0  0
  1  9  1  0  0  0  0
  1 10  2  0  0  0  0
  2  5  1  0  0  0  0
  2 11  2  0  0  0  0
  2 14  1  0  0  0  0
  3  4  1  0  0  0  0
  3  5  1  0  0  0  0
  4  5  1  0  0  0  0
  6  7  1  0  0  0  0
  6  9  1  0  0  0  0
  7 15  1  0  0  0  0
  8 15  1  0  0  0  0
 12 15  2  0  0  0  0
 13 15  2  0  0  0  0
  3 16  1  0  0  0  0
  3 17  1  0  0  0  0
  4 18  1  0  0  0  0
  5 19  1  0  0  0  0
  6 20  1  0  0  0  0
  6 21  1  0  0  0  0
  7 22  1  0  0  0  0
  7 23  1  0  0  0  0
  8 24  1  0  0  0  0
  8 25  1  0  0  0  0
  9 26  1  0  0  0  0
 14 27  1  0  0  0  0
M  END
> <FRED Chemgauss4 score>
-6.349830

$$$$
C34519122	P151017257
  -OEChem-05182014473D

 24 24  0     1  0  0  0  0  0999 V2000
  124.0953  106.8640  108.3682 C   0  0  1  0  0  0  0  0  0  0  0  0
  123.7635  107.8366  107.2554 C   0  0  2  0  0  0  0  0  0  0  0  0
  123.4133  105.5891  107.8920 C   0  0  1  0  0  0  0  0  0  0  0  0
  123.7778  106.9533  106.0038 C   0  0  1  0  0  0  0  0  0  0  0  0
  121.9481  105.5018  108.2989 C   0  0  0  0  0  0  0  0  0  0  0  0
  125.1089  106.9075  105.2577 C   0  0  0  0  0  0  0  0  0  0  0  0
  123.4795  105.6143  106.4503 O   0  0  0  0  0  0  0  0  0  0  0  0
  125.4983  106.6247  108.4345 O   0  0  0  0  0  0  0  0  0  0  0  0
  124.6603  108.9276  107.2074 O   0  0  0  0  0  0  0  0  0  0  0  0
  122.8013  107.4005  105.0643 O   0  0  0  0  0  0  0  0  0  0  0  0
  121.4063  104.2899  107.8002 O   0  0  0  0  0  0  0  0  0  0  0  0
  125.4361  108.2191  104.8333 O   0  0  0  0  0  0  0  0  0  0  0  0
  123.7399  107.1943  109.3109 H   0  0  0  0  0  0  0  0  0  0  0  0
  122.7254  108.2842  107.4407 H   0  0  0  0  0  0  0  0  0  0  0  0
  123.9340  104.6999  108.2364 H   0  0  0  0  0  0  0  0  0  0  0  0
  121.3879  106.3409  107.8800 H   0  0  0  0  0  0  0  0  0  0  0  0
  121.8557  105.5116  109.3873 H   0  0  0  0  0  0  0  0  0  0  0  0
  125.0271  106.2582  104.3848 H   0  0  0  0  0  0  0  0  0  0  0  0
  125.8955  106.5372  105.9166 H   0  0  0  0  0  0  0  0  0  0  0  0
  125.6503  105.9967  109.1627 H   0  0  0  0  0  0  0  0  0  0  0  0
  124.3725  109.4914  106.4722 H   0  0  0  0  0  0  0  0  0  0  0  0
  121.9454  107.3403  105.5132 H   0  0  0  0  0  0  0  0  0  0  0  0
  120.4743  104.2622  108.0744 H   0  0  0  0  0  0  0  0  0  0  0  0
  126.2848  108.1624  104.3625 H   0  0  0  0  0  0  0  0  0  0  0  0
  1  2  1  0  0  0  0
  1  3  1  0  0  0  0
  1  8  1  0  0  0  0
  2  4  1  0  0  0  0
  2  9  1  0  0  0  0
  3  5  1  0  0  0  0
  3  7  1  0  0  0  0
  4  6  1  0  0  0  0
  4  7  1  0  0  0  0
  4 10  1  0  0  0  0
  5 11  1  0  0  0  0
  6 12  1  0  0  0  0
  1 13  1  0  0  0  0
  2 14  1  0  0  0  0
  3 15  1  0  0  0  0
  5 16  1  0  0  0  0
  5 17  1  0  0  0  0
  6 18  1  0  0  0  0
  6 19  1  0  0  0  0
  8 20  1  0  0  0  0
  9 21  1  0  0  0  0
 10 22  1  0  0  0  0
 11 23  1  0  0  0  0
 12 24  1  0  0  0  0
M  END
> <FRED Chemgauss4 score>
-6.348440

$$$$
C82897318	P129593492
  -OEChem-05182014473D

 27 27  0     1  0  0  0  0  0999 V2000
  122.6966  107.1741  106.1009 C   0  0  0  0  0  0  0  0  0  0  0  0
  121.2154  106.0571  105.0574 C   0  0  0  0  0  0  0  0  0  0  0  0
  121.4292  105.3761  106.2326 C   0  0  0  0  0  0  0  0  0  0  0  0
  120.2905  105.7251  103.9622 C   0  0  0  0  0  0  0  0  0  0  0  0
  120.8355  104.1412  106.7753 C   0  0  0  0  0  0  0  0  0  0  0  0
  122.9827  105.7988  108.2412 C   0  0  0  0  0  0  0  0  0  0  0  0
  125.2923  106.0324  107.1205 C   0  0  0  0  0  0  0  0  0  0  0  0
  124.4455  106.2619  108.3792 C   0  0  1  0  0  0  0  0  0  0  0  0
  122.0076  107.1752  104.9814 N   0  0  0  0  0  0  0  0  0  0  0  0
  122.3809  106.1034  106.8903 N   0  0  0  0  0  0  0  0  0  0  0  0
  124.4513  107.6945  108.6974 N   0  0  0  0  0  0  0  0  0  0  0  0
  126.6795  106.0378  107.4300 O   0  0  0  0  0  0  0  0  0  0  0  0
  123.4301  107.9137  106.3917 H   0  0  0  0  0  0  0  0  0  0  0  0
  119.3004  106.1881  104.1180 H   0  0  0  0  0  0  0  0  0  0  0  0
  120.6650  106.0668  102.9802 H   0  0  0  0  0  0  0  0  0  0  0  0
  120.1347  104.6355  103.8620 H   0  0  0  0  0  0  0  0  0  0  0  0
  121.4114  103.2521  106.4672 H   0  0  0  0  0  0  0  0  0  0  0  0
  120.7978  104.1477  107.8789 H   0  0  0  0  0  0  0  0  0  0  0  0
  119.7940  103.9970  106.4377 H   0  0  0  0  0  0  0  0  0  0  0  0
  122.3607  106.2955  108.9992 H   0  0  0  0  0  0  0  0  0  0  0  0
  122.8949  104.7250  108.4541 H   0  0  0  0  0  0  0  0  0  0  0  0
  125.0480  105.0669  106.6654 H   0  0  0  0  0  0  0  0  0  0  0  0
  125.0996  106.8091  106.3714 H   0  0  0  0  0  0  0  0  0  0  0  0
  124.9234  105.7350  109.2141 H   0  0  0  0  0  0  0  0  0  0  0  0
  125.2767  108.2092  108.4951 H   0  0  0  0  0  0  0  0  0  0  0  0
  123.7236  108.0414  109.2783 H   0  0  0  0  0  0  0  0  0  0  0  0
  127.1532  105.8886  106.5958 H   0  0  0  0  0  0  0  0  0  0  0  0
  1  9  2  0  0  0  0
  1 10  1  0  0  0  0
  2  3  2  0  0  0  0
  2  4  1  0  0  0  0
  2  9  1  0  0  0  0
  3  5  1  0  0  0  0
  3 10  1  0  0  0  0
  6  8  1  0  0  0  0
  6 10  1  0  0  0  0
  7  8  1  0  0  0  0
  7 12  1  0  0  0  0
  8 11  1  0  0  0  0
  1 13  1  0  0  0  0
  4 14  1  0  0  0  0
  4 15  1  0  0  0  0
  4 16  1  0  0  0  0
  5 17  1  0  0  0  0
  5 18  1  0  0  0  0
  5 19  1  0  0  0  0
  6 20  1  0  0  0  0
  6 21  1  0  0  0  0
  7 22  1  0  0  0  0
  7 23  1  0  0  0  0
  8 24  1  0  0  0  0
 11 25  1  0  0  0  0
 11 26  1  0  0  0  0
 12 27  1  0  0  0  0
M  END
> <FRED Chemgauss4 score>
-6.348348

$$$$
C88062526	P137750046
  -OEChem-05182014473D

 26 26  0     1  0  0  0  0  0999 V2000
  120.6959  105.3549  103.5468 C   0  0  0  0  0  0  0  0  0  0  0  0
  119.4853  105.2635  106.2188 C   0  0  0  0  0  0  0  0  0  0  0  0
  119.2282  103.7978  106.4217 C   0  0  0  0  0  0  0  0  0  0  0  0
  120.4180  104.2455  105.6053 C   0  0  0  0  0  0  0  0  0  0  0  0
  120.3652  104.0484  104.1152 C   0  0  0  0  0  0  0  0  0  0  0  0
  121.7864  104.0886  106.2092 C   0  0  0  0  0  0  0  0  0  0  0  0
  125.1887  106.2483  107.0904 C   0  0  0  0  0  0  0  0  0  0  0  0
  124.2370  105.1226  106.7228 C   0  0  0  0  0  0  0  0  0  0  0  0
  120.9562  106.3861  103.0823 N   0  0  0  0  0  0  0  0  0  0  0  0
  126.5562  105.8109  107.1755 N   0  0  0  0  0  0  0  0  0  0  0  0
  122.3999  106.6012  105.4624 O   0  0  0  0  0  0  0  0  0  0  0  0
  122.5136  105.6928  106.6733 S   0  0  1  0  0  0  0  0  0  0  0  0
  118.8100  105.8071  105.5687 H   0  0  0  0  0  0  0  0  0  0  0  0
  119.8302  105.8363  107.0715 H   0  0  0  0  0  0  0  0  0  0  0  0
  119.4010  103.3891  107.4102 H   0  0  0  0  0  0  0  0  0  0  0  0
  118.3808  103.3599  105.9074 H   0  0  0  0  0  0  0  0  0  0  0  0
  119.3663  103.7254  103.8181 H   0  0  0  0  0  0  0  0  0  0  0  0
  121.0877  103.2882  103.8148 H   0  0  0  0  0  0  0  0  0  0  0  0
  122.4786  103.6113  105.5033 H   0  0  0  0  0  0  0  0  0  0  0  0
  121.7512  103.4736  107.1179 H   0  0  0  0  0  0  0  0  0  0  0  0
  124.9275  106.6511  108.0741 H   0  0  0  0  0  0  0  0  0  0  0  0
  125.1473  107.0661  106.3636 H   0  0  0  0  0  0  0  0  0  0  0  0
  124.2842  104.3306  107.4765 H   0  0  0  0  0  0  0  0  0  0  0  0
  124.4769  104.6909  105.7460 H   0  0  0  0  0  0  0  0  0  0  0  0
  126.7577  104.8999  107.5555 H   0  0  0  0  0  0  0  0  0  0  0  0
  127.2956  106.4838  107.0498 H   0  0  0  0  0  0  0  0  0  0  0  0
  1  5  1  0  0  0  0
  1  9  3  0  0  0  0
  2  3  1  0  0  0  0
  2  4  1  0  0  0  0
  3  4  1  0  0  0  0
  4  5  1  0  0  0  0
  4  6  1  0  0  0  0
  6 12  1  0  0  0  0
  7  8  1  0  0  0  0
  7 10  1  0  0  0  0
  8 12  1  0  0  0  0
 11 12  2  0  0  0  0
  2 13  1  0  0  0  0
  2 14  1  0  0  0  0
  3 15  1  0  0  0  0
  3 16  1  0  0  0  0
  5 17  1  0  0  0  0
  5 18  1  0  0  0  0
  6 19  1  0  0  0  0
  6 20  1  0  0  0  0
  7 21  1  0  0  0  0
  7 22  1  0  0  0  0
  8 23  1  0  0  0  0
  8 24  1  0  0  0  0
 10 25  1  0  0  0  0
 10 26  1  0  0  0  0
M  END
> <FRED Chemgauss4 score>
-6.344754

$$$$
C40366541	P61281403
  -OEChem-05182014473D

 21 20  0     1  0  0  0  0  0999 V2000
  124.1885  103.5935  107.3926 C   0  0  0  0  0  0  0  0  0  0  0  0
  122.3775  104.6160  105.9141 C   0  0  0  0  0  0  0  0  0  0  0  0
  123.5968  104.8764  106.8066 C   0  0  2  0  0  0  0  0  0  0  0  0
  124.9714  107.8024  107.3647 C   0  0  0  0  0  0  0  0  0  0  0  0
  124.6298  105.6089  106.0738 N   0  5  0  0  0  0  0  0  0  0  0  0
  121.2920  103.9267  106.6556 N   0  3  0  0  0  0  0  0  0  0  0  0
  122.8259  107.4594  106.0319 O   0  0  0  0  0  0  0  0  0  0  0  0
  124.9431  107.8440  104.8168 O   0  0  0  0  0  0  0  0  0  0  0  0
  124.7657  109.1425  107.4387 F   0  0  0  0  0  0  0  0  0  0  0  0
  124.4119  107.2614  108.4764 F   0  0  0  0  0  0  0  0  0  0  0  0
  124.2430  107.1397  105.8870 S   0  0  0  0  0  0  0  0  0  0  0  0
  124.5539  102.9372  106.5940 H   0  0  0  0  0  0  0  0  0  0  0  0
  123.4319  103.0393  107.9585 H   0  0  0  0  0  0  0  0  0  0  0  0
  125.0359  103.7931  108.0579 H   0  0  0  0  0  0  0  0  0  0  0  0
  122.6322  103.9717  105.0665 H   0  0  0  0  0  0  0  0  0  0  0  0
  121.9480  105.5491  105.5341 H   0  0  0  0  0  0  0  0  0  0  0  0
  123.2512  105.4867  107.6517 H   0  0  0  0  0  0  0  0  0  0  0  0
  126.0476  107.6111  107.3688 H   0  0  0  0  0  0  0  0  0  0  0  0
  121.2383  102.9377  106.3907 H   0  0  0  0  0  0  0  0  0  0  0  0
  120.3829  104.3576  106.4569 H   0  0  0  0  0  0  0  0  0  0  0  0
  121.4515  103.9756  107.6673 H   0  0  0  0  0  0  0  0  0  0  0  0
  1  3  1  0  0  0  0
  2  3  1  0  0  0  0
  2  6  1  0  0  0  0
  3  5  1  0  0  0  0
  4  9  1  0  0  0  0
  4 10  1  0  0  0  0
  4 11  1  0  0  0  0
  5 11  1  0  0  0  0
  7 11  2  0  0  0  0
  8 11  2  0  0  0  0
  1 12  1  0  0  0  0
  1 13  1  0  0  0  0
  1 14  1  0  0  0  0
  2 15  1  0  0  0  0
  2 16  1  0  0  0  0
  3 17  1  0  0  0  0
  4 18  1  0  0  0  0
  6 19  1  0  0  0  0
  6 20  1  0  0  0  0
  6 21  1  0  0  0  0
M  CHG  2   5  -1   6   1
M  END
> <FRED Chemgauss4 score>
-6.340428

$$$$
C01532575	P57081966
  -OEChem-05182014473D

 20 20  0     1  0  0  0  0  0999 V2000
  124.1016  104.8438  107.5935 C   0  0  0  0  0  0  0  0  0  0  0  0
  125.4854  105.4500  107.7893 C   0  0  1  0  0  0  0  0  0  0  0  0
  125.8653  106.3044  106.5811 C   0  0  1  0  0  0  0  0  0  0  0  0
  124.7638  107.3091  106.2473 C   0  0  2  0  0  0  0  0  0  0  0  0
  123.4049  106.6098  106.1556 C   0  0  1  0  0  0  0  0  0  0  0  0
  123.1352  105.8677  107.3435 O   0  0  0  0  0  0  0  0  0  0  0  0
  125.4450  106.2563  108.9679 O   0  0  0  0  0  0  0  0  0  0  0  0
  127.0792  107.0048  106.8387 O   0  0  0  0  0  0  0  0  0  0  0  0
  125.0698  107.9132  104.9909 O   0  0  0  0  0  0  0  0  0  0  0  0
  122.4083  107.6154  105.9771 O   0  0  0  0  0  0  0  0  0  0  0  0
  124.0905  104.1249  106.7664 H   0  0  0  0  0  0  0  0  0  0  0  0
  123.7834  104.3234  108.5028 H   0  0  0  0  0  0  0  0  0  0  0  0
  126.2317  104.6669  107.9605 H   0  0  0  0  0  0  0  0  0  0  0  0
  126.0475  105.6587  105.7133 H   0  0  0  0  0  0  0  0  0  0  0  0
  124.7431  108.1135  106.9927 H   0  0  0  0  0  0  0  0  0  0  0  0
  123.3645  105.9474  105.2817 H   0  0  0  0  0  0  0  0  0  0  0  0
  125.2060  105.6634  109.6959 H   0  0  0  0  0  0  0  0  0  0  0  0
  127.7567  106.3316  107.0073 H   0  0  0  0  0  0  0  0  0  0  0  0
  125.1023  107.1943  104.3416 H   0  0  0  0  0  0  0  0  0  0  0  0
  121.5584  107.1528  105.9216 H   0  0  0  0  0  0  0  0  0  0  0  0
  1  2  1  0  0  0  0
  1  6  1  0  0  0  0
  2  3  1  0  0  0  0
  2  7  1  0  0  0  0
  3  4  1  0  0  0  0
  3  8  1  0  0  0  0
  4  5  1  0  0  0  0
  4  9  1  0  0  0  0
  5  6  1  0  0  0  0
  5 10  1  0  0  0  0
  1 11  1  0  0  0  0
  1 12  1  0  0  0  0
  2 13  1  0  0  0  0
  3 14  1  0  0  0  0
  4 15  1  0  0  0  0
  5 16  1  0  0  0  0
  7 17  1  0  0  0  0
  8 18  1  0  0  0  0
  9 19  1  0  0  0  0
 10 20  1  0  0  0  0
M  END
> <FRED Chemgauss4 score>
-6.338384

$$$$
C85074710	P133146096
  -OEChem-05182014473D

 27 27  0     1  0  0  0  0  0999 V2000
  124.2973  107.2868  105.9176 C   0  0  0  0  0  0  0  0  0  0  0  0
  122.9325  105.6980  106.5868 C   0  0  0  0  0  0  0  0  0  0  0  0
  124.0792  106.3590  106.9537 C   0  0  0  0  0  0  0  0  0  0  0  0
  120.2557  106.8760  104.7681 C   0  0  0  0  0  0  0  0  0  0  0  0
  124.4529  107.0252  109.3675 C   0  0  0  0  0  0  0  0  0  0  0  0
  121.3922  105.8792  104.6187 C   0  0  0  0  0  0  0  0  0  0  0  0
  124.9095  104.6291  108.5689 C   0  0  0  0  0  0  0  0  0  0  0  0
  124.9297  106.1332  108.2081 C   0  0  1  0  0  0  0  0  0  0  0  0
  123.3642  107.2237  104.9641 N   0  0  0  0  0  0  0  0  0  0  0  0
  122.5487  106.2483  105.3994 N   0  0  0  0  0  0  0  0  0  0  0  0
  123.6842  104.2188  109.2526 N   0  0  0  0  0  0  0  0  0  0  0  0
  126.2874  106.5056  107.9332 O   0  0  0  0  0  0  0  0  0  0  0  0
  125.0971  108.0067  105.8151 H   0  0  0  0  0  0  0  0  0  0  0  0
  122.3717  104.9017  107.0572 H   0  0  0  0  0  0  0  0  0  0  0  0
  119.9379  106.9602  105.8127 H   0  0  0  0  0  0  0  0  0  0  0  0
  119.3932  106.5598  104.1733 H   0  0  0  0  0  0  0  0  0  0  0  0
  120.5571  107.8729  104.4296 H   0  0  0  0  0  0  0  0  0  0  0  0
  125.0577  106.8681  110.2681 H   0  0  0  0  0  0  0  0  0  0  0  0
  123.4222  106.7763  109.6485 H   0  0  0  0  0  0  0  0  0  0  0  0
  124.4906  108.0906  109.1195 H   0  0  0  0  0  0  0  0  0  0  0  0
  121.7032  105.8020  103.5707 H   0  0  0  0  0  0  0  0  0  0  0  0
  121.0743  104.8803  104.9381 H   0  0  0  0  0  0  0  0  0  0  0  0
  125.7579  104.3762  109.2151 H   0  0  0  0  0  0  0  0  0  0  0  0
  125.0037  104.0264  107.6568 H   0  0  0  0  0  0  0  0  0  0  0  0
  123.2953  104.8397  109.9277 H   0  0  0  0  0  0  0  0  0  0  0  0
  123.4010  103.2670  109.1732 H   0  0  0  0  0  0  0  0  0  0  0  0
  126.5779  105.9381  107.2058 H   0  0  0  0  0  0  0  0  0  0  0  0
  1  3  1  0  0  0  0
  1  9  2  0  0  0  0
  2  3  2  0  0  0  0
  2 10  1  0  0  0  0
  3  8  1  0  0  0  0
  4  6  1  0  0  0  0
  5  8  1  0  0  0  0
  6 10  1  0  0  0  0
  7  8  1  0  0  0  0
  7 11  1  0  0  0  0
  8 12  1  0  0  0  0
  9 10  1  0  0  0  0
  1 13  1  0  0  0  0
  2 14  1  0  0  0  0
  4 15  1  0  0  0  0
  4 16  1  0  0  0  0
  4 17  1  0  0  0  0
  5 18  1  0  0  0  0
  5 19  1  0  0  0  0
  5 20  1  0  0  0  0
  6 21  1  0  0  0  0
  6 22  1  0  0  0  0
  7 23  1  0  0  0  0
  7 24  1  0  0  0  0
 11 25  1  0  0  0  0
 11 26  1  0  0  0  0
 12 27  1  0  0  0  0
M  END
> <FRED Chemgauss4 score>
-6.333506

$$$$
C83918821	P131301165
  -OEChem-05182014473D

 36 35  0     1  0  0  0  0  0999 V2000
  124.2904  104.7075  109.5307 C   0  0  0  0  0  0  0  0  0  0  0  0
  117.7129  103.5171  105.2112 C   0  0  0  0  0  0  0  0  0  0  0  0
  124.0494  105.9814  108.7306 C   0  0  0  0  0  0  0  0  0  0  0  0
  119.8747  106.5811  106.9577 C   0  0  0  0  0  0  0  0  0  0  0  0
  121.1008  106.8402  106.0897 C   0  0  0  0  0  0  0  0  0  0  0  0
  125.6154  105.3529  106.8155 C   0  0  0  0  0  0  0  0  0  0  0  0
  118.7487  105.9051  106.1872 C   0  0  0  0  0  0  0  0  0  0  0  0
  124.1960  105.7855  107.2131 C   0  0  2  0  0  0  0  0  0  0  0  0
  126.6135  106.3548  107.1726 N   0  0  0  0  0  0  0  0  0  0  0  0
  122.1835  107.5150  106.8279 N   0  0  0  0  0  0  0  0  0  0  0  0
  119.9376  104.5428  104.2995 O   0  0  0  0  0  0  0  0  0  0  0  0
  119.8990  103.6023  106.6416 O   0  0  0  0  0  0  0  0  0  0  0  0
  124.6349  108.3420  106.8641 O   0  0  0  0  0  0  0  0  0  0  0  0
  123.8097  106.9662  104.9192 O   0  0  0  0  0  0  0  0  0  0  0  0
  119.2533  104.3324  105.5639 S   0  0  0  0  0  0  0  0  0  0  0  0
  123.8002  107.2842  106.3328 S   0  0  0  0  0  0  0  0  0  0  0  0
  125.2876  104.2976  109.3486 H   0  0  0  0  0  0  0  0  0  0  0  0
  124.2130  104.9190  110.6021 H   0  0  0  0  0  0  0  0  0  0  0  0
  123.5486  103.9415  109.2833 H   0  0  0  0  0  0  0  0  0  0  0  0
  117.9316  102.5238  104.8159 H   0  0  0  0  0  0  0  0  0  0  0  0
  117.1425  103.4426  106.1383 H   0  0  0  0  0  0  0  0  0  0  0  0
  117.1699  104.1109  104.4744 H   0  0  0  0  0  0  0  0  0  0  0  0
  123.0365  106.3287  108.9651 H   0  0  0  0  0  0  0  0  0  0  0  0
  124.7407  106.7579  109.0803 H   0  0  0  0  0  0  0  0  0  0  0  0
  119.5161  107.5381  107.3563 H   0  0  0  0  0  0  0  0  0  0  0  0
  120.1512  105.9654  107.8228 H   0  0  0  0  0  0  0  0  0  0  0  0
  121.5028  105.9050  105.6873 H   0  0  0  0  0  0  0  0  0  0  0  0
  120.8357  107.4887  105.2489 H   0  0  0  0  0  0  0  0  0  0  0  0
  125.8702  104.4030  107.2999 H   0  0  0  0  0  0  0  0  0  0  0  0
  125.6653  105.1817  105.7338 H   0  0  0  0  0  0  0  0  0  0  0  0
  117.8792  105.7282  106.8274 H   0  0  0  0  0  0  0  0  0  0  0  0
  118.4364  106.4991  105.3234 H   0  0  0  0  0  0  0  0  0  0  0  0
  123.4736  105.0391  106.8602 H   0  0  0  0  0  0  0  0  0  0  0  0
  127.4622  106.3815  106.6487 H   0  0  0  0  0  0  0  0  0  0  0  0
  126.5083  106.8354  108.0407 H   0  0  0  0  0  0  0  0  0  0  0  0
  121.9321  108.4496  107.1754 H   0  0  0  0  0  0  0  0  0  0  0  0
  1  3  1  0  0  0  0
  2 15  1  0  0  0  0
  3  8  1  0  0  0  0
  4  5  1  0  0  0  0
  4  7  1  0  0  0  0
  5 10  1  0  0  0  0
  6  8  1  0  0  0  0
  6  9  1  0  0  0  0
  7 15  1  0  0  0  0
  8 16  1  0  0  0  0
 10 16  1  0  0  0  0
 11 15  2  0  0  0  0
 12 15  2  0  0  0  0
 13 16  2  0  0  0  0
 14 16  2  0  0  0  0
  1 17  1  0  0  0  0
  1 18  1  0  0  0  0
  1 19  1  0  0  0  0
  2 20  1  0  0  0  0
  2 21  1  0  0  0  0
  2 22  1  0  0  0  0
  3 23  1  0  0  0  0
  3 24  1  0  0  0  0
  4 25  1  0  0  0  0
  4 26  1  0  0  0  0
  5 27  1  0  0  0  0
  5 28  1  0  0  0  0
  6 29  1  0  0  0  0
  6 30  1  0  0  0  0
  7 31  1  0  0  0  0
  7 32  1  0  0  0  0
  8 33  1  0  0  0  0
  9 34  1  0  0  0  0
  9 35  1  0  0  0  0
 10 36  1  0  0  0  0
M  END
> <FRED Chemgauss4 score>
-6.331983

$$$$
C36285937	P53923458
  -OEChem-05182014473D

 40 41  0     0  0  0  0  0  0999 V2000
  121.6363  107.4559  106.5811 C   0  0  0  0  0  0  0  0  0  0  0  0
  121.0493  105.6709  104.5191 C   0  0  0  0  0  0  0  0  0  0  0  0
  120.3242  107.0257  106.3834 C   0  0  0  0  0  0  0  0  0  0  0  0
  120.0307  106.1332  105.3525 C   0  0  0  0  0  0  0  0  0  0  0  0
  122.6549  106.9936  105.7478 C   0  0  0  0  0  0  0  0  0  0  0  0
  122.3614  106.1010  104.7168 C   0  0  0  0  0  0  0  0  0  0  0  0
  123.6659  105.6301  108.5115 C   0  0  0  0  0  0  0  0  0  0  0  0
  126.1842  105.4139  108.6496 C   0  0  0  0  0  0  0  0  0  0  0  0
  123.5671  104.1340  108.2389 C   0  0  0  0  0  0  0  0  0  0  0  0
  126.0562  103.9199  108.3767 C   0  0  0  0  0  0  0  0  0  0  0  0
  125.0136  106.2346  108.0842 C   0  0  0  0  0  0  0  0  0  0  0  0
  119.7217  108.3939  108.2330 C   0  0  0  0  0  0  0  0  0  0  0  0
  118.3469  104.5265  105.8413 C   0  0  0  0  0  0  0  0  0  0  0  0
  125.1078  106.3227  106.6255 N   0  5  0  0  0  0  0  0  0  0  0  0
  124.7303  103.4414  108.8667 N   0  3  0  0  0  0  0  0  0  0  0  0
  124.1048  108.6663  107.0246 O   0  0  0  0  0  0  0  0  0  0  0  0
  124.7528  108.0488  104.7408 O   0  0  0  0  0  0  0  0  0  0  0  0
  119.3379  107.4842  107.2038 O   0  0  0  0  0  0  0  0  0  0  0  0
  118.7534  105.7061  105.1500 O   0  0  0  0  0  0  0  0  0  0  0  0
  124.3259  107.5905  106.0609 S   0  0  0  0  0  0  0  0  0  0  0  0
  123.6984  105.4340  103.5461 Br  0  0  0  0  0  0  0  0  0  0  0  0
  121.8572  108.1513  107.3874 H   0  0  0  0  0  0  0  0  0  0  0  0
  120.8068  104.9753  103.7189 H   0  0  0  0  0  0  0  0  0  0  0  0
  122.8353  106.1455  108.0128 H   0  0  0  0  0  0  0  0  0  0  0  0
  123.5346  105.7983  109.5888 H   0  0  0  0  0  0  0  0  0  0  0  0
  126.2240  105.5677  109.7363 H   0  0  0  0  0  0  0  0  0  0  0  0
  127.1397  105.7754  108.2499 H   0  0  0  0  0  0  0  0  0  0  0  0
  122.6642  103.7070  108.6855 H   0  0  0  0  0  0  0  0  0  0  0  0
  123.5828  103.8990  107.1698 H   0  0  0  0  0  0  0  0  0  0  0  0
  126.1178  103.6809  107.3102 H   0  0  0  0  0  0  0  0  0  0  0  0
  126.8190  103.3501  108.9156 H   0  0  0  0  0  0  0  0  0  0  0  0
  125.0781  107.2463  108.5061 H   0  0  0  0  0  0  0  0  0  0  0  0
  118.8415  108.6808  108.8135 H   0  0  0  0  0  0  0  0  0  0  0  0
  120.1806  109.2792  107.7855 H   0  0  0  0  0  0  0  0  0  0  0  0
  120.4444  107.9036  108.8895 H   0  0  0  0  0  0  0  0  0  0  0  0
  117.3082  104.2966  105.5916 H   0  0  0  0  0  0  0  0  0  0  0  0
  118.4482  104.6813  106.9185 H   0  0  0  0  0  0  0  0  0  0  0  0
  118.9859  103.6957  105.5329 H   0  0  0  0  0  0  0  0  0  0  0  0
  124.6832  103.5504  109.8896 H   0  0  0  0  0  0  0  0  0  0  0  0
  124.6529  102.4298  108.6931 H   0  0  0  0  0  0  0  0  0  0  0  0
  1  3  1  0  0  0  0
  1  5  2  0  0  0  0
  2  4  1  0  0  0  0
  2  6  2  0  0  0  0
  3  4  2  0  0  0  0
  3 18  1  0  0  0  0
  4 19  1  0  0  0  0
  5  6  1  0  0  0  0
  5 20  1  0  0  0  0
  6 21  1  0  0  0  0
  7  9  1  0  0  0  0
  7 11  1  0  0  0  0
  8 10  1  0  0  0  0
  8 11  1  0  0  0  0
  9 15  1  0  0  0  0
 10 15  1  0  0  0  0
 11 14  1  0  0  0  0
 12 18  1  0  0  0  0
 13 19  1  0  0  0  0
 14 20  1  0  0  0  0
 16 20  2  0  0  0  0
 17 20  2  0  0  0  0
  1 22  1  0  0  0  0
  2 23  1  0  0  0  0
  7 24  1  0  0  0  0
  7 25  1  0  0  0  0
  8 26  1  0  0  0  0
  8 27  1  0  0  0  0
  9 28  1  0  0  0  0
  9 29  1  0  0  0  0
 10 30  1  0  0  0  0
 10 31  1  0  0  0  0
 11 32  1  0  0  0  0
 12 33  1  0  0  0  0
 12 34  1  0  0  0  0
 12 35  1  0  0  0  0
 13 36  1  0  0  0  0
 13 37  1  0  0  0  0
 13 38  1  0  0  0  0
 15 39  1  0  0  0  0
 15 40  1  0  0  0  0
M  CHG  2  14  -1  15   1
M  END
> <FRED Chemgauss4 score>
-6.328403

$$$$
C86618100	P135623818
  -OEChem-05182014473D

 30 30  0     1  0  0  0  0  0999 V2000
  119.3345  105.5945  104.1214 C   0  0  0  0  0  0  0  0  0  0  0  0
  120.2852  104.7393  103.3241 C   0  0  0  0  0  0  0  0  0  0  0  0
  120.0528  106.4826  105.1047 C   0  0  0  0  0  0  0  0  0  0  0  0
  121.6293  105.3751  103.6566 C   0  0  0  0  0  0  0  0  0  0  0  0
  121.4609  105.8918  105.0830 C   0  0  1  0  0  0  0  0  0  0  0  0
  123.7920  106.2342  105.4118 C   0  0  0  0  0  0  0  0  0  0  0  0
  122.1909  107.3951  106.7761 C   0  0  0  0  0  0  0  0  0  0  0  0
  124.8362  107.2504  105.8368 C   0  0  0  0  0  0  0  0  0  0  0  0
  122.2221  106.2778  107.8029 C   0  0  0  0  0  0  0  0  0  0  0  0
  122.4662  106.8488  105.4483 N   0  0  0  0  0  0  0  0  0  0  0  0
  118.1179  105.5697  103.9867 O   0  0  0  0  0  0  0  0  0  0  0  0
  124.8286  108.3437  104.9276 O   0  0  0  0  0  0  0  0  0  0  0  0
  121.9891  106.8189  109.0970 O   0  0  0  0  0  0  0  0  0  0  0  0
  120.2405  103.6961  103.6436 H   0  0  0  0  0  0  0  0  0  0  0  0
  120.0460  104.8294  102.2610 H   0  0  0  0  0  0  0  0  0  0  0  0
  120.0151  107.5290  104.7962 H   0  0  0  0  0  0  0  0  0  0  0  0
  119.5907  106.3586  106.0875 H   0  0  0  0  0  0  0  0  0  0  0  0
  122.4137  104.6109  103.6359 H   0  0  0  0  0  0  0  0  0  0  0  0
  121.9049  106.1530  102.9410 H   0  0  0  0  0  0  0  0  0  0  0  0
  121.5213  105.0415  105.7988 H   0  0  0  0  0  0  0  0  0  0  0  0
  123.9768  105.8775  104.3936 H   0  0  0  0  0  0  0  0  0  0  0  0
  123.7911  105.3802  106.0959 H   0  0  0  0  0  0  0  0  0  0  0  0
  121.2112  107.8828  106.7500 H   0  0  0  0  0  0  0  0  0  0  0  0
  122.9571  108.1425  107.0032 H   0  0  0  0  0  0  0  0  0  0  0  0
  125.8320  106.7973  105.8120 H   0  0  0  0  0  0  0  0  0  0  0  0
  124.6416  107.6298  106.8453 H   0  0  0  0  0  0  0  0  0  0  0  0
  123.2073  105.8013  107.8083 H   0  0  0  0  0  0  0  0  0  0  0  0
  121.4599  105.5195  107.5959 H   0  0  0  0  0  0  0  0  0  0  0  0
  125.5068  108.9668  105.2342 H   0  0  0  0  0  0  0  0  0  0  0  0
  122.0172  106.0752  109.7201 H   0  0  0  0  0  0  0  0  0  0  0  0
  1  2  1  0  0  0  0
  1  3  1  0  0  0  0
  1 11  2  0  0  0  0
  2  4  1  0  0  0  0
  3  5  1  0  0  0  0
  4  5  1  0  0  0  0
  5 10  1  0  0  0  0
  6  8  1  0  0  0  0
  6 10  1  0  0  0  0
  7  9  1  0  0  0  0
  7 10  1  0  0  0  0
  8 12  1  0  0  0  0
  9 13  1  0  0  0  0
  2 14  1  0  0  0  0
  2 15  1  0  0  0  0
  3 16  1  0  0  0  0
  3 17  1  0  0  0  0
  4 18  1  0  0  0  0
  4 19  1  0  0  0  0
  5 20  1  0  0  0  0
  6 21  1  0  0  0  0
  6 22  1  0  0  0  0
  7 23  1  0  0  0  0
  7 24  1  0  0  0  0
  8 25  1  0  0  0  0
  8 26  1  0  0  0  0
  9 27  1  0  0  0  0
  9 28  1  0  0  0  0
 12 29  1  0  0  0  0
 13 30  1  0  0  0  0
M  END
> <FRED Chemgauss4 score>
-6.326694

$$$$
C67425135	P103549599
  -OEChem-05182014473D

 25 25  0     1  0  0  0  0  0999 V2000
  123.1839  106.8954  106.3124 C   0  0  0  0  0  0  0  0  0  0  0  0
  124.4122  105.8448  108.7696 C   0  0  0  0  0  0  0  0  0  0  0  0
  124.2548  107.3414  108.5861 C   0  0  0  0  0  0  0  0  0  0  0  0
  123.2473  105.1342  108.1076 C   0  0  0  0  0  0  0  0  0  0  0  0
  124.2106  107.7092  107.1056 C   0  0  1  0  0  0  0  0  0  0  0  0
  122.0942  104.7153  105.9613 C   0  0  0  0  0  0  0  0  0  0  0  0
  125.5788  107.5586  106.4318 C   0  0  0  0  0  0  0  0  0  0  0  0
  122.9552  105.5879  106.7483 N   0  0  0  0  0  0  0  0  0  0  0  0
  125.5056  108.0325  105.0928 N   0  0  0  0  0  0  0  0  0  0  0  0
  122.6653  107.3798  105.3020 O   0  0  0  0  0  0  0  0  0  0  0  0
  123.8263  109.0804  107.0264 O   0  0  0  0  0  0  0  0  0  0  0  0
  125.3587  105.5003  108.3393 H   0  0  0  0  0  0  0  0  0  0  0  0
  124.4414  105.5947  109.8360 H   0  0  0  0  0  0  0  0  0  0  0  0
  123.3345  107.6791  109.0819 H   0  0  0  0  0  0  0  0  0  0  0  0
  125.0724  107.8732  109.0883 H   0  0  0  0  0  0  0  0  0  0  0  0
  123.4479  104.0572  108.0819 H   0  0  0  0  0  0  0  0  0  0  0  0
  122.3342  105.2903  108.6948 H   0  0  0  0  0  0  0  0  0  0  0  0
  122.6870  104.1692  105.2229 H   0  0  0  0  0  0  0  0  0  0  0  0
  121.3361  105.3042  105.4381 H   0  0  0  0  0  0  0  0  0  0  0  0
  121.5911  103.9945  106.6115 H   0  0  0  0  0  0  0  0  0  0  0  0
  125.8463  106.5120  106.4317 H   0  0  0  0  0  0  0  0  0  0  0  0
  126.3023  108.1409  106.9829 H   0  0  0  0  0  0  0  0  0  0  0  0
  124.6586  107.8917  104.5507 H   0  0  0  0  0  0  0  0  0  0  0  0
  126.3507  108.3242  104.6113 H   0  0  0  0  0  0  0  0  0  0  0  0
  123.8311  109.3135  106.0854 H   0  0  0  0  0  0  0  0  0  0  0  0
  1  5  1  0  0  0  0
  1  8  1  0  0  0  0
  1 10  2  0  0  0  0
  2  3  1  0  0  0  0
  2  4  1  0  0  0  0
  3  5  1  0  0  0  0
  4  8  1  0  0  0  0
  5  7  1  0  0  0  0
  5 11  1  0  0  0  0
  6  8  1  0  0  0  0
  7  9  1  0  0  0  0
  2 12  1  0  0  0  0
  2 13  1  0  0  0  0
  3 14  1  0  0  0  0
  3 15  1  0  0  0  0
  4 16  1  0  0  0  0
  4 17  1  0  0  0  0
  6 18  1  0  0  0  0
  6 19  1  0  0  0  0
  6 20  1  0  0  0  0
  7 21  1  0  0  0  0
  7 22  1  0  0  0  0
  9 23  1  0  0  0  0
  9 24  1  0  0  0  0
 11 25  1  0  0  0  0
M  END
> <FRED Chemgauss4 score>
-6.320696

$$$$
C98178296	P156128865
  -OEChem-05182014473D

 19 19  0     0  0  0  0  0  0999 V2000
  123.7693  106.0534  105.9999 C   0  0  0  0  0  0  0  0  0  0  0  0
  123.8852  105.0496  106.9083 C   0  0  0  0  0  0  0  0  0  0  0  0
  124.7126  107.2120  106.0779 C   0  0  0  0  0  0  0  0  0  0  0  0
  125.6812  106.0705  107.9831 C   0  0  0  0  0  0  0  0  0  0  0  0
  122.7679  106.1459  104.8804 C   0  0  0  0  0  0  0  0  0  0  0  0
  124.8533  105.0711  107.9022 N   0  0  0  0  0  0  0  0  0  0  0  0
  125.6287  107.1283  107.0994 N   0  0  0  0  0  0  0  0  0  0  0  0
  123.0333  103.9661  106.8690 N   0  0  0  0  0  0  0  0  0  0  0  0
  126.6561  106.1438  108.9426 N   0  0  0  0  0  0  0  0  0  0  0  0
  124.6589  108.1507  105.2883 O   0  0  0  0  0  0  0  0  0  0  0  0
  121.9863  107.3129  105.0405 O   0  0  0  0  0  0  0  0  0  0  0  0
  122.1217  105.2717  104.8905 H   0  0  0  0  0  0  0  0  0  0  0  0
  123.2964  106.1986  103.9320 H   0  0  0  0  0  0  0  0  0  0  0  0
  126.3000  107.8825  107.2088 H   0  0  0  0  0  0  0  0  0  0  0  0
  122.3413  103.9472  106.1615 H   0  0  0  0  0  0  0  0  0  0  0  0
  123.1536  103.2579  107.5500 H   0  0  0  0  0  0  0  0  0  0  0  0
  126.7281  105.4011  109.5994 H   0  0  0  0  0  0  0  0  0  0  0  0
  127.2555  106.9368  108.9467 H   0  0  0  0  0  0  0  0  0  0  0  0
  122.5947  108.0720  105.0185 H   0  0  0  0  0  0  0  0  0  0  0  0
  1  2  2  0  0  0  0
  1  3  1  0  0  0  0
  1  5  1  0  0  0  0
  2  6  1  0  0  0  0
  2  8  1  0  0  0  0
  3  7  1  0  0  0  0
  3 10  2  0  0  0  0
  4  6  2  0  0  0  0
  4  7  1  0  0  0  0
  4  9  1  0  0  0  0
  5 11  1  0  0  0  0
  5 12  1  0  0  0  0
  5 13  1  0  0  0  0
  7 14  1  0  0  0  0
  8 15  1  0  0  0  0
  8 16  1  0  0  0  0
  9 17  1  0  0  0  0
  9 18  1  0  0  0  0
 11 19  1  0  0  0  0
M  END
> <FRED Chemgauss4 score>
-6.319690

$$$$
C70286936	P108345849
  -OEChem-05182014473D

 25 25  0     1  0  0  0  0  0999 V2000
  122.6254  105.4551  108.2980 C   0  0  0  0  0  0  0  0  0  0  0  0
  125.8062  105.8671  107.7369 C   0  0  0  0  0  0  0  0  0  0  0  0
  121.2764  106.0064  107.8738 C   0  0  0  0  0  0  0  0  0  0  0  0
  120.8349  105.6244  106.4719 C   0  0  0  0  0  0  0  0  0  0  0  0
  123.1564  105.0139  105.8763 C   0  0  0  0  0  0  0  0  0  0  0  0
  121.9508  105.8485  105.4602 C   0  0  2  0  0  0  0  0  0  0  0  0
  124.8690  104.6862  107.6322 C   0  0  0  0  0  0  0  0  0  0  0  0
  123.5320  105.1490  107.2849 N   0  0  0  0  0  0  0  0  0  0  0  0
  125.8371  106.4003  109.0076 N   0  0  0  0  0  0  0  0  0  0  0  0
  122.3115  107.2635  105.3660 N   0  0  0  0  0  0  0  0  0  0  0  0
  122.8845  105.3788  109.5026 O   0  0  0  0  0  0  0  0  0  0  0  0
  126.4974  106.2780  106.8087 O   0  0  0  0  0  0  0  0  0  0  0  0
  120.5403  105.6495  108.6054 H   0  0  0  0  0  0  0  0  0  0  0  0
  121.3136  107.0997  107.9524 H   0  0  0  0  0  0  0  0  0  0  0  0
  120.5130  104.5666  106.4697 H   0  0  0  0  0  0  0  0  0  0  0  0
  119.9401  106.2137  106.1932 H   0  0  0  0  0  0  0  0  0  0  0  0
  122.9558  103.9506  105.6756 H   0  0  0  0  0  0  0  0  0  0  0  0
  124.0465  105.2925  105.2907 H   0  0  0  0  0  0  0  0  0  0  0  0
  121.6058  105.5103  104.4642 H   0  0  0  0  0  0  0  0  0  0  0  0
  124.8059  104.1522  108.5842 H   0  0  0  0  0  0  0  0  0  0  0  0
  125.2190  104.0100  106.8475 H   0  0  0  0  0  0  0  0  0  0  0  0
  125.2738  106.0045  109.7529 H   0  0  0  0  0  0  0  0  0  0  0  0
  126.4165  107.1980  109.2486 H   0  0  0  0  0  0  0  0  0  0  0  0
  121.5829  107.9396  105.4443 H   0  0  0  0  0  0  0  0  0  0  0  0
  123.2207  107.4944  105.0280 H   0  0  0  0  0  0  0  0  0  0  0  0
  1  3  1  0  0  0  0
  1  8  1  0  0  0  0
  1 11  2  0  0  0  0
  2  7  1  0  0  0  0
  2  9  1  0  0  0  0
  2 12  2  0  0  0  0
  3  4  1  0  0  0  0
  4  6  1  0  0  0  0
  5  6  1  0  0  0  0
  5  8  1  0  0  0  0
  6 10  1  0  0  0  0
  7  8  1  0  0  0  0
  3 13  1  0  0  0  0
  3 14  1  0  0  0  0
  4 15  1  0  0  0  0
  4 16  1  0  0  0  0
  5 17  1  0  0  0  0
  5 18  1  0  0  0  0
  6 19  1  0  0  0  0
  7 20  1  0  0  0  0
  7 21  1  0  0  0  0
  9 22  1  0  0  0  0
  9 23  1  0  0  0  0
 10 24  1  0  0  0  0
 10 25  1  0  0  0  0
M  END
> <FRED Chemgauss4 score>
-6.316419

$$$$
C20974560	P101623439
  -OEChem-05182014473D

 21 22  0     1  0  0  0  0  0999 V2000
  121.0499  105.1097  106.0328 C   0  0  0  0  0  0  0  0  0  0  0  0
  122.1007  104.4507  106.6571 C   0  0  0  0  0  0  0  0  0  0  0  0
  121.3155  106.3306  105.4397 C   0  0  0  0  0  0  0  0  0  0  0  0
  123.3683  105.0283  106.6708 C   0  0  0  0  0  0  0  0  0  0  0  0
  123.5537  106.2493  106.0237 C   0  0  0  0  0  0  0  0  0  0  0  0
  125.9939  105.8809  106.3511 C   0  0  0  0  0  0  0  0  0  0  0  0
  125.5482  105.0806  107.5659 C   0  0  0  0  0  0  0  0  0  0  0  0
  124.9125  106.9085  106.0118 C   0  0  1  0  0  0  0  0  0  0  0  0
  122.5343  106.9153  105.4239 N   0  0  0  0  0  0  0  0  0  0  0  0
  125.2384  107.5396  104.7326 N   0  0  0  0  0  0  0  0  0  0  0  0
  124.3593  104.3291  107.3020 O   0  0  0  0  0  0  0  0  0  0  0  0
  120.0539  104.6825  106.0147 H   0  0  0  0  0  0  0  0  0  0  0  0
  121.9251  103.4919  107.1374 H   0  0  0  0  0  0  0  0  0  0  0  0
  120.5293  106.8902  104.9435 H   0  0  0  0  0  0  0  0  0  0  0  0
  126.9496  106.3791  106.5517 H   0  0  0  0  0  0  0  0  0  0  0  0
  126.1459  105.1928  105.5085 H   0  0  0  0  0  0  0  0  0  0  0  0
  126.3292  104.3637  107.8400 H   0  0  0  0  0  0  0  0  0  0  0  0
  125.3783  105.7266  108.4362 H   0  0  0  0  0  0  0  0  0  0  0  0
  124.9038  107.6845  106.7855 H   0  0  0  0  0  0  0  0  0  0  0  0
  126.1986  107.6934  104.5205 H   0  0  0  0  0  0  0  0  0  0  0  0
  124.4988  107.9700  104.2240 H   0  0  0  0  0  0  0  0  0  0  0  0
  1  2  1  0  0  0  0
  1  3  2  0  0  0  0
  2  4  2  0  0  0  0
  3  9  1  0  0  0  0
  4  5  1  0  0  0  0
  4 11  1  0  0  0  0
  5  8  1  0  0  0  0
  5  9  2  0  0  0  0
  6  7  1  0  0  0  0
  6  8  1  0  0  0  0
  7 11  1  0  0  0  0
  8 10  1  0  0  0  0
  1 12  1  0  0  0  0
  2 13  1  0  0  0  0
  3 14  1  0  0  0  0
  6 15  1  0  0  0  0
  6 16  1  0  0  0  0
  7 17  1  0  0  0  0
  7 18  1  0  0  0  0
  8 19  1  0  0  0  0
 10 20  1  0  0  0  0
 10 21  1  0  0  0  0
M  END
> <FRED Chemgauss4 score>
-6.313820

$$$$
C62086107	P95267279
  -OEChem-05182014473D

 37 37  0     1  0  0  0  0  0999 V2000
  125.1105  106.8223  105.5666 C   0  0  0  0  0  0  0  0  0  0  0  0
  120.5087  106.6067  106.0107 C   0  0  0  0  0  0  0  0  0  0  0  0
  121.0101  104.2647  105.6572 C   0  0  0  0  0  0  0  0  0  0  0  0
  119.2700  106.2397  106.8255 C   0  0  0  0  0  0  0  0  0  0  0  0
  119.7801  103.8580  106.4662 C   0  0  0  0  0  0  0  0  0  0  0  0
  123.6462  106.5901  107.6411 C   0  0  0  0  0  0  0  0  0  0  0  0
  116.1443  105.1058  105.8765 C   0  0  0  0  0  0  0  0  0  0  0  0
  122.7290  105.9288  105.3601 C   0  0  0  0  0  0  0  0  0  0  0  0
  123.6779  106.8773  106.1327 C   0  0  2  0  0  0  0  0  0  0  0  0
  121.5345  105.5589  106.1180 N   0  0  0  0  0  0  0  0  0  0  0  0
  118.7381  104.9182  106.3946 N   0  0  0  0  0  0  0  0  0  0  0  0
  125.7490  105.6100  105.7191 N   0  0  0  0  0  0  0  0  0  0  0  0
  123.1947  108.2475  105.9045 N   0  0  0  0  0  0  0  0  0  0  0  0
  125.6592  107.7876  105.0355 O   0  0  0  0  0  0  0  0  0  0  0  0
  117.7172  103.5763  104.4574 O   0  0  0  0  0  0  0  0  0  0  0  0
  117.9401  106.0849  104.2505 O   0  0  0  0  0  0  0  0  0  0  0  0
  117.6962  104.8992  105.0419 S   0  0  0  0  0  0  0  0  0  0  0  0
  120.2273  106.7656  104.9611 H   0  0  0  0  0  0  0  0  0  0  0  0
  120.9037  107.5555  106.3929 H   0  0  0  0  0  0  0  0  0  0  0  0
  121.7751  103.4887  105.7789 H   0  0  0  0  0  0  0  0  0  0  0  0
  120.7522  104.3092  104.5906 H   0  0  0  0  0  0  0  0  0  0  0  0
  119.5061  106.2110  107.9003 H   0  0  0  0  0  0  0  0  0  0  0  0
  118.5002  107.0092  106.6701 H   0  0  0  0  0  0  0  0  0  0  0  0
  119.3753  102.9226  106.0535 H   0  0  0  0  0  0  0  0  0  0  0  0
  120.0497  103.6741  107.5175 H   0  0  0  0  0  0  0  0  0  0  0  0
  122.6233  106.6319  108.0321 H   0  0  0  0  0  0  0  0  0  0  0  0
  124.0323  105.5931  107.8831 H   0  0  0  0  0  0  0  0  0  0  0  0
  124.2547  107.3130  108.1968 H   0  0  0  0  0  0  0  0  0  0  0  0
  115.3497  105.1147  105.1288 H   0  0  0  0  0  0  0  0  0  0  0  0
  116.0107  104.2714  106.5666 H   0  0  0  0  0  0  0  0  0  0  0  0
  116.1688  106.0516  106.4198 H   0  0  0  0  0  0  0  0  0  0  0  0
  122.4070  106.3978  104.4217 H   0  0  0  0  0  0  0  0  0  0  0  0
  123.2544  105.0047  105.0878 H   0  0  0  0  0  0  0  0  0  0  0  0
  125.2680  104.8433  106.1767 H   0  0  0  0  0  0  0  0  0  0  0  0
  126.6953  105.4772  105.3780 H   0  0  0  0  0  0  0  0  0  0  0  0
  122.8170  108.4579  105.0115 H   0  0  0  0  0  0  0  0  0  0  0  0
  123.4503  108.9402  106.5672 H   0  0  0  0  0  0  0  0  0  0  0  0
  1  9  1  0  0  0  0
  1 12  1  0  0  0  0
  1 14  2  0  0  0  0
  2  4  1  0  0  0  0
  2 10  1  0  0  0  0
  3  5  1  0  0  0  0
  3 10  1  0  0  0  0
  4 11  1  0  0  0  0
  5 11  1  0  0  0  0
  6  9  1  0  0  0  0
  7 17  1  0  0  0  0
  8  9  1  0  0  0  0
  8 10  1  0  0  0  0
  9 13  1  0  0  0  0
 11 17  1  0  0  0  0
 15 17  2  0  0  0  0
 16 17  2  0  0  0  0
  2 18  1  0  0  0  0
  2 19  1  0  0  0  0
  3 20  1  0  0  0  0
  3 21  1  0  0  0  0
  4 22  1  0  0  0  0
  4 23  1  0  0  0  0
  5 24  1  0  0  0  0
  5 25  1  0  0  0  0
  6 26  1  0  0  0  0
  6 27  1  0  0  0  0
  6 28  1  0  0  0  0
  7 29  1  0  0  0  0
  7 30  1  0  0  0  0
  7 31  1  0  0  0  0
  8 32  1  0  0  0  0
  8 33  1  0  0  0  0
 12 34  1  0  0  0  0
 12 35  1  0  0  0  0
 13 36  1  0  0  0  0
 13 37  1  0  0  0  0
M  END
> <FRED Chemgauss4 score>
-6.312330

$$$$
C37677234	P56041032
  -OEChem-05182014473D

 24 24  0     1  0  0  0  0  0999 V2000
  119.9333  104.4993  107.0606 C   0  0  0  0  0  0  0  0  0  0  0  0
  121.3463  104.2338  105.3970 C   0  0  0  0  0  0  0  0  0  0  0  0
  120.0340  104.0195  105.7410 C   0  0  0  0  0  0  0  0  0  0  0  0
  118.9741  103.4203  104.9147 C   0  0  0  0  0  0  0  0  0  0  0  0
  123.3278  105.2211  106.6096 C   0  0  0  0  0  0  0  0  0  0  0  0
  124.9821  107.0322  105.9142 C   0  0  0  0  0  0  0  0  0  0  0  0
  123.7286  106.2372  105.5328 C   0  0  2  0  0  0  0  0  0  0  0  0
  121.0895  104.9818  107.5236 N   0  0  0  0  0  0  0  0  0  0  0  0
  121.9293  104.8062  106.4891 N   0  0  0  0  0  0  0  0  0  0  0  0
  125.3764  107.9687  104.8705 N   0  0  0  0  0  0  0  0  0  0  0  0
  122.6519  107.1634  105.3697 O   0  0  0  0  0  0  0  0  0  0  0  0
  119.0669  104.5177  107.7066 H   0  0  0  0  0  0  0  0  0  0  0  0
  121.9016  104.0315  104.4911 H   0  0  0  0  0  0  0  0  0  0  0  0
  118.4367  104.1883  104.3315 H   0  0  0  0  0  0  0  0  0  0  0  0
  119.3711  102.6781  104.1986 H   0  0  0  0  0  0  0  0  0  0  0  0
  118.2247  102.8810  105.5223 H   0  0  0  0  0  0  0  0  0  0  0  0
  123.4575  105.6407  107.6148 H   0  0  0  0  0  0  0  0  0  0  0  0
  123.9284  104.3061  106.5522 H   0  0  0  0  0  0  0  0  0  0  0  0
  124.8004  107.5829  106.8448 H   0  0  0  0  0  0  0  0  0  0  0  0
  125.8108  106.3459  106.1245 H   0  0  0  0  0  0  0  0  0  0  0  0
  123.8788  105.7372  104.5681 H   0  0  0  0  0  0  0  0  0  0  0  0
  126.3342  108.2477  104.8229 H   0  0  0  0  0  0  0  0  0  0  0  0
  124.6579  108.4530  104.3739 H   0  0  0  0  0  0  0  0  0  0  0  0
  122.9332  107.7896  104.6866 H   0  0  0  0  0  0  0  0  0  0  0  0
  1  3  1  0  0  0  0
  1  8  2  0  0  0  0
  2  3  2  0  0  0  0
  2  9  1  0  0  0  0
  3  4  1  0  0  0  0
  5  7  1  0  0  0  0
  5  9  1  0  0  0  0
  6  7  1  0  0  0  0
  6 10  1  0  0  0  0
  7 11  1  0  0  0  0
  8  9  1  0  0  0  0
  1 12  1  0  0  0  0
  2 13  1  0  0  0  0
  4 14  1  0  0  0  0
  4 15  1  0  0  0  0
  4 16  1  0  0  0  0
  5 17  1  0  0  0  0
  5 18  1  0  0  0  0
  6 19  1  0  0  0  0
  6 20  1  0  0  0  0
  7 21  1  0  0  0  0
 10 22  1  0  0  0  0
 10 23  1  0  0  0  0
 11 24  1  0  0  0  0
M  END
> <FRED Chemgauss4 score>
-6.308602

$$$$
C95924454	P151032095
  -OEChem-05182014473D

 20 20  0     1  0  0  0  0  0999 V2000
  123.5308  106.7494  105.8343 C   0  0  0  0  0  0  0  0  0  0  0  0
  125.5934  106.2034  106.7700 C   0  0  0  0  0  0  0  0  0  0  0  0
  124.8822  107.3507  106.0746 C   0  0  1  0  0  0  0  0  0  0  0  0
  120.0274  104.4656  106.7935 C   0  0  0  0  0  0  0  0  0  0  0  0
  122.3544  104.7501  106.9318 C   0  0  0  0  0  0  0  0  0  0  0  0
  123.4110  105.7108  106.7234 N   0  0  0  0  0  0  0  0  0  0  0  0
  125.5004  107.7113  104.8145 N   0  0  0  0  0  0  0  0  0  0  0  0
  122.7044  107.1394  105.0236 O   0  0  0  0  0  0  0  0  0  0  0  0
  124.5683  105.5295  107.5059 O   0  0  0  0  0  0  0  0  0  0  0  0
  121.1178  105.3515  106.5790 O   0  0  0  0  0  0  0  0  0  0  0  0
  126.0383  105.4846  106.0708 H   0  0  0  0  0  0  0  0  0  0  0  0
  126.3721  106.5556  107.4530 H   0  0  0  0  0  0  0  0  0  0  0  0
  124.7651  108.2121  106.7312 H   0  0  0  0  0  0  0  0  0  0  0  0
  119.0944  104.9601  106.5123 H   0  0  0  0  0  0  0  0  0  0  0  0
  119.9949  104.1745  107.8465 H   0  0  0  0  0  0  0  0  0  0  0  0
  120.1659  103.5752  106.1756 H   0  0  0  0  0  0  0  0  0  0  0  0
  122.3596  104.4643  107.9880 H   0  0  0  0  0  0  0  0  0  0  0  0
  122.5578  103.8806  106.2994 H   0  0  0  0  0  0  0  0  0  0  0  0
  126.4993  107.7743  104.7713 H   0  0  0  0  0  0  0  0  0  0  0  0
  124.9218  108.0825  104.0856 H   0  0  0  0  0  0  0  0  0  0  0  0
  1  3  1  0  0  0  0
  1  6  1  0  0  0  0
  1  8  2  0  0  0  0
  2  3  1  0  0  0  0
  2  9  1  0  0  0  0
  3  7  1  0  0  0  0
  4 10  1  0  0  0  0
  5  6  1  0  0  0  0
  5 10  1  0  0  0  0
  6  9  1  0  0  0  0
  2 11  1  0  0  0  0
  2 12  1  0  0  0  0
  3 13  1  0  0  0  0
  4 14  1  0  0  0  0
  4 15  1  0  0  0  0
  4 16  1  0  0  0  0
  5 17  1  0  0  0  0
  5 18  1  0  0  0  0
  7 19  1  0  0  0  0
  7 20  1  0  0  0  0
M  END
> <FRED Chemgauss4 score>
-6.306533

$$$$
C40366517	P61281379
  -OEChem-05182014473D

 21 20  0     1  0  0  0  0  0999 V2000
  123.2301  108.1368  109.7243 C   0  0  0  0  0  0  0  0  0  0  0  0
  125.4440  105.4900  106.5351 C   0  0  0  0  0  0  0  0  0  0  0  0
  123.0659  105.9292  108.4608 C   0  0  0  0  0  0  0  0  0  0  0  0
  123.2815  107.4414  108.3676 C   0  0  2  0  0  0  0  0  0  0  0  0
  122.0292  105.5935  109.4100 N   0  0  0  0  0  0  0  0  0  0  0  0
  124.5478  107.7248  107.7234 N   0  0  0  0  0  0  0  0  0  0  0  0
  125.9625  107.8622  105.5582 O   0  0  0  0  0  0  0  0  0  0  0  0
  123.6058  106.9756  105.4310 O   0  0  0  0  0  0  0  0  0  0  0  0
  124.8606  107.1234  106.1429 S   0  0  0  0  0  0  0  0  0  0  0  0
  124.0043  107.7650  110.4044 H   0  0  0  0  0  0  0  0  0  0  0  0
  123.3911  109.2146  109.6098 H   0  0  0  0  0  0  0  0  0  0  0  0
  122.2553  107.9901  110.2008 H   0  0  0  0  0  0  0  0  0  0  0  0
  125.6869  104.9780  105.6027 H   0  0  0  0  0  0  0  0  0  0  0  0
  126.3315  105.5829  107.1628 H   0  0  0  0  0  0  0  0  0  0  0  0
  124.6526  104.9603  107.0674 H   0  0  0  0  0  0  0  0  0  0  0  0
  123.9946  105.4355  108.7685 H   0  0  0  0  0  0  0  0  0  0  0  0
  122.7932  105.5275  107.4788 H   0  0  0  0  0  0  0  0  0  0  0  0
  122.4844  107.8596  107.7415 H   0  0  0  0  0  0  0  0  0  0  0  0
  121.9616  106.1230  110.2606 H   0  0  0  0  0  0  0  0  0  0  0  0
  121.5364  104.7253  109.3018 H   0  0  0  0  0  0  0  0  0  0  0  0
  125.3701  107.7534  108.3574 H   0  0  0  0  0  0  0  0  0  0  0  0
  1  4  1  0  0  0  0
  2  9  1  0  0  0  0
  3  4  1  0  0  0  0
  3  5  1  0  0  0  0
  4  6  1  0  0  0  0
  6  9  1  0  0  0  0
  7  9  2  0  0  0  0
  8  9  2  0  0  0  0
  1 10  1  0  0  0  0
  1 11  1  0  0  0  0
  1 12  1  0  0  0  0
  2 13  1  0  0  0  0
  2 14  1  0  0  0  0
  2 15  1  0  0  0  0
  3 16  1  0  0  0  0
  3 17  1  0  0  0  0
  4 18  1  0  0  0  0
  5 19  1  0  0  0  0
  5 20  1  0  0  0  0
  6 21  1  0  0  0  0
M  END
> <FRED Chemgauss4 score>
-6.304561

$$$$
C82916931	P129633296
  -OEChem-05182014473D

 31 30  0     1  0  0  0  0  0999 V2000
  123.4723  105.6126  107.4827 C   0  0  0  0  0  0  0  0  0  0  0  0
  118.5343  104.8744  100.1150 C   0  0  0  0  0  0  0  0  0  0  0  0
  120.8489  104.6056  102.9681 C   0  0  0  0  0  0  0  0  0  0  0  0
  125.0050  107.1547  106.1791 C   0  0  0  0  0  0  0  0  0  0  0  0
  120.4115  104.6398  101.5092 C   0  0  0  0  0  0  0  0  0  0  0  0
  120.5064  105.9096  103.6780 C   0  0  0  0  0  0  0  0  0  0  0  0
  122.7994  106.2215  105.1480 C   0  0  0  0  0  0  0  0  0  0  0  0
  123.5437  106.7099  106.4083 C   0  0  1  0  0  0  0  0  0  0  0  0
  125.1497  108.1766  105.1496 N   0  0  0  0  0  0  0  0  0  0  0  0
  122.8171  107.8373  106.9192 O   0  0  0  0  0  0  0  0  0  0  0  0
  119.0076  104.8517  101.4550 O   0  0  0  0  0  0  0  0  0  0  0  0
  121.0327  105.8537  105.4050 S   0  0  0  0  0  0  0  0  0  0  0  0
  122.4366  105.2941  107.6484 H   0  0  0  0  0  0  0  0  0  0  0  0
  124.0658  104.7336  107.2118 H   0  0  0  0  0  0  0  0  0  0  0  0
  123.8347  105.9891  108.4465 H   0  0  0  0  0  0  0  0  0  0  0  0
  117.4540  105.0389  100.1121 H   0  0  0  0  0  0  0  0  0  0  0  0
  118.7704  103.9248   99.6281 H   0  0  0  0  0  0  0  0  0  0  0  0
  119.0260  105.6890   99.5781 H   0  0  0  0  0  0  0  0  0  0  0  0
  120.3661  103.7537  103.4643 H   0  0  0  0  0  0  0  0  0  0  0  0
  121.9283  104.4103  103.0110 H   0  0  0  0  0  0  0  0  0  0  0  0
  125.4138  107.5472  107.1188 H   0  0  0  0  0  0  0  0  0  0  0  0
  125.6383  106.2939  105.9355 H   0  0  0  0  0  0  0  0  0  0  0  0
  120.9076  105.4540  100.9716 H   0  0  0  0  0  0  0  0  0  0  0  0
  120.6400  103.6923  101.0109 H   0  0  0  0  0  0  0  0  0  0  0  0
  119.4269  106.0895  103.6528 H   0  0  0  0  0  0  0  0  0  0  0  0
  121.0025  106.7556  103.1919 H   0  0  0  0  0  0  0  0  0  0  0  0
  122.8405  106.9931  104.3705 H   0  0  0  0  0  0  0  0  0  0  0  0
  123.2698  105.3200  104.7414 H   0  0  0  0  0  0  0  0  0  0  0  0
  126.0260  108.2493  104.6771 H   0  0  0  0  0  0  0  0  0  0  0  0
  124.4545  108.8907  105.0930 H   0  0  0  0  0  0  0  0  0  0  0  0
  121.9138  107.5263  107.0686 H   0  0  0  0  0  0  0  0  0  0  0  0
  1  8  1  0  0  0  0
  2 11  1  0  0  0  0
  3  5  1  0  0  0  0
  3  6  1  0  0  0  0
  4  8  1  0  0  0  0
  4  9  1  0  0  0  0
  5 11  1  0  0  0  0
  6 12  1  0  0  0  0
  7  8  1  0  0  0  0
  7 12  1  0  0  0  0
  8 10  1  0  0  0  0
  1 13  1  0  0  0  0
  1 14  1  0  0  0  0
  1 15  1  0  0  0  0
  2 16  1  0  0  0  0
  2 17  1  0  0  0  0
  2 18  1  0  0  0  0
  3 19  1  0  0  0  0
  3 20  1  0  0  0  0
  4 21  1  0  0  0  0
  4 22  1  0  0  0  0
  5 23  1  0  0  0  0
  5 24  1  0  0  0  0
  6 25  1  0  0  0  0
  6 26  1  0  0  0  0
  7 27  1  0  0  0  0
  7 28  1  0  0  0  0
  9 29  1  0  0  0  0
  9 30  1  0  0  0  0
 10 31  1  0  0  0  0
M  END
> <FRED Chemgauss4 score>
-6.302253

$$$$
C42029926	P63621323
  -OEChem-05182014473D

 29 29  0     1  0  0  0  0  0999 V2000
  122.8719  106.3495  105.4505 C   0  0  0  0  0  0  0  0  0  0  0  0
  124.7750  106.7861  106.3974 C   0  0  0  0  0  0  0  0  0  0  0  0
  121.6837  105.6023  105.0012 C   0  0  0  0  0  0  0  0  0  0  0  0
  123.0679  104.1566  107.8382 C   0  0  0  0  0  0  0  0  0  0  0  0
  127.0305  106.0340  109.5073 C   0  0  0  0  0  0  0  0  0  0  0  0
  123.9603  104.4213  106.6377 C   0  0  0  0  0  0  0  0  0  0  0  0
  126.0636  106.5906  107.1845 C   0  0  1  0  0  0  0  0  0  0  0  0
  125.7757  106.1779  108.6487 C   0  0  2  0  0  0  0  0  0  0  0  0
  123.1422  107.6159  105.2279 N   0  0  0  0  0  0  0  0  0  0  0  0
  124.3529  107.8937  105.8304 N   0  0  0  0  0  0  0  0  0  0  0  0
  123.8733  105.7882  106.1833 N   0  0  0  0  0  0  0  0  0  0  0  0
  126.9310  105.6200  106.5077 N   0  0  0  0  0  0  0  0  0  0  0  0
  124.9552  107.1778  109.2627 O   0  0  0  0  0  0  0  0  0  0  0  0
  121.8509  105.1429  104.0123 H   0  0  0  0  0  0  0  0  0  0  0  0
  121.4108  104.7939  105.7023 H   0  0  0  0  0  0  0  0  0  0  0  0
  120.7914  106.2482  104.9220 H   0  0  0  0  0  0  0  0  0  0  0  0
  123.3351  104.8039  108.6802 H   0  0  0  0  0  0  0  0  0  0  0  0
  123.1673  103.1162  108.1627 H   0  0  0  0  0  0  0  0  0  0  0  0
  122.0157  104.3402  107.5969 H   0  0  0  0  0  0  0  0  0  0  0  0
  127.6340  106.9460  109.5051 H   0  0  0  0  0  0  0  0  0  0  0  0
  127.6501  105.2003  109.1590 H   0  0  0  0  0  0  0  0  0  0  0  0
  126.7576  105.8095  110.5447 H   0  0  0  0  0  0  0  0  0  0  0  0
  123.6855  103.7692  105.8008 H   0  0  0  0  0  0  0  0  0  0  0  0
  125.0081  104.2129  106.8819 H   0  0  0  0  0  0  0  0  0  0  0  0
  126.5983  107.5497  107.2028 H   0  0  0  0  0  0  0  0  0  0  0  0
  125.2156  105.2368  108.6909 H   0  0  0  0  0  0  0  0  0  0  0  0
  127.6342  105.1724  107.0488 H   0  0  0  0  0  0  0  0  0  0  0  0
  126.9170  105.6017  105.5142 H   0  0  0  0  0  0  0  0  0  0  0  0
  124.7531  106.8522  110.1515 H   0  0  0  0  0  0  0  0  0  0  0  0
  1  3  1  0  0  0  0
  1  9  2  0  0  0  0
  1 11  1  0  0  0  0
  2  7  1  0  0  0  0
  2 10  2  0  0  0  0
  2 11  1  0  0  0  0
  4  6  1  0  0  0  0
  5  8  1  0  0  0  0
  6 11  1  0  0  0  0
  7  8  1  0  0  0  0
  7 12  1  0  0  0  0
  8 13  1  0  0  0  0
  9 10  1  0  0  0  0
  3 14  1  0  0  0  0
  3 15  1  0  0  0  0
  3 16  1  0  0  0  0
  4 17  1  0  0  0  0
  4 18  1  0  0  0  0
  4 19  1  0  0  0  0
  5 20  1  0  0  0  0
  5 21  1  0  0  0  0
  5 22  1  0  0  0  0
  6 23  1  0  0  0  0
  6 24  1  0  0  0  0
  7 25  1  0  0  0  0
  8 26  1  0  0  0  0
 12 27  1  0  0  0  0
 12 28  1  0  0  0  0
 13 29  1  0  0  0  0
M  END
> <FRED Chemgauss4 score>
-6.297972

$$$$
C84117419	P131645698
  -OEChem-05182014473D

 22 23  0     1  0  0  0  0  0999 V2000
  119.1798  104.8605  106.1456 C   0  0  0  0  0  0  0  0  0  0  0  0
  118.5540  103.6475  106.4900 C   0  0  0  0  0  0  0  0  0  0  0  0
  120.5205  104.6159  106.3164 C   0  0  0  0  0  0  0  0  0  0  0  0
  121.6455  105.4537  106.1277 C   0  0  0  0  0  0  0  0  0  0  0  0
  123.7131  106.5899  106.1582 C   0  0  0  0  0  0  0  0  0  0  0  0
  125.5020  108.2709  105.5529 C   0  0  0  0  0  0  0  0  0  0  0  0
  125.1163  107.0851  106.4349 C   0  0  2  0  0  0  0  0  0  0  0  0
  119.4255  102.7023  106.8521 N   0  0  0  0  0  0  0  0  0  0  0  0
  121.6806  106.4264  105.2419 N   0  0  0  0  0  0  0  0  0  0  0  0
  122.8938  107.0922  105.2591 N   0  0  0  0  0  0  0  0  0  0  0  0
  120.6126  103.3214  106.7361 N   0  0  0  0  0  0  0  0  0  0  0  0
  126.0835  106.0194  106.3056 N   0  0  0  0  0  0  0  0  0  0  0  0
  123.0784  105.2713  107.0524 S   0  0  0  0  0  0  0  0  0  0  0  0
  118.7162  105.7808  105.8199 H   0  0  0  0  0  0  0  0  0  0  0  0
  117.4994  103.4130  106.4925 H   0  0  0  0  0  0  0  0  0  0  0  0
  125.4544  108.0050  104.4912 H   0  0  0  0  0  0  0  0  0  0  0  0
  124.8215  109.1130  105.7226 H   0  0  0  0  0  0  0  0  0  0  0  0
  126.5156  108.6283  105.7667 H   0  0  0  0  0  0  0  0  0  0  0  0
  125.1827  107.4118  107.4799 H   0  0  0  0  0  0  0  0  0  0  0  0
  121.4486  102.7957  106.9604 H   0  0  0  0  0  0  0  0  0  0  0  0
  125.8207  105.0905  106.5823 H   0  0  0  0  0  0  0  0  0  0  0  0
  127.0455  106.2559  106.1402 H   0  0  0  0  0  0  0  0  0  0  0  0
  1  2  1  0  0  0  0
  1  3  2  0  0  0  0
  2  8  2  0  0  0  0
  3  4  1  0  0  0  0
  3 11  1  0  0  0  0
  4  9  2  0  0  0  0
  4 13  1  0  0  0  0
  5  7  1  0  0  0  0
  5 10  2  0  0  0  0
  5 13  1  0  0  0  0
  6  7  1  0  0  0  0
  7 12  1  0  0  0  0
  8 11  1  0  0  0  0
  9 10  1  0  0  0  0
  1 14  1  0  0  0  0
  2 15  1  0  0  0  0
  6 16  1  0  0  0  0
  6 17  1  0  0  0  0
  6 18  1  0  0  0  0
  7 19  1  0  0  0  0
 11 20  1  0  0  0  0
 12 21  1  0  0  0  0
 12 22  1  0  0  0  0
M  END
> <FRED Chemgauss4 score>
-6.296071

$$$$
chloroalanine	P10000035
  -OEChem-05182014473D

 13 12  0     1  0  0  0  0  0999 V2000
  124.7039  107.6162  105.2773 C   0  0  0  0  0  0  0  0  0  0  0  0
  125.7092  105.8618  106.9042 C   0  0  0  0  0  0  0  0  0  0  0  0
  125.2301  107.2958  106.6875 C   0  0  1  0  0  0  0  0  0  0  0  0
  126.3075  108.2247  107.1567 N   0  3  0  0  0  0  0  0  0  0  0  0
  125.5502  107.4835  104.3472 O   0  5  0  0  0  0  0  0  0  0  0  0
  123.5018  107.9981  105.2100 O   0  0  0  0  0  0  0  0  0  0  0  0
  125.7585  105.4177  108.6313 Cl  0  0  0  0  0  0  0  0  0  0  0  0
  125.0479  105.1468  106.4038 H   0  0  0  0  0  0  0  0  0  0  0  0
  126.7175  105.7165  106.5044 H   0  0  0  0  0  0  0  0  0  0  0  0
  124.3912  107.4813  107.3698 H   0  0  0  0  0  0  0  0  0  0  0  0
  127.0829  107.6932  107.5538 H   0  0  0  0  0  0  0  0  0  0  0  0
  125.9422  108.8550  107.8716 H   0  0  0  0  0  0  0  0  0  0  0  0
  126.6574  108.7815  106.3763 H   0  0  0  0  0  0  0  0  0  0  0  0
  1  3  1  0  0  0  0
  1  5  1  0  0  0  0
  1  6  2  0  0  0  0
  2  3  1  0  0  0  0
  2  7  1  0  0  0  0
  3  4  1  0  0  0  0
  2  8  1  0  0  0  0
  2  9  1  0  0  0  0
  3 10  1  0  0  0  0
  4 11  1  0  0  0  0
  4 12  1  0  0  0  0
  4 13  1  0  0  0  0
M  CHG  2   4   1   5  -1
M  END
> <FRED Chemgauss4 score>
-6.292908

$$$$
C49330080	P73697318
  -OEChem-05182014473D

 27 27  0     0  0  0  0  0  0999 V2000
  118.9396  103.8052  106.0805 C   0  0  0  0  0  0  0  0  0  0  0  0
  120.0945  104.5489  106.1400 C   0  0  0  0  0  0  0  0  0  0  0  0
  118.3497  105.8065  105.6597 C   0  0  0  0  0  0  0  0  0  0  0  0
  117.5825  107.0274  105.3392 C   0  0  0  0  0  0  0  0  0  0  0  0
  120.5773  106.9951  105.8144 C   0  0  0  0  0  0  0  0  0  0  0  0
  121.9558  106.7352  106.4123 C   0  0  0  0  0  0  0  0  0  0  0  0
  124.1195  107.6001  106.9886 C   0  0  0  0  0  0  0  0  0  0  0  0
  125.0035  106.8957  105.9758 C   0  0  0  0  0  0  0  0  0  0  0  0
  117.8571  104.5938  105.7808 N   0  0  0  0  0  0  0  0  0  0  0  0
  119.7008  105.8288  105.8678 N   0  0  0  0  0  0  0  0  0  0  0  0
  122.8071  107.9060  106.3746 N   0  0  0  0  0  0  0  0  0  0  0  0
  125.1649  107.7251  104.8321 O   0  0  0  0  0  0  0  0  0  0  0  0
  118.8326  102.7419  106.2382 H   0  0  0  0  0  0  0  0  0  0  0  0
  121.1232  104.2870  106.3446 H   0  0  0  0  0  0  0  0  0  0  0  0
  117.2191  107.5191  106.2560 H   0  0  0  0  0  0  0  0  0  0  0  0
  118.1887  107.7613  104.7820 H   0  0  0  0  0  0  0  0  0  0  0  0
  116.7067  106.8098  104.7048 H   0  0  0  0  0  0  0  0  0  0  0  0
  120.0735  107.7996  106.3636 H   0  0  0  0  0  0  0  0  0  0  0  0
  120.6523  107.3149  104.7682 H   0  0  0  0  0  0  0  0  0  0  0  0
  121.8592  106.4474  107.4637 H   0  0  0  0  0  0  0  0  0  0  0  0
  122.4782  105.9320  105.8828 H   0  0  0  0  0  0  0  0  0  0  0  0
  123.9482  106.9735  107.8696 H   0  0  0  0  0  0  0  0  0  0  0  0
  124.5771  108.5430  107.3030 H   0  0  0  0  0  0  0  0  0  0  0  0
  124.5325  105.9622  105.6523 H   0  0  0  0  0  0  0  0  0  0  0  0
  125.9917  106.6719  106.3907 H   0  0  0  0  0  0  0  0  0  0  0  0
  122.3869  108.6630  106.8985 H   0  0  0  0  0  0  0  0  0  0  0  0
  125.7335  107.2398  104.2129 H   0  0  0  0  0  0  0  0  0  0  0  0
  1  2  2  0  0  0  0
  1  9  1  0  0  0  0
  2 10  1  0  0  0  0
  3  4  1  0  0  0  0
  3  9  2  0  0  0  0
  3 10  1  0  0  0  0
  5  6  1  0  0  0  0
  5 10  1  0  0  0  0
  6 11  1  0  0  0  0
  7  8  1  0  0  0  0
  7 11  1  0  0  0  0
  8 12  1  0  0  0  0
  1 13  1  0  0  0  0
  2 14  1  0  0  0  0
  4 15  1  0  0  0  0
  4 16  1  0  0  0  0
  4 17  1  0  0  0  0
  5 18  1  0  0  0  0
  5 19  1  0  0  0  0
  6 20  1  0  0  0  0
  6 21  1  0  0  0  0
  7 22  1  0  0  0  0
  7 23  1  0  0  0  0
  8 24  1  0  0  0  0
  8 25  1  0  0  0  0
 11 26  1  0  0  0  0
 12 27  1  0  0  0  0
M  END
> <FRED Chemgauss4 score>
-6.290787

$$$$
C85004490	P133054962
  -OEChem-05182014473D

 23 23  0     1  0  0  0  0  0999 V2000
  126.6597  105.7630  108.2971 C   0  0  0  0  0  0  0  0  0  0  0  0
  125.0019  105.5782  107.0424 C   0  0  0  0  0  0  0  0  0  0  0  0
  123.0335  107.8272  106.4318 C   0  0  0  0  0  0  0  0  0  0  0  0
  124.0362  105.5872  105.8787 C   0  0  0  0  0  0  0  0  0  0  0  0
  121.8090  105.7433  107.2068 C   0  0  0  0  0  0  0  0  0  0  0  0
  122.7124  106.3571  106.1170 C   0  0  1  0  0  0  0  0  0  0  0  0
  126.2506  105.9820  107.0129 N   0  0  0  0  0  0  0  0  0  0  0  0
  124.6918  105.1405  108.2923 N   0  0  0  0  0  0  0  0  0  0  0  0
  125.7426  105.2491  109.1194 N   0  0  0  0  0  0  0  0  0  0  0  0
  121.5182  104.3288  107.0084 N   0  0  0  0  0  0  0  0  0  0  0  0
  121.9452  106.3569  104.9048 O   0  0  0  0  0  0  0  0  0  0  0  0
  127.6641  105.9913  108.6289 H   0  0  0  0  0  0  0  0  0  0  0  0
  122.1138  108.3975  106.6052 H   0  0  0  0  0  0  0  0  0  0  0  0
  123.6791  107.9313  107.3092 H   0  0  0  0  0  0  0  0  0  0  0  0
  123.5357  108.3063  105.5830 H   0  0  0  0  0  0  0  0  0  0  0  0
  124.5479  105.9890  104.9941 H   0  0  0  0  0  0  0  0  0  0  0  0
  123.8116  104.5391  105.6358 H   0  0  0  0  0  0  0  0  0  0  0  0
  120.8655  106.2986  107.2687 H   0  0  0  0  0  0  0  0  0  0  0  0
  122.2804  105.8764  108.1891 H   0  0  0  0  0  0  0  0  0  0  0  0
  125.7099  104.9732  110.0970 H   0  0  0  0  0  0  0  0  0  0  0  0
  121.3365  104.0102  106.0801 H   0  0  0  0  0  0  0  0  0  0  0  0
  121.3104  103.7729  107.8112 H   0  0  0  0  0  0  0  0  0  0  0  0
  121.1513  106.8768  105.0914 H   0  0  0  0  0  0  0  0  0  0  0  0
  1  7  2  0  0  0  0
  1  9  1  0  0  0  0
  2  4  1  0  0  0  0
  2  7  1  0  0  0  0
  2  8  2  0  0  0  0
  3  6  1  0  0  0  0
  4  6  1  0  0  0  0
  5  6  1  0  0  0  0
  5 10  1  0  0  0  0
  6 11  1  0  0  0  0
  8  9  1  0  0  0  0
  1 12  1  0  0  0  0
  3 13  1  0  0  0  0
  3 14  1  0  0  0  0
  3 15  1  0  0  0  0
  4 16  1  0  0  0  0
  4 17  1  0  0  0  0
  5 18  1  0  0  0  0
  5 19  1  0  0  0  0
  9 20  1  0  0  0  0
 10 21  1  0  0  0  0
 10 22  1  0  0  0  0
 11 23  1  0  0  0  0
M  END
> <FRED Chemgauss4 score>
-6.289368

$$$$
C95922757	P151023630
  -OEChem-05182014473D

 17 17  0     0  0  0  0  0  0999 V2000
  125.9258  106.7452  106.7125 C   0  0  0  0  0  0  0  0  0  0  0  0
  124.2645  106.0169  108.2864 C   0  0  0  0  0  0  0  0  0  0  0  0
  125.5643  106.1618  107.9894 C   0  0  0  0  0  0  0  0  0  0  0  0
  124.9945  107.1391  105.8316 C   0  0  0  0  0  0  0  0  0  0  0  0
  123.5456  106.9749  106.1699 C   0  0  0  0  0  0  0  0  0  0  0  0
  126.6708  105.7521  108.9084 C   0  0  0  0  0  0  0  0  0  0  0  0
  123.2858  106.4095  107.4077 N   0  0  0  0  0  0  0  0  0  0  0  0
  122.6718  107.3276  105.3817 O   0  0  0  0  0  0  0  0  0  0  0  0
  125.3359  107.6934  104.6185 O   0  0  0  0  0  0  0  0  0  0  0  0
  127.2458  106.8979  109.5115 O   0  0  0  0  0  0  0  0  0  0  0  0
  126.9809  106.8576  106.4822 H   0  0  0  0  0  0  0  0  0  0  0  0
  123.9131  105.5904  109.2180 H   0  0  0  0  0  0  0  0  0  0  0  0
  127.4419  105.2147  108.3556 H   0  0  0  0  0  0  0  0  0  0  0  0
  126.2757  105.1053  109.6919 H   0  0  0  0  0  0  0  0  0  0  0  0
  122.3161  106.2781  107.6805 H   0  0  0  0  0  0  0  0  0  0  0  0
  124.5406  107.9139  104.1211 H   0  0  0  0  0  0  0  0  0  0  0  0
  127.9561  106.5852  110.0969 H   0  0  0  0  0  0  0  0  0  0  0  0
  1  3  1  0  0  0  0
  1  4  2  0  0  0  0
  2  3  2  0  0  0  0
  2  7  1  0  0  0  0
  3  6  1  0  0  0  0
  4  5  1  0  0  0  0
  4  9  1  0  0  0  0
  5  7  1  0  0  0  0
  5  8  2  0  0  0  0
  6 10  1  0  0  0  0
  1 11  1  0  0  0  0
  2 12  1  0  0  0  0
  6 13  1  0  0  0  0
  6 14  1  0  0  0  0
  7 15  1  0  0  0  0
  9 16  1  0  0  0  0
 10 17  1  0  0  0  0
M  END
> <FRED Chemgauss4 score>
-6.287244

$$$$
C88001018	P137647184
  -OEChem-05182014473D

 25 26  0     1  0  0  0  0  0999 V2000
  124.7298  106.0102  106.8145 C   0  0  0  0  0  0  0  0  0  0  0  0
  122.7572  106.6376  106.1663 C   0  0  0  0  0  0  0  0  0  0  0  0
  125.6907  105.3303  107.6310 C   0  0  0  0  0  0  0  0  0  0  0  0
  123.9531  104.5091  108.9011 C   0  0  0  0  0  0  0  0  0  0  0  0
  122.9955  105.1209  108.1754 C   0  0  0  0  0  0  0  0  0  0  0  0
  118.7802  108.4663  108.2818 C   0  0  0  0  0  0  0  0  0  0  0  0
  120.6704  107.3936  107.3879 C   0  0  0  0  0  0  0  0  0  0  0  0
  121.2921  106.7883  106.1078 C   0  0  2  0  0  0  0  0  0  0  0  0
  124.9077  106.7776  105.7692 N   0  0  0  0  0  0  0  0  0  0  0  0
  123.6450  107.1792  105.3550 N   0  0  0  0  0  0  0  0  0  0  0  0
  125.3191  104.5983  108.6477 N   0  0  0  0  0  0  0  0  0  0  0  0
  123.3998  105.8907  107.1044 N   0  0  0  0  0  0  0  0  0  0  0  0
  120.6085  105.5267  105.8286 N   0  0  0  0  0  0  0  0  0  0  0  0
  119.3681  107.9025  107.1184 O   0  0  0  0  0  0  0  0  0  0  0  0
  126.7622  105.4269  107.3954 H   0  0  0  0  0  0  0  0  0  0  0  0
  123.6778  103.8935  109.7511 H   0  0  0  0  0  0  0  0  0  0  0  0
  121.9381  105.0367  108.3902 H   0  0  0  0  0  0  0  0  0  0  0  0
  117.7845  108.8462  108.0403 H   0  0  0  0  0  0  0  0  0  0  0  0
  119.4111  109.2776  108.6534 H   0  0  0  0  0  0  0  0  0  0  0  0
  118.6962  107.6923  109.0484 H   0  0  0  0  0  0  0  0  0  0  0  0
  120.5711  106.6205  108.1578 H   0  0  0  0  0  0  0  0  0  0  0  0
  121.2827  108.2097  107.7868 H   0  0  0  0  0  0  0  0  0  0  0  0
  120.9861  107.4421  105.2630 H   0  0  0  0  0  0  0  0  0  0  0  0
  121.0397  104.8917  105.1934 H   0  0  0  0  0  0  0  0  0  0  0  0
  119.6585  105.4363  106.1151 H   0  0  0  0  0  0  0  0  0  0  0  0
  1  3  1  0  0  0  0
  1  9  2  0  0  0  0
  1 12  1  0  0  0  0
  2  8  1  0  0  0  0
  2 10  2  0  0  0  0
  2 12  1  0  0  0  0
  3 11  2  0  0  0  0
  4  5  2  0  0  0  0
  4 11  1  0  0  0  0
  5 12  1  0  0  0  0
  6 14  1  0  0  0  0
  7  8  1  0  0  0  0
  7 14  1  0  0  0  0
  8 13  1  0  0  0  0
  9 10  1  0  0  0  0
  3 15  1  0  0  0  0
  4 16  1  0  0  0  0
  5 17  1  0  0  0  0
  6 18  1  0  0  0  0
  6 19  1  0  0  0  0
  6 20  1  0  0  0  0
  7 21  1  0  0  0  0
  7 22  1  0  0  0  0
  8 23  1  0  0  0  0
 13 24  1  0  0  0  0
 13 25  1  0  0  0  0
M  END
> <FRED Chemgauss4 score>
-6.283525

$$$$
C51113447	P76540543
  -OEChem-05182014473D

 35 36  0     0  0  0  0  0  0999 V2000
  120.6381  104.3873  103.6935 C   0  0  0  0  0  0  0  0  0  0  0  0
  120.8144  105.1484  101.4073 C   0  0  0  0  0  0  0  0  0  0  0  0
  119.2634  104.6216  103.6655 C   0  0  0  0  0  0  0  0  0  0  0  0
  119.4397  105.3827  101.3793 C   0  0  0  0  0  0  0  0  0  0  0  0
  123.8157  106.7755  108.9805 C   0  0  0  0  0  0  0  0  0  0  0  0
  122.7591  107.6780  109.0304 C   0  0  0  0  0  0  0  0  0  0  0  0
  121.4137  104.6507  102.5644 C   0  0  0  0  0  0  0  0  0  0  0  0
  118.6641  105.1192  102.5084 C   0  0  0  0  0  0  0  0  0  0  0  0
  124.3452  106.4009  107.7507 C   0  0  0  0  0  0  0  0  0  0  0  0
  123.7871  106.9530  106.6090 C   0  0  0  0  0  0  0  0  0  0  0  0
  122.2721  108.1731  107.8315 C   0  0  0  0  0  0  0  0  0  0  0  0
  124.2841  106.6151  105.2503 C   0  0  0  0  0  0  0  0  0  0  0  0
  122.8834  104.3988  102.5933 C   0  0  0  0  0  0  0  0  0  0  0  0
  123.7037  105.6085  103.0581 C   0  0  0  0  0  0  0  0  0  0  0  0
  122.7605  107.8326  106.6177 N   0  0  0  0  0  0  0  0  0  0  0  0
  120.8339  109.6895  109.0781 N   0  0  0  0  0  0  0  0  0  0  0  0
  121.1939  109.0901  107.8979 N   0  0  0  0  0  0  0  0  0  0  0  0
  123.3667  106.0161  104.3957 N   0  0  0  0  0  0  0  0  0  0  0  0
  125.4537  106.8552  104.9623 O   0  0  0  0  0  0  0  0  0  0  0  0
  116.9682  105.4080  102.4741 Cl  0  0  0  0  0  0  0  0  0  0  0  0
  125.6519  105.2827  107.6935 Cl  0  0  0  0  0  0  0  0  0  0  0  0
  121.0976  103.9996  104.5989 H   0  0  0  0  0  0  0  0  0  0  0  0
  121.4116  105.3561  100.5232 H   0  0  0  0  0  0  0  0  0  0  0  0
  118.6718  104.4113  104.5528 H   0  0  0  0  0  0  0  0  0  0  0  0
  118.9865  105.7707  100.4707 H   0  0  0  0  0  0  0  0  0  0  0  0
  124.2154  106.3730  109.9075 H   0  0  0  0  0  0  0  0  0  0  0  0
  122.3392  107.9753  109.9858 H   0  0  0  0  0  0  0  0  0  0  0  0
  123.2249  104.1111  101.5847 H   0  0  0  0  0  0  0  0  0  0  0  0
  123.1165  103.5318  103.2351 H   0  0  0  0  0  0  0  0  0  0  0  0
  124.7719  105.3696  103.0606 H   0  0  0  0  0  0  0  0  0  0  0  0
  123.5482  106.4705  102.4010 H   0  0  0  0  0  0  0  0  0  0  0  0
  119.8175  109.6677  109.1463 H   0  0  0  0  0  0  0  0  0  0  0  0
  121.0914  110.6746  109.0328 H   0  0  0  0  0  0  0  0  0  0  0  0
  120.8348  109.4542  107.0305 H   0  0  0  0  0  0  0  0  0  0  0  0
  122.4321  105.7933  104.7318 H   0  0  0  0  0  0  0  0  0  0  0  0
  1  3  1  0  0  0  0
  1  7  2  0  0  0  0
  2  4  2  0  0  0  0
  2  7  1  0  0  0  0
  3  8  2  0  0  0  0
  4  8  1  0  0  0  0
  5  6  1  0  0  0  0
  5  9  2  0  0  0  0
  6 11  2  0  0  0  0
  7 13  1  0  0  0  0
  8 20  1  0  0  0  0
  9 10  1  0  0  0  0
  9 21  1  0  0  0  0
 10 12  1  0  0  0  0
 10 15  2  0  0  0  0
 11 15  1  0  0  0  0
 11 17  1  0  0  0  0
 12 18  1  0  0  0  0
 12 19  2  0  0  0  0
 13 14  1  0  0  0  0
 14 18  1  0  0  0  0
 16 17  1  0  0  0  0
  1 22  1  0  0  0  0
  2 23  1  0  0  0  0
  3 24  1  0  0  0  0
  4 25  1  0  0  0  0
  5 26  1  0  0  0  0
  6 27  1  0  0  0  0
 13 28  1  0  0  0  0
 13 29  1  0  0  0  0
 14 30  1  0  0  0  0
 14 31  1  0  0  0  0
 16 32  1  0  0  0  0
 16 33  1  0  0  0  0
 17 34  1  0  0  0  0
 18 35  1  0  0  0  0
M  END
> <FRED Chemgauss4 score>
-6.280578

$$$$
C69791155	P107540367
  -OEChem-05182014473D

 19 18  0     0  0  0  0  0  0999 V2000
  118.3179  104.0272  106.4650 C   0  0  0  0  0  0  0  0  0  0  0  0
  119.3194  104.6470  106.6975 C   0  0  0  0  0  0  0  0  0  0  0  0
  123.3206  106.7133  105.7478 C   0  0  0  0  0  0  0  0  0  0  0  0
  120.5446  105.4086  106.9856 C   0  0  0  0  0  0  0  0  0  0  0  0
  124.5881  107.3410  106.2690 C   0  0  0  0  0  0  0  0  0  0  0  0
  121.7563  104.8397  106.2541 C   0  0  0  0  0  0  0  0  0  0  0  0
  124.9561  108.4853  105.4224 N   0  0  0  0  0  0  0  0  0  0  0  0
  122.9373  105.6281  106.5228 N   0  0  0  0  0  0  0  0  0  0  0  0
  122.7174  107.1275  104.7614 O   0  0  0  0  0  0  0  0  0  0  0  0
  117.4297  103.4769  106.2590 H   0  0  0  0  0  0  0  0  0  0  0  0
  120.7256  105.4217  108.0671 H   0  0  0  0  0  0  0  0  0  0  0  0
  120.3978  106.4490  106.6725 H   0  0  0  0  0  0  0  0  0  0  0  0
  124.4328  107.6873  107.2951 H   0  0  0  0  0  0  0  0  0  0  0  0
  125.3991  106.6070  106.2533 H   0  0  0  0  0  0  0  0  0  0  0  0
  121.9387  103.8006  106.5496 H   0  0  0  0  0  0  0  0  0  0  0  0
  121.5705  104.8494  105.1752 H   0  0  0  0  0  0  0  0  0  0  0  0
  125.9087  108.7634  105.4150 H   0  0  0  0  0  0  0  0  0  0  0  0
  124.2204  109.0465  105.0639 H   0  0  0  0  0  0  0  0  0  0  0  0
  123.5157  105.3752  107.3188 H   0  0  0  0  0  0  0  0  0  0  0  0
  1  2  3  0  0  0  0
  2  4  1  0  0  0  0
  3  5  1  0  0  0  0
  3  8  1  0  0  0  0
  3  9  2  0  0  0  0
  4  6  1  0  0  0  0
  5  7  1  0  0  0  0
  6  8  1  0  0  0  0
  1 10  1  0  0  0  0
  4 11  1  0  0  0  0
  4 12  1  0  0  0  0
  5 13  1  0  0  0  0
  5 14  1  0  0  0  0
  6 15  1  0  0  0  0
  6 16  1  0  0  0  0
  7 17  1  0  0  0  0
  7 18  1  0  0  0  0
  8 19  1  0  0  0  0
M  END
> <FRED Chemgauss4 score>
-6.278578

$$$$
C54526015	P82065671
  -OEChem-05182014473D

 32 32  0     1  0  0  0  0  0999 V2000
  122.9314  107.3720  106.3669 C   0  0  0  0  0  0  0  0  0  0  0  0
  124.7907  106.3968  106.9158 C   0  0  0  0  0  0  0  0  0  0  0  0
  125.6040  103.2287  106.8298 C   0  0  0  0  0  0  0  0  0  0  0  0
  126.1300  103.5958  109.2408 C   0  0  0  0  0  0  0  0  0  0  0  0
  121.8338  109.3976  110.1587 C   0  0  0  0  0  0  0  0  0  0  0  0
  122.9359  106.2660  108.6138 C   0  0  0  0  0  0  0  0  0  0  0  0
  121.9308  107.2880  109.1276 C   0  0  0  0  0  0  0  0  0  0  0  0
  125.8103  105.6129  107.7227 C   0  0  1  0  0  0  0  0  0  0  0  0
  125.3735  104.1575  108.0287 C   0  0  0  0  0  0  0  0  0  0  0  0
  123.7737  107.5397  105.3724 N   0  0  0  0  0  0  0  0  0  0  0  0
  124.9566  106.9192  105.7217 N   0  0  0  0  0  0  0  0  0  0  0  0
  123.5300  106.6578  107.3601 N   0  0  0  0  0  0  0  0  0  0  0  0
  127.0657  105.6567  107.0041 N   0  0  0  0  0  0  0  0  0  0  0  0
  122.5687  108.5485  109.2880 O   0  0  0  0  0  0  0  0  0  0  0  0
  121.9141  107.7330  106.4177 H   0  0  0  0  0  0  0  0  0  0  0  0
  126.6602  103.2113  106.5397 H   0  0  0  0  0  0  0  0  0  0  0  0
  125.3036  102.2030  107.0702 H   0  0  0  0  0  0  0  0  0  0  0  0
  125.0165  103.5407  105.9608 H   0  0  0  0  0  0  0  0  0  0  0  0
  127.2110  103.5884  109.0648 H   0  0  0  0  0  0  0  0  0  0  0  0
  125.8154  102.5681  109.4526 H   0  0  0  0  0  0  0  0  0  0  0  0
  125.9351  104.1866  110.1414 H   0  0  0  0  0  0  0  0  0  0  0  0
  122.3517  110.3546  110.2584 H   0  0  0  0  0  0  0  0  0  0  0  0
  121.7356  108.9206  111.1371 H   0  0  0  0  0  0  0  0  0  0  0  0
  120.8403  109.5659  109.7362 H   0  0  0  0  0  0  0  0  0  0  0  0
  122.4642  105.2878  108.4645 H   0  0  0  0  0  0  0  0  0  0  0  0
  123.7544  106.1385  109.3316 H   0  0  0  0  0  0  0  0  0  0  0  0
  121.1230  107.4114  108.3995 H   0  0  0  0  0  0  0  0  0  0  0  0
  121.4988  106.9878  110.0878 H   0  0  0  0  0  0  0  0  0  0  0  0
  126.0038  106.1267  108.6734 H   0  0  0  0  0  0  0  0  0  0  0  0
  124.3035  104.1353  108.2737 H   0  0  0  0  0  0  0  0  0  0  0  0
  127.7612  104.9625  107.2058 H   0  0  0  0  0  0  0  0  0  0  0  0
  127.2927  106.4816  106.4802 H   0  0  0  0  0  0  0  0  0  0  0  0
  1 10  2  0  0  0  0
  1 12  1  0  0  0  0
  2  8  1  0  0  0  0
  2 11  2  0  0  0  0
  2 12  1  0  0  0  0
  3  9  1  0  0  0  0
  4  9  1  0  0  0  0
  5 14  1  0  0  0  0
  6  7  1  0  0  0  0
  6 12  1  0  0  0  0
  7 14  1  0  0  0  0
  8  9  1  0  0  0  0
  8 13  1  0  0  0  0
 10 11  1  0  0  0  0
  1 15  1  0  0  0  0
  3 16  1  0  0  0  0
  3 17  1  0  0  0  0
  3 18  1  0  0  0  0
  4 19  1  0  0  0  0
  4 20  1  0  0  0  0
  4 21  1  0  0  0  0
  5 22  1  0  0  0  0
  5 23  1  0  0  0  0
  5 24  1  0  0  0  0
  6 25  1  0  0  0  0
  6 26  1  0  0  0  0
  7 27  1  0  0  0  0
  7 28  1  0  0  0  0
  8 29  1  0  0  0  0
  9 30  1  0  0  0  0
 13 31  1  0  0  0  0
 13 32  1  0  0  0  0
M  END
> <FRED Chemgauss4 score>
-6.270520

$$$$
C74210003	P115654798
  -OEChem-05182014473D

 29 30  0     1  0  0  0  0  0999 V2000
  120.4322  106.2848  106.3188 C   0  0  0  0  0  0  0  0  0  0  0  0
  121.5971  106.0043  104.2335 C   0  0  0  0  0  0  0  0  0  0  0  0
  119.2657  105.9498  105.6503 C   0  0  0  0  0  0  0  0  0  0  0  0
  120.3785  105.6816  103.6583 C   0  0  0  0  0  0  0  0  0  0  0  0
  126.9110  106.1951  108.2031 C   0  0  0  0  0  0  0  0  0  0  0  0
  126.0769  105.7036  109.1794 C   0  0  0  0  0  0  0  0  0  0  0  0
  121.6158  106.3103  105.5897 C   0  0  0  0  0  0  0  0  0  0  0  0
  125.0825  105.7405  107.2131 C   0  0  0  0  0  0  0  0  0  0  0  0
  123.7195  104.8716  109.1402 C   0  0  0  0  0  0  0  0  0  0  0  0
  123.9878  105.5543  106.1872 C   0  0  0  0  0  0  0  0  0  0  0  0
  122.8999  106.6651  106.2592 C   0  0  1  0  0  0  0  0  0  0  0  0
  119.2082  105.6465  104.3341 N   0  0  0  0  0  0  0  0  0  0  0  0
  126.2860  106.2158  106.9815 N   0  0  0  0  0  0  0  0  0  0  0  0
  124.9091  105.4171  108.5301 N   0  0  0  0  0  0  0  0  0  0  0  0
  123.4840  107.9109  105.7156 N   0  0  0  0  0  0  0  0  0  0  0  0
  120.4130  106.5194  107.3777 H   0  0  0  0  0  0  0  0  0  0  0  0
  122.5037  106.0152  103.6382 H   0  0  0  0  0  0  0  0  0  0  0  0
  118.3157  105.9168  106.1736 H   0  0  0  0  0  0  0  0  0  0  0  0
  120.3105  105.4351  102.6039 H   0  0  0  0  0  0  0  0  0  0  0  0
  127.9298  106.5353  108.3178 H   0  0  0  0  0  0  0  0  0  0  0  0
  126.2092  105.5396  110.2397 H   0  0  0  0  0  0  0  0  0  0  0  0
  123.0987  105.7068  109.4748 H   0  0  0  0  0  0  0  0  0  0  0  0
  123.1806  104.2640  108.4079 H   0  0  0  0  0  0  0  0  0  0  0  0
  124.0042  104.2419  109.9878 H   0  0  0  0  0  0  0  0  0  0  0  0
  123.5435  104.5627  106.3523 H   0  0  0  0  0  0  0  0  0  0  0  0
  124.4279  105.5114  105.1822 H   0  0  0  0  0  0  0  0  0  0  0  0
  122.7164  106.8756  107.3301 H   0  0  0  0  0  0  0  0  0  0  0  0
  124.4556  108.0429  105.8375 H   0  0  0  0  0  0  0  0  0  0  0  0
  122.8541  108.6239  105.4487 H   0  0  0  0  0  0  0  0  0  0  0  0
  1  3  2  0  0  0  0
  1  7  1  0  0  0  0
  2  4  1  0  0  0  0
  2  7  2  0  0  0  0
  3 12  1  0  0  0  0
  4 12  2  0  0  0  0
  5  6  2  0  0  0  0
  5 13  1  0  0  0  0
  6 14  1  0  0  0  0
  7 11  1  0  0  0  0
  8 10  1  0  0  0  0
  8 13  2  0  0  0  0
  8 14  1  0  0  0  0
  9 14  1  0  0  0  0
 10 11  1  0  0  0  0
 11 15  1  0  0  0  0
  1 16  1  0  0  0  0
  2 17  1  0  0  0  0
  3 18  1  0  0  0  0
  4 19  1  0  0  0  0
  5 20  1  0  0  0  0
  6 21  1  0  0  0  0
  9 22  1  0  0  0  0
  9 23  1  0  0  0  0
  9 24  1  0  0  0  0
 10 25  1  0  0  0  0
 10 26  1  0  0  0  0
 11 27  1  0  0  0  0
 15 28  1  0  0  0  0
 15 29  1  0  0  0  0
M  END
> <FRED Chemgauss4 score>
-6.267065

$$$$
C98091800	P155914780
  -OEChem-05182014473D

 21 21  0     1  0  0  0  0  0999 V2000
  123.5112  105.1123  108.4043 C   0  0  0  0  0  0  0  0  0  0  0  0
  124.6178  107.0184  106.5367 C   0  0  0  0  0  0  0  0  0  0  0  0
  124.9360  105.6053  108.5762 C   0  0  1  0  0  0  0  0  0  0  0  0
  123.7237  105.8888  106.0490 C   0  0  2  0  0  0  0  0  0  0  0  0
  125.9578  104.5453  108.1957 C   0  0  0  0  0  0  0  0  0  0  0  0
  122.8167  106.3435  104.9146 C   0  0  0  0  0  0  0  0  0  0  0  0
  125.0975  106.8373  107.8212 N   0  0  0  0  0  0  0  0  0  0  0  0
  122.9430  105.4155  107.1815 N   0  0  0  0  0  0  0  0  0  0  0  0
  122.9558  104.4178  109.2538 O   0  0  0  0  0  0  0  0  0  0  0  0
  124.9730  107.9506  105.8178 O   0  0  0  0  0  0  0  0  0  0  0  0
  121.9922  107.3964  105.3847 O   0  0  0  0  0  0  0  0  0  0  0  0
  125.0739  105.8615  109.6526 H   0  0  0  0  0  0  0  0  0  0  0  0
  124.3440  105.0694  105.7315 H   0  0  0  0  0  0  0  0  0  0  0  0
  125.8445  104.2759  107.1450 H   0  0  0  0  0  0  0  0  0  0  0  0
  125.8158  103.6524  108.8056 H   0  0  0  0  0  0  0  0  0  0  0  0
  126.9679  104.9244  108.3555 H   0  0  0  0  0  0  0  0  0  0  0  0
  122.1857  105.5171  104.5822 H   0  0  0  0  0  0  0  0  0  0  0  0
  123.4144  106.7054  104.0758 H   0  0  0  0  0  0  0  0  0  0  0  0
  125.5937  107.6147  108.2641 H   0  0  0  0  0  0  0  0  0  0  0  0
  121.9476  105.3045  107.0687 H   0  0  0  0  0  0  0  0  0  0  0  0
  121.4255  107.6663  104.6425 H   0  0  0  0  0  0  0  0  0  0  0  0
  1  3  1  0  0  0  0
  1  8  1  0  0  0  0
  1  9  2  0  0  0  0
  2  4  1  0  0  0  0
  2  7  1  0  0  0  0
  2 10  2  0  0  0  0
  3  5  1  0  0  0  0
  3  7  1  0  0  0  0
  4  6  1  0  0  0  0
  4  8  1  0  0  0  0
  6 11  1  0  0  0  0
  3 12  1  0  0  0  0
  4 13  1  0  0  0  0
  5 14  1  0  0  0  0
  5 15  1  0  0  0  0
  5 16  1  0  0  0  0
  6 17  1  0  0  0  0
  6 18  1  0  0  0  0
  7 19  1  0  0  0  0
  8 20  1  0  0  0  0
 11 21  1  0  0  0  0
M  END
> <FRED Chemgauss4 score>
-6.266764

$$$$
C05157121	P07617928
  -OEChem-05182014473D

 23 23  0     1  0  0  0  0  0999 V2000
  125.3805  104.6388  107.8453 C   0  0  0  0  0  0  0  0  0  0  0  0
  125.7553  105.9589  108.4835 C   0  0  1  0  0  0  0  0  0  0  0  0
  124.4006  106.6005  108.6776 C   0  0  2  0  0  0  0  0  0  0  0  0
  123.6495  106.1572  107.4278 C   0  0  1  0  0  0  0  0  0  0  0  0
  125.0797  106.8056  105.4549 C   0  0  0  0  0  0  0  0  0  0  0  0
  123.7935  107.0826  106.2253 C   0  0  1  0  0  0  0  0  0  0  0  0
  124.1938  104.8709  107.0734 O   0  0  0  0  0  0  0  0  0  0  0  0
  126.4213  105.7772  109.7174 O   0  0  0  0  0  0  0  0  0  0  0  0
  124.4867  108.0051  108.8046 O   0  0  0  0  0  0  0  0  0  0  0  0
  125.1729  107.7146  104.3631 O   0  0  0  0  0  0  0  0  0  0  0  0
  122.6919  106.8717  105.3415 O   0  0  0  0  0  0  0  0  0  0  0  0
  126.1543  104.2990  107.1488 H   0  0  0  0  0  0  0  0  0  0  0  0
  125.1787  103.8462  108.5721 H   0  0  0  0  0  0  0  0  0  0  0  0
  126.4231  106.5456  107.8102 H   0  0  0  0  0  0  0  0  0  0  0  0
  123.8762  106.2091  109.5968 H   0  0  0  0  0  0  0  0  0  0  0  0
  122.5988  106.0094  107.6497 H   0  0  0  0  0  0  0  0  0  0  0  0
  125.9601  106.9513  106.0894 H   0  0  0  0  0  0  0  0  0  0  0  0
  125.0844  105.7884  105.0511 H   0  0  0  0  0  0  0  0  0  0  0  0
  123.7628  108.1332  106.5392 H   0  0  0  0  0  0  0  0  0  0  0  0
  127.2238  105.2653  109.5281 H   0  0  0  0  0  0  0  0  0  0  0  0
  125.0434  108.1822  109.5798 H   0  0  0  0  0  0  0  0  0  0  0  0
  125.9998  107.5081  103.8996 H   0  0  0  0  0  0  0  0  0  0  0  0
  122.8209  107.4756  104.5948 H   0  0  0  0  0  0  0  0  0  0  0  0
  1  2  1  0  0  0  0
  1  7  1  0  0  0  0
  2  3  1  0  0  0  0
  2  8  1  0  0  0  0
  3  4  1  0  0  0  0
  3  9  1  0  0  0  0
  4  6  1  0  0  0  0
  4  7  1  0  0  0  0
  5  6  1  0  0  0  0
  5 10  1  0  0  0  0
  6 11  1  0  0  0  0
  1 12  1  0  0  0  0
  1 13  1  0  0  0  0
  2 14  1  0  0  0  0
  3 15  1  0  0  0  0
  4 16  1  0  0  0  0
  5 17  1  0  0  0  0
  5 18  1  0  0  0  0
  6 19  1  0  0  0  0
  8 20  1  0  0  0  0
  9 21  1  0  0  0  0
 10 22  1  0  0  0  0
 11 23  1  0  0  0  0
M  END
> <FRED Chemgauss4 score>
-6.266238

$$$$
C95636648	P150389150
  -OEChem-05182014473D

 20 21  0     1  0  0  0  0  0999 V2000
  125.7440  105.1736  107.4659 C   0  0  0  0  0  0  0  0  0  0  0  0
  124.5039  104.5309  107.5080 C   0  0  0  0  0  0  0  0  0  0  0  0
  125.9432  106.2924  106.6399 C   0  0  0  0  0  0  0  0  0  0  0  0
  123.4858  105.0204  106.7090 C   0  0  0  0  0  0  0  0  0  0  0  0
  123.6937  106.1214  105.8902 C   0  0  0  0  0  0  0  0  0  0  0  0
  124.9067  106.7804  105.8422 C   0  0  0  0  0  0  0  0  0  0  0  0
  121.6907  105.3502  105.3234 C   0  0  0  0  0  0  0  0  0  0  0  0
  122.0763  104.5773  106.5916 C   0  0  2  0  0  0  0  0  0  0  0  0
  121.2905  104.9758  107.7295 N   0  0  0  0  0  0  0  0  0  0  0  0
  122.5826  106.4835  105.1717 O   0  0  0  0  0  0  0  0  0  0  0  0
  125.0957  107.8621  105.0464 O   0  0  0  0  0  0  0  0  0  0  0  0
  126.5612  104.8097  108.0828 H   0  0  0  0  0  0  0  0  0  0  0  0
  124.3478  103.6761  108.1571 H   0  0  0  0  0  0  0  0  0  0  0  0
  126.9155  106.7784  106.6289 H   0  0  0  0  0  0  0  0  0  0  0  0
  121.8089  104.7184  104.4328 H   0  0  0  0  0  0  0  0  0  0  0  0
  120.6549  105.7083  105.3327 H   0  0  0  0  0  0  0  0  0  0  0  0
  121.9929  103.4949  106.4223 H   0  0  0  0  0  0  0  0  0  0  0  0
  121.6910  104.8744  108.6382 H   0  0  0  0  0  0  0  0  0  0  0  0
  120.3157  105.1435  107.5941 H   0  0  0  0  0  0  0  0  0  0  0  0
  126.0048  108.1954  105.1338 H   0  0  0  0  0  0  0  0  0  0  0  0
  1  2  1  0  0  0  0
  1  3  2  0  0  0  0
  2  4  2  0  0  0  0
  3  6  1  0  0  0  0
  4  5  1  0  0  0  0
  4  8  1  0  0  0  0
  5  6  2  0  0  0  0
  5 10  1  0  0  0  0
  6 11  1  0  0  0  0
  7  8  1  0  0  0  0
  7 10  1  0  0  0  0
  8  9  1  0  0  0  0
  1 12  1  0  0  0  0
  2 13  1  0  0  0  0
  3 14  1  0  0  0  0
  7 15  1  0  0  0  0
  7 16  1  0  0  0  0
  8 17  1  0  0  0  0
  9 18  1  0  0  0  0
  9 19  1  0  0  0  0
 11 20  1  0  0  0  0
M  END
> <FRED Chemgauss4 score>
-6.265167

$$$$
C88000630	P137646920
  -OEChem-05182014473D

 29 30  0     1  0  0  0  0  0999 V2000
  119.7568  104.6626  105.4137 C   0  0  0  0  0  0  0  0  0  0  0  0
  119.6445  105.6059  104.3970 C   0  0  0  0  0  0  0  0  0  0  0  0
  120.8739  104.6984  106.2486 C   0  0  0  0  0  0  0  0  0  0  0  0
  121.8246  105.6977  106.0046 C   0  0  0  0  0  0  0  0  0  0  0  0
  121.5867  106.5745  104.9552 C   0  0  0  0  0  0  0  0  0  0  0  0
  123.4827  107.0401  105.9731 C   0  0  0  0  0  0  0  0  0  0  0  0
  121.0103  103.6943  107.3434 C   0  0  0  0  0  0  0  0  0  0  0  0
  126.6590  105.2713  108.2456 C   0  0  0  0  0  0  0  0  0  0  0  0
  125.5448  107.1748  107.4342 C   0  0  0  0  0  0  0  0  0  0  0  0
  124.7410  107.7580  106.2491 C   0  0  1  0  0  0  0  0  0  0  0  0
  120.5345  106.5900  104.1205 N   0  0  0  0  0  0  0  0  0  0  0  0
  123.0101  106.0012  106.6288 N   0  0  0  0  0  0  0  0  0  0  0  0
  122.6565  107.4243  104.9511 N   0  0  0  0  0  0  0  0  0  0  0  0
  125.6063  107.8273  105.0733 N   0  0  0  0  0  0  0  0  0  0  0  0
  125.9215  105.8278  107.1670 O   0  0  0  0  0  0  0  0  0  0  0  0
  118.9820  103.9142  105.5477 H   0  0  0  0  0  0  0  0  0  0  0  0
  118.7791  105.5893  103.7395 H   0  0  0  0  0  0  0  0  0  0  0  0
  121.5442  102.8068  106.9828 H   0  0  0  0  0  0  0  0  0  0  0  0
  121.5612  104.1090  108.1974 H   0  0  0  0  0  0  0  0  0  0  0  0
  120.0283  103.3808  107.7206 H   0  0  0  0  0  0  0  0  0  0  0  0
  126.9312  104.2400  108.0081 H   0  0  0  0  0  0  0  0  0  0  0  0
  126.0534  105.2994  109.1550 H   0  0  0  0  0  0  0  0  0  0  0  0
  127.5669  105.8599  108.3965 H   0  0  0  0  0  0  0  0  0  0  0  0
  126.4637  107.7521  107.5843 H   0  0  0  0  0  0  0  0  0  0  0  0
  124.9640  107.1916  108.3629 H   0  0  0  0  0  0  0  0  0  0  0  0
  124.5522  108.8262  106.4884 H   0  0  0  0  0  0  0  0  0  0  0  0
  122.8069  108.1927  104.3109 H   0  0  0  0  0  0  0  0  0  0  0  0
  126.5831  107.9603  105.2183 H   0  0  0  0  0  0  0  0  0  0  0  0
  125.1761  107.9438  104.1821 H   0  0  0  0  0  0  0  0  0  0  0  0
  1  2  2  0  0  0  0
  1  3  1  0  0  0  0
  2 11  1  0  0  0  0
  3  4  2  0  0  0  0
  3  7  1  0  0  0  0
  4  5  1  0  0  0  0
  4 12  1  0  0  0  0
  5 11  2  0  0  0  0
  5 13  1  0  0  0  0
  6 10  1  0  0  0  0
  6 12  2  0  0  0  0
  6 13  1  0  0  0  0
  8 15  1  0  0  0  0
  9 10  1  0  0  0  0
  9 15  1  0  0  0  0
 10 14  1  0  0  0  0
  1 16  1  0  0  0  0
  2 17  1  0  0  0  0
  7 18  1  0  0  0  0
  7 19  1  0  0  0  0
  7 20  1  0  0  0  0
  8 21  1  0  0  0  0
  8 22  1  0  0  0  0
  8 23  1  0  0  0  0
  9 24  1  0  0  0  0
  9 25  1  0  0  0  0
 10 26  1  0  0  0  0
 13 27  1  0  0  0  0
 14 28  1  0  0  0  0
 14 29  1  0  0  0  0
M  END
> <FRED Chemgauss4 score>
-6.259449

$$$$
C48248090	P128160691
  -OEChem-05182014473D

 42 44  0     0  0  0  0  0  0999 V2000
  124.0675  106.0507  108.7794 C   0  0  0  0  0  0  0  0  0  0  0  0
  125.2555  107.3868  107.1545 C   0  0  0  0  0  0  0  0  0  0  0  0
  122.9212  106.8178  108.5722 C   0  0  0  0  0  0  0  0  0  0  0  0
  124.1091  108.1540  106.9472 C   0  0  0  0  0  0  0  0  0  0  0  0
  117.1111  104.1941  102.7914 C   0  0  0  0  0  0  0  0  0  0  0  0
  117.1044  104.2353  101.3949 C   0  0  0  0  0  0  0  0  0  0  0  0
  119.9936  106.3275  103.5929 C   0  0  0  0  0  0  0  0  0  0  0  0
  119.0282  105.6754  101.4378 C   0  0  0  0  0  0  0  0  0  0  0  0
  119.0347  105.6338  102.8424 C   0  0  0  0  0  0  0  0  0  0  0  0
  125.2347  106.3352  108.0706 C   0  0  0  0  0  0  0  0  0  0  0  0
  119.9732  106.2662  104.9788 C   0  0  0  0  0  0  0  0  0  0  0  0
  122.9420  107.8695  107.6560 C   0  0  0  0  0  0  0  0  0  0  0  0
  118.0635  104.8829  103.5374 C   0  0  0  0  0  0  0  0  0  0  0  0
  118.0641  104.9768  100.7170 C   0  0  0  0  0  0  0  0  0  0  0  0
  118.9845  105.5057  105.5694 C   0  0  0  0  0  0  0  0  0  0  0  0
  126.4305  105.5356  108.2855 C   0  0  0  0  0  0  0  0  0  0  0  0
  120.9712  106.9874  105.7536 C   0  0  0  0  0  0  0  0  0  0  0  0
  118.9034  105.3945  107.0572 C   0  0  0  0  0  0  0  0  0  0  0  0
  121.7093  108.6930  107.4328 C   0  0  0  0  0  0  0  0  0  0  0  0
  118.0412  104.8216  104.8823 N   0  0  0  0  0  0  0  0  0  0  0  0
  126.3577  104.4975  109.2098 N   0  0  0  0  0  0  0  0  0  0  0  0
  120.7487  107.9141  106.6274 N   0  3  0  0  0  0  0  0  0  0  0  0
  127.4893  105.7771  107.6798 O   0  0  0  0  0  0  0  0  0  0  0  0
  122.2731  106.6940  105.5402 O   0  0  0  0  0  0  0  0  0  0  0  0
  118.0602  105.0309   98.9979 Cl  0  0  0  0  0  0  0  0  0  0  0  0
  124.0408  105.2334  109.4955 H   0  0  0  0  0  0  0  0  0  0  0  0
  126.1593  107.6177  106.5966 H   0  0  0  0  0  0  0  0  0  0  0  0
  122.0162  106.5890  109.1285 H   0  0  0  0  0  0  0  0  0  0  0  0
  124.1341  108.9712  106.2310 H   0  0  0  0  0  0  0  0  0  0  0  0
  116.3482  103.6064  103.2990 H   0  0  0  0  0  0  0  0  0  0  0  0
  116.3415  103.6820  100.8531 H   0  0  0  0  0  0  0  0  0  0  0  0
  120.7583  106.9171  103.0902 H   0  0  0  0  0  0  0  0  0  0  0  0
  119.7816  106.2575  100.9099 H   0  0  0  0  0  0  0  0  0  0  0  0
  118.2666  106.1889  107.4627 H   0  0  0  0  0  0  0  0  0  0  0  0
  118.4891  104.4250  107.3596 H   0  0  0  0  0  0  0  0  0  0  0  0
  119.8971  105.4742  107.5147 H   0  0  0  0  0  0  0  0  0  0  0  0
  121.2344  108.9640  108.3816 H   0  0  0  0  0  0  0  0  0  0  0  0
  121.9416  109.6219  106.9015 H   0  0  0  0  0  0  0  0  0  0  0  0
  125.4858  104.3303  109.7002 H   0  0  0  0  0  0  0  0  0  0  0  0
  127.1579  103.9042  109.4039 H   0  0  0  0  0  0  0  0  0  0  0  0
  119.7676  108.1533  106.8066 H   0  0  0  0  0  0  0  0  0  0  0  0
  122.4195  106.0070  104.8676 H   0  0  0  0  0  0  0  0  0  0  0  0
  1  3  2  0  0  0  0
  1 10  1  0  0  0  0
  2  4  1  0  0  0  0
  2 10  2  0  0  0  0
  3 12  1  0  0  0  0
  4 12  2  0  0  0  0
  5  6  2  0  0  0  0
  5 13  1  0  0  0  0
  6 14  1  0  0  0  0
  7  9  1  0  0  0  0
  7 11  2  0  0  0  0
  8  9  1  0  0  0  0
  8 14  2  0  0  0  0
  9 13  2  0  0  0  0
 10 16  1  0  0  0  0
 11 15  1  0  0  0  0
 11 17  1  0  0  0  0
 12 19  1  0  0  0  0
 13 20  1  0  0  0  0
 14 25  1  0  0  0  0
 15 18  1  0  0  0  0
 15 20  2  0  0  0  0
 16 21  1  0  0  0  0
 16 23  2  0  0  0  0
 17 22  2  0  0  0  0
 17 24  1  0  0  0  0
 19 22  1  0  0  0  0
  1 26  1  0  0  0  0
  2 27  1  0  0  0  0
  3 28  1  0  0  0  0
  4 29  1  0  0  0  0
  5 30  1  0  0  0  0
  6 31  1  0  0  0  0
  7 32  1  0  0  0  0
  8 33  1  0  0  0  0
 18 34  1  0  0  0  0
 18 35  1  0  0  0  0
 18 36  1  0  0  0  0
 19 37  1  0  0  0  0
 19 38  1  0  0  0  0
 21 39  1  0  0  0  0
 21 40  1  0  0  0  0
 22 41  1  0  0  0  0
 24 42  1  0  0  0  0
M  CHG  1  22   1
M  END
> <FRED Chemgauss4 score>
-6.256841

$$$$
C85353307	P133560752
  -OEChem-05182014473D

 27 28  0     1  0  0  0  0  0999 V2000
  120.1193  106.0914  104.5959 C   0  0  0  0  0  0  0  0  0  0  0  0
  122.0299  106.6777  105.4416 C   0  0  0  0  0  0  0  0  0  0  0  0
  123.1606  107.7078  107.5469 C   0  0  0  0  0  0  0  0  0  0  0  0
  125.4037  107.3757  106.9982 C   0  0  0  0  0  0  0  0  0  0  0  0
  123.2198  106.7283  106.3744 C   0  0  2  0  0  0  0  0  0  0  0  0
  124.5748  107.0868  105.7538 C   0  0  1  0  0  0  0  0  0  0  0  0
  119.6322  103.9321  106.4043 C   0  0  0  0  0  0  0  0  0  0  0  0
  120.7723  104.8927  106.6956 C   0  0  0  0  0  0  0  0  0  0  0  0
  120.6271  107.0203  103.8177 N   0  0  0  0  0  0  0  0  0  0  0  0
  121.8426  107.3934  104.3557 N   0  0  0  0  0  0  0  0  0  0  0  0
  120.9694  105.8445  105.6309 N   0  0  0  0  0  0  0  0  0  0  0  0
  124.5221  108.2744  104.8967 N   0  0  0  0  0  0  0  0  0  0  0  0
  124.5124  107.9122  107.9864 O   0  0  0  0  0  0  0  0  0  0  0  0
  119.1753  105.5829  104.4613 H   0  0  0  0  0  0  0  0  0  0  0  0
  122.7084  108.6717  107.3026 H   0  0  0  0  0  0  0  0  0  0  0  0
  122.6130  107.2683  108.3858 H   0  0  0  0  0  0  0  0  0  0  0  0
  125.8906  106.4764  107.3940 H   0  0  0  0  0  0  0  0  0  0  0  0
  126.1818  108.1286  106.8164 H   0  0  0  0  0  0  0  0  0  0  0  0
  123.2981  105.6468  106.8039 H   0  0  0  0  0  0  0  0  0  0  0  0
  124.9646  106.2755  105.2295 H   0  0  0  0  0  0  0  0  0  0  0  0
  118.6888  104.4696  106.2608 H   0  0  0  0  0  0  0  0  0  0  0  0
  119.5034  103.2328  107.2362 H   0  0  0  0  0  0  0  0  0  0  0  0
  119.8267  103.3512  105.4967 H   0  0  0  0  0  0  0  0  0  0  0  0
  121.7114  104.3460  106.8376 H   0  0  0  0  0  0  0  0  0  0  0  0
  120.5795  105.4529  107.6176 H   0  0  0  0  0  0  0  0  0  0  0  0
  123.7393  108.3852  104.2836 H   0  0  0  0  0  0  0  0  0  0  0  0
  125.3501  108.8272  104.7973 H   0  0  0  0  0  0  0  0  0  0  0  0
  1  9  2  0  0  0  0
  1 11  1  0  0  0  0
  2  5  1  0  0  0  0
  2 10  2  0  0  0  0
  2 11  1  0  0  0  0
  3  5  1  0  0  0  0
  3 13  1  0  0  0  0
  4  6  1  0  0  0  0
  4 13  1  0  0  0  0
  5  6  1  0  0  0  0
  6 12  1  0  0  0  0
  7  8  1  0  0  0  0
  8 11  1  0  0  0  0
  9 10  1  0  0  0  0
  1 14  1  0  0  0  0
  3 15  1  0  0  0  0
  3 16  1  0  0  0  0
  4 17  1  0  0  0  0
  4 18  1  0  0  0  0
  5 19  1  0  0  0  0
  6 20  1  0  0  0  0
  7 21  1  0  0  0  0
  7 22  1  0  0  0  0
  7 23  1  0  0  0  0
  8 24  1  0  0  0  0
  8 25  1  0  0  0  0
 12 26  1  0  0  0  0
 12 27  1  0  0  0  0
M  END
> <FRED Chemgauss4 score>
-6.256288

$$$$
C39094985	P59234642
  -OEChem-05182014473D

 19 19  0     1  0  0  0  0  0999 V2000
  123.8027  106.4203  105.7729 C   0  0  0  0  0  0  0  0  0  0  0  0
  124.8260  105.7310  107.8357 C   0  0  0  0  0  0  0  0  0  0  0  0
  123.7926  105.3001  106.7906 C   0  0  1  0  0  0  0  0  0  0  0  0
  125.8303  106.5522  107.0202 C   0  0  2  0  0  0  0  0  0  0  0  0
  126.5942  107.5444  107.8868 C   0  0  0  0  0  0  0  0  0  0  0  0
  124.9631  107.1423  106.0348 N   0  0  0  0  0  0  0  0  0  0  0  0
  122.4641  105.1293  107.4128 N   0  3  0  0  0  0  0  0  0  0  0  0
  125.4991  107.9296  105.0468 O   0  5  0  0  0  0  0  0  0  0  0  0
  122.9636  106.5892  104.9011 O   0  0  0  0  0  0  0  0  0  0  0  0
  124.3590  106.3519  108.6118 H   0  0  0  0  0  0  0  0  0  0  0  0
  125.2977  104.8762  108.3311 H   0  0  0  0  0  0  0  0  0  0  0  0
  124.0653  104.3576  106.3049 H   0  0  0  0  0  0  0  0  0  0  0  0
  126.5270  105.8717  106.5118 H   0  0  0  0  0  0  0  0  0  0  0  0
  125.8973  108.2164  108.3882 H   0  0  0  0  0  0  0  0  0  0  0  0
  127.2719  108.1349  107.2698 H   0  0  0  0  0  0  0  0  0  0  0  0
  127.1755  107.0121  108.6402 H   0  0  0  0  0  0  0  0  0  0  0  0
  121.7097  105.3213  106.7414 H   0  0  0  0  0  0  0  0  0  0  0  0
  122.3406  105.7674  108.2095 H   0  0  0  0  0  0  0  0  0  0  0  0
  122.3346  104.1703  107.7598 H   0  0  0  0  0  0  0  0  0  0  0  0
  1  3  1  0  0  0  0
  1  6  1  0  0  0  0
  1  9  2  0  0  0  0
  2  3  1  0  0  0  0
  2  4  1  0  0  0  0
  3  7  1  0  0  0  0
  4  5  1  0  0  0  0
  4  6  1  0  0  0  0
  6  8  1  0  0  0  0
  2 10  1  0  0  0  0
  2 11  1  0  0  0  0
  3 12  1  0  0  0  0
  4 13  1  0  0  0  0
  5 14  1  0  0  0  0
  5 15  1  0  0  0  0
  5 16  1  0  0  0  0
  7 17  1  0  0  0  0
  7 18  1  0  0  0  0
  7 19  1  0  0  0  0
M  CHG  2   7   1   8  -1
M  END
> <FRED Chemgauss4 score>
-6.255602

$$$$
C70947907	P128809630
  -OEChem-05182014473D

 25 25  0     1  0  0  0  0  0999 V2000
  125.2600  106.2217  106.8277 C   0  0  0  0  0  0  0  0  0  0  0  0
  124.6017  105.1121  107.2029 C   0  0  0  0  0  0  0  0  0  0  0  0
  124.5479  107.2373  106.0191 C   0  0  0  0  0  0  0  0  0  0  0  0
  122.6665  105.7319  106.1795 C   0  0  0  0  0  0  0  0  0  0  0  0
  125.2836  104.0557  108.0231 C   0  0  0  0  0  0  0  0  0  0  0  0
  119.2953  103.8993  105.8682 C   0  0  0  0  0  0  0  0  0  0  0  0
  120.7417  104.1599  106.2648 C   0  0  0  0  0  0  0  0  0  0  0  0
  121.2328  105.5201  105.7876 C   0  0  2  0  0  0  0  0  0  0  0  0
  123.2883  104.8407  106.8868 N   0  0  0  0  0  0  0  0  0  0  0  0
  123.2381  106.9060  105.7380 N   0  0  0  0  0  0  0  0  0  0  0  0
  121.2301  105.6390  104.3570 N   0  0  0  0  0  0  0  0  0  0  0  0
  125.1076  108.2652  105.6532 O   0  0  0  0  0  0  0  0  0  0  0  0
  126.2941  106.4106  107.0900 H   0  0  0  0  0  0  0  0  0  0  0  0
  125.1441  104.2718  109.0794 H   0  0  0  0  0  0  0  0  0  0  0  0
  126.3456  104.0449  107.7892 H   0  0  0  0  0  0  0  0  0  0  0  0
  124.8558  103.0837  107.7889 H   0  0  0  0  0  0  0  0  0  0  0  0
  118.6325  104.6688  106.2766 H   0  0  0  0  0  0  0  0  0  0  0  0
  119.1956  103.9104  104.7780 H   0  0  0  0  0  0  0  0  0  0  0  0
  118.9533  102.9234  106.2270 H   0  0  0  0  0  0  0  0  0  0  0  0
  121.3709  103.3693  105.8372 H   0  0  0  0  0  0  0  0  0  0  0  0
  120.8341  104.0773  107.3552 H   0  0  0  0  0  0  0  0  0  0  0  0
  120.6414  106.3392  106.2031 H   0  0  0  0  0  0  0  0  0  0  0  0
  122.6763  107.5488  105.1874 H   0  0  0  0  0  0  0  0  0  0  0  0
  121.8875  106.2615  103.9120 H   0  0  0  0  0  0  0  0  0  0  0  0
  120.4532  105.2664  103.8321 H   0  0  0  0  0  0  0  0  0  0  0  0
  1  2  2  0  0  0  0
  1  3  1  0  0  0  0
  2  5  1  0  0  0  0
  2  9  1  0  0  0  0
  3 10  1  0  0  0  0
  3 12  2  0  0  0  0
  4  8  1  0  0  0  0
  4  9  2  0  0  0  0
  4 10  1  0  0  0  0
  6  7  1  0  0  0  0
  7  8  1  0  0  0  0
  8 11  1  0  0  0  0
  1 13  1  0  0  0  0
  5 14  1  0  0  0  0
  5 15  1  0  0  0  0
  5 16  1  0  0  0  0
  6 17  1  0  0  0  0
  6 18  1  0  0  0  0
  6 19  1  0  0  0  0
  7 20  1  0  0  0  0
  7 21  1  0  0  0  0
  8 22  1  0  0  0  0
 10 23  1  0  0  0  0
 11 24  1  0  0  0  0
 11 25  1  0  0  0  0
M  END
> <FRED Chemgauss4 score>
-6.253122

$$$$
C63154913	P96986964
  -OEChem-05182014473D

 29 29  0     1  0  0  0  0  0999 V2000
  118.2729  104.8709  103.3214 C   0  0  0  0  0  0  0  0  0  0  0  0
  118.6523  104.2015  104.6184 C   0  0  0  0  0  0  0  0  0  0  0  0
  119.6240  105.2788  102.7729 C   0  0  0  0  0  0  0  0  0  0  0  0
  119.7985  105.0804  105.0886 C   0  0  1  0  0  0  0  0  0  0  0  0
  120.7734  104.3653  106.0038 C   0  0  0  0  0  0  0  0  0  0  0  0
  125.0067  105.8047  108.2586 C   0  0  0  0  0  0  0  0  0  0  0  0
  124.4274  105.0029  107.1054 C   0  0  0  0  0  0  0  0  0  0  0  0
  126.3324  106.2847  107.9740 N   0  0  0  0  0  0  0  0  0  0  0  0
  123.0610  104.5305  107.3927 N   0  0  0  0  0  0  0  0  0  0  0  0
  122.1925  106.5640  106.0491 O   0  0  0  0  0  0  0  0  0  0  0  0
  120.9867  105.8434  108.1427 O   0  0  0  0  0  0  0  0  0  0  0  0
  120.4778  105.5219  103.9010 O   0  0  0  0  0  0  0  0  0  0  0  0
  121.7334  105.5088  106.9393 S   0  0  0  0  0  0  0  0  0  0  0  0
  117.7125  104.2258  102.6399 H   0  0  0  0  0  0  0  0  0  0  0  0
  117.6674  105.7619  103.5257 H   0  0  0  0  0  0  0  0  0  0  0  0
  117.8309  104.1525  105.3386 H   0  0  0  0  0  0  0  0  0  0  0  0
  118.9958  103.1794  104.4178 H   0  0  0  0  0  0  0  0  0  0  0  0
  120.0725  104.4713  102.1845 H   0  0  0  0  0  0  0  0  0  0  0  0
  119.5708  106.1763  102.1504 H   0  0  0  0  0  0  0  0  0  0  0  0
  119.4094  105.9748  105.5900 H   0  0  0  0  0  0  0  0  0  0  0  0
  121.4692  103.7531  105.4260 H   0  0  0  0  0  0  0  0  0  0  0  0
  120.2421  103.7289  106.7144 H   0  0  0  0  0  0  0  0  0  0  0  0
  125.0653  105.2049  109.1725 H   0  0  0  0  0  0  0  0  0  0  0  0
  124.3833  106.6821  108.4571 H   0  0  0  0  0  0  0  0  0  0  0  0
  124.3706  105.6216  106.2045 H   0  0  0  0  0  0  0  0  0  0  0  0
  125.0400  104.1230  106.8840 H   0  0  0  0  0  0  0  0  0  0  0  0
  126.9762  105.6862  107.4817 H   0  0  0  0  0  0  0  0  0  0  0  0
  126.6645  107.1145  108.4391 H   0  0  0  0  0  0  0  0  0  0  0  0
  122.9753  104.0152  108.2784 H   0  0  0  0  0  0  0  0  0  0  0  0
  1  2  1  0  0  0  0
  1  3  1  0  0  0  0
  2  4  1  0  0  0  0
  3 12  1  0  0  0  0
  4  5  1  0  0  0  0
  4 12  1  0  0  0  0
  5 13  1  0  0  0  0
  6  7  1  0  0  0  0
  6  8  1  0  0  0  0
  7  9  1  0  0  0  0
  9 13  1  0  0  0  0
 10 13  2  0  0  0  0
 11 13  2  0  0  0  0
  1 14  1  0  0  0  0
  1 15  1  0  0  0  0
  2 16  1  0  0  0  0
  2 17  1  0  0  0  0
  3 18  1  0  0  0  0
  3 19  1  0  0  0  0
  4 20  1  0  0  0  0
  5 21  1  0  0  0  0
  5 22  1  0  0  0  0
  6 23  1  0  0  0  0
  6 24  1  0  0  0  0
  7 25  1  0  0  0  0
  7 26  1  0  0  0  0
  8 27  1  0  0  0  0
  8 28  1  0  0  0  0
  9 29  1  0  0  0  0
M  END
> <FRED Chemgauss4 score>
-6.248478

$$$$
C36872179	P90374924
  -OEChem-05182014473D

 26 27  0     1  0  0  0  0  0999 V2000
  119.0664  105.2703  103.5460 C   0  0  0  0  0  0  0  0  0  0  0  0
  120.9784  104.8760  102.1413 C   0  0  0  0  0  0  0  0  0  0  0  0
  118.2708  104.8841  102.4794 C   0  0  0  0  0  0  0  0  0  0  0  0
  120.0972  104.5072  101.1377 C   0  0  0  0  0  0  0  0  0  0  0  0
  121.0330  105.4943  105.7751 C   0  0  0  0  0  0  0  0  0  0  0  0
  120.4450  105.2634  103.3656 C   0  0  0  0  0  0  0  0  0  0  0  0
  121.3143  105.6550  104.4388 C   0  0  0  0  0  0  0  0  0  0  0  0
  123.0026  106.4358  105.4736 C   0  0  0  0  0  0  0  0  0  0  0  0
  124.2732  107.7744  107.2015 C   0  0  0  0  0  0  0  0  0  0  0  0
  124.2943  107.0440  105.8430 C   0  0  2  0  0  0  0  0  0  0  0  0
  118.7524  104.5014  101.2756 N   0  0  0  0  0  0  0  0  0  0  0  0
  122.5420  106.2414  104.2579 N   0  0  0  0  0  0  0  0  0  0  0  0
  122.1238  105.9987  106.4254 N   0  0  0  0  0  0  0  0  0  0  0  0
  124.8001  107.9557  104.8217 N   0  0  0  0  0  0  0  0  0  0  0  0
  118.6129  105.5662  104.4866 H   0  0  0  0  0  0  0  0  0  0  0  0
  122.0487  104.8578  101.9624 H   0  0  0  0  0  0  0  0  0  0  0  0
  117.1895  104.8719  102.5687 H   0  0  0  0  0  0  0  0  0  0  0  0
  120.4627  104.1965  100.1644 H   0  0  0  0  0  0  0  0  0  0  0  0
  120.1888  105.0821  106.3104 H   0  0  0  0  0  0  0  0  0  0  0  0
  123.5074  108.5578  107.2011 H   0  0  0  0  0  0  0  0  0  0  0  0
  124.0576  107.0895  108.0293 H   0  0  0  0  0  0  0  0  0  0  0  0
  125.2387  108.2458  107.4171 H   0  0  0  0  0  0  0  0  0  0  0  0
  125.0890  106.2729  105.9234 H   0  0  0  0  0  0  0  0  0  0  0  0
  122.2547  106.0398  107.4276 H   0  0  0  0  0  0  0  0  0  0  0  0
  124.6510  107.7184  103.8645 H   0  0  0  0  0  0  0  0  0  0  0  0
  125.4437  108.6644  105.1017 H   0  0  0  0  0  0  0  0  0  0  0  0
  1  3  2  0  0  0  0
  1  6  1  0  0  0  0
  2  4  1  0  0  0  0
  2  6  2  0  0  0  0
  3 11  1  0  0  0  0
  4 11  2  0  0  0  0
  5  7  2  0  0  0  0
  5 13  1  0  0  0  0
  6  7  1  0  0  0  0
  7 12  1  0  0  0  0
  8 10  1  0  0  0  0
  8 12  2  0  0  0  0
  8 13  1  0  0  0  0
  9 10  1  0  0  0  0
 10 14  1  0  0  0  0
  1 15  1  0  0  0  0
  2 16  1  0  0  0  0
  3 17  1  0  0  0  0
  4 18  1  0  0  0  0
  5 19  1  0  0  0  0
  9 20  1  0  0  0  0
  9 21  1  0  0  0  0
  9 22  1  0  0  0  0
 10 23  1  0  0  0  0
 13 24  1  0  0  0  0
 14 25  1  0  0  0  0
 14 26  1  0  0  0  0
M  END
> <FRED Chemgauss4 score>
-6.243406

$$$$
C26899001	P39653911
  -OEChem-05182014473D

 16 16  0     0  0  0  0  0  0999 V2000
  124.9020  107.3185  106.3520 C   0  0  0  0  0  0  0  0  0  0  0  0
  124.6235  106.1815  108.3734 C   0  0  0  0  0  0  0  0  0  0  0  0
  126.4046  105.7525  107.0278 C   0  0  0  0  0  0  0  0  0  0  0  0
  124.1440  107.1261  107.4890 C   0  0  0  0  0  0  0  0  0  0  0  0
  122.9330  107.8649  107.7378 C   0  0  0  0  0  0  0  0  0  0  0  0
  126.0418  106.6466  106.0884 N   0  0  0  0  0  0  0  0  0  0  0  0
  125.7545  105.4735  108.1737 N   0  0  0  0  0  0  0  0  0  0  0  0
  121.7486  107.3796  107.3000 N   0  0  0  0  0  0  0  0  0  0  0  0
  122.9891  109.0386  108.4049 N   0  3  0  0  0  0  0  0  0  0  0  0
  121.5728  106.1717  106.5741 O   0  5  0  0  0  0  0  0  0  0  0  0
  124.6115  108.0392  105.5939 H   0  0  0  0  0  0  0  0  0  0  0  0
  124.1006  105.9549  109.2973 H   0  0  0  0  0  0  0  0  0  0  0  0
  127.3161  105.1978  106.8416 H   0  0  0  0  0  0  0  0  0  0  0  0
  120.8898  107.8912  107.4695 H   0  0  0  0  0  0  0  0  0  0  0  0
  123.8677  109.4155  108.7433 H   0  0  0  0  0  0  0  0  0  0  0  0
  122.1416  109.5637  108.5893 H   0  0  0  0  0  0  0  0  0  0  0  0
  1  4  1  0  0  0  0
  1  6  2  0  0  0  0
  2  4  2  0  0  0  0
  2  7  1  0  0  0  0
  3  6  1  0  0  0  0
  3  7  2  0  0  0  0
  4  5  1  0  0  0  0
  5  8  1  0  0  0  0
  5  9  2  0  0  0  0
  8 10  1  0  0  0  0
  1 11  1  0  0  0  0
  2 12  1  0  0  0  0
  3 13  1  0  0  0  0
  8 14  1  0  0  0  0
  9 15  1  0  0  0  0
  9 16  1  0  0  0  0
M  CHG  2   9   1  10  -1
M  END
> <FRED Chemgauss4 score>
-6.239982

$$$$
C63063083	P96833322
  -OEChem-05182014473D

 40 41  0     1  0  0  0  0  0999 V2000
  117.2951  105.4194  103.6806 C   0  0  0  0  0  0  0  0  0  0  0  0
  116.1849  105.1218  103.3314 C   0  0  0  0  0  0  0  0  0  0  0  0
  119.7113  105.4261  103.3052 C   0  0  0  0  0  0  0  0  0  0  0  0
  121.0009  105.7693  103.7111 C   0  0  0  0  0  0  0  0  0  0  0  0
  118.8102  106.4596  105.2944 C   0  0  0  0  0  0  0  0  0  0  0  0
  118.6159  105.7713  104.0968 C   0  0  0  0  0  0  0  0  0  0  0  0
  120.0998  106.8027  105.7003 C   0  0  0  0  0  0  0  0  0  0  0  0
  121.1952  106.4576  104.9087 C   0  0  0  0  0  0  0  0  0  0  0  0
  125.0609  105.1039  108.6222 C   0  0  0  0  0  0  0  0  0  0  0  0
  126.2376  105.9759  108.2042 C   0  0  0  0  0  0  0  0  0  0  0  0
  124.4540  104.4135  107.4056 C   0  0  0  0  0  0  0  0  0  0  0  0
  125.8412  106.9149  107.0745 C   0  0  0  0  0  0  0  0  0  0  0  0
  124.1561  105.3964  106.2700 C   0  0  1  0  0  0  0  0  0  0  0  0
  120.2893  107.5401  106.9848 C   0  0  0  0  0  0  0  0  0  0  0  0
  114.8340  104.7609  102.9037 C   0  0  0  0  0  0  0  0  0  0  0  0
  122.9248  106.2618  106.5291 C   0  0  0  0  0  0  0  0  0  0  0  0
  114.2471  103.8035  103.7988 N   0  0  0  0  0  0  0  0  0  0  0  0
  125.3037  106.1960  105.9659 O   0  0  0  0  0  0  0  0  0  0  0  0
  122.4709  106.7866  105.2937 O   0  0  0  0  0  0  0  0  0  0  0  0
  119.5754  104.8892  102.3696 H   0  0  0  0  0  0  0  0  0  0  0  0
  121.8500  105.4975  103.0896 H   0  0  0  0  0  0  0  0  0  0  0  0
  117.9596  106.7313  105.9167 H   0  0  0  0  0  0  0  0  0  0  0  0
  125.4028  104.3474  109.3381 H   0  0  0  0  0  0  0  0  0  0  0  0
  124.3030  105.7102  109.1289 H   0  0  0  0  0  0  0  0  0  0  0  0
  126.5570  106.5708  109.0698 H   0  0  0  0  0  0  0  0  0  0  0  0
  127.0862  105.3519  107.9019 H   0  0  0  0  0  0  0  0  0  0  0  0
  125.1268  103.6130  107.0550 H   0  0  0  0  0  0  0  0  0  0  0  0
  123.5173  103.9206  107.7206 H   0  0  0  0  0  0  0  0  0  0  0  0
  125.0704  107.6131  107.4239 H   0  0  0  0  0  0  0  0  0  0  0  0
  126.6965  107.5173  106.7377 H   0  0  0  0  0  0  0  0  0  0  0  0
  123.9339  104.7843  105.3329 H   0  0  0  0  0  0  0  0  0  0  0  0
  120.4176  106.8337  107.8133 H   0  0  0  0  0  0  0  0  0  0  0  0
  121.1707  108.1919  106.9418 H   0  0  0  0  0  0  0  0  0  0  0  0
  119.4275  108.1829  107.2040 H   0  0  0  0  0  0  0  0  0  0  0  0
  114.8468  104.3145  101.9051 H   0  0  0  0  0  0  0  0  0  0  0  0
  114.1785  105.6362  102.8828 H   0  0  0  0  0  0  0  0  0  0  0  0
  123.1796  107.0864  107.1966 H   0  0  0  0  0  0  0  0  0  0  0  0
  122.1313  105.6613  106.9765 H   0  0  0  0  0  0  0  0  0  0  0  0
  114.8242  103.0737  104.1882 H   0  0  0  0  0  0  0  0  0  0  0  0
  113.2426  103.7443  103.8681 H   0  0  0  0  0  0  0  0  0  0  0  0
  1  2  3  0  0  0  0
  1  6  1  0  0  0  0
  2 15  1  0  0  0  0
  3  4  2  0  0  0  0
  3  6  1  0  0  0  0
  4  8  1  0  0  0  0
  5  6  2  0  0  0  0
  5  7  1  0  0  0  0
  7  8  2  0  0  0  0
  7 14  1  0  0  0  0
  8 19  1  0  0  0  0
  9 10  1  0  0  0  0
  9 11  1  0  0  0  0
 10 12  1  0  0  0  0
 11 13  1  0  0  0  0
 12 18  1  0  0  0  0
 13 16  1  0  0  0  0
 13 18  1  0  0  0  0
 15 17  1  0  0  0  0
 16 19  1  0  0  0  0
  3 20  1  0  0  0  0
  4 21  1  0  0  0  0
  5 22  1  0  0  0  0
  9 23  1  0  0  0  0
  9 24  1  0  0  0  0
 10 25  1  0  0  0  0
 10 26  1  0  0  0  0
 11 27  1  0  0  0  0
 11 28  1  0  0  0  0
 12 29  1  0  0  0  0
 12 30  1  0  0  0  0
 13 31  1  0  0  0  0
 14 32  1  0  0  0  0
 14 33  1  0  0  0  0
 14 34  1  0  0  0  0
 15 35  1  0  0  0  0
 15 36  1  0  0  0  0
 16 37  1  0  0  0  0
 16 38  1  0  0  0  0
 17 39  1  0  0  0  0
 17 40  1  0  0  0  0
M  END
> <FRED Chemgauss4 score>
-6.238832

$$$$
C90017133	P140710816
  -OEChem-05182014473D

 33 33  0     1  0  0  0  0  0999 V2000
  125.5742  105.6917  106.7839 C   0  0  0  0  0  0  0  0  0  0  0  0
  123.7025  107.1430  105.9659 C   0  0  0  0  0  0  0  0  0  0  0  0
  118.3824  105.2195  104.3889 C   0  0  0  0  0  0  0  0  0  0  0  0
  124.5682  104.6875  107.2891 C   0  0  0  0  0  0  0  0  0  0  0  0
  123.2640  105.3565  107.6885 C   0  0  0  0  0  0  0  0  0  0  0  0
  122.6937  106.1831  106.5483 C   0  0  2  0  0  0  0  0  0  0  0  0
  118.7852  103.5152  106.9542 C   0  0  0  0  0  0  0  0  0  0  0  0
  119.9041  103.9768  106.0312 C   0  0  0  0  0  0  0  0  0  0  0  0
  119.5798  105.2978  105.3243 C   0  0  1  0  0  0  0  0  0  0  0  0
  125.0401  106.8118  106.1566 N   0  0  0  0  0  0  0  0  0  0  0  0
  118.4416  104.2873  103.3888 N   0  0  0  0  0  0  0  0  0  0  0  0
  122.2590  105.3188  105.4300 N   0  0  0  0  0  0  0  0  0  0  0  0
  126.7848  105.4898  106.8756 O   0  0  0  0  0  0  0  0  0  0  0  0
  123.3501  108.1318  105.3215 O   0  0  0  0  0  0  0  0  0  0  0  0
  121.0376  105.1149  103.1582 O   0  0  0  0  0  0  0  0  0  0  0  0
  120.9822  107.3004  104.4141 O   0  0  0  0  0  0  0  0  0  0  0  0
  117.0487  106.2150  104.5748 S   0  0  0  0  0  0  0  0  0  0  0  0
  121.0006  105.8506  104.4065 S   0  0  0  0  0  0  0  0  0  0  0  0
  124.3759  103.9559  106.4955 H   0  0  0  0  0  0  0  0  0  0  0  0
  125.0116  104.1570  108.1404 H   0  0  0  0  0  0  0  0  0  0  0  0
  122.5357  104.5844  108.0024 H   0  0  0  0  0  0  0  0  0  0  0  0
  123.4292  105.9915  108.5775 H   0  0  0  0  0  0  0  0  0  0  0  0
  121.8234  106.7763  106.8820 H   0  0  0  0  0  0  0  0  0  0  0  0
  117.8351  103.4271  106.4186 H   0  0  0  0  0  0  0  0  0  0  0  0
  118.6453  104.2369  107.7655 H   0  0  0  0  0  0  0  0  0  0  0  0
  119.0212  102.5447  107.4022 H   0  0  0  0  0  0  0  0  0  0  0  0
  120.8355  104.0522  106.6040 H   0  0  0  0  0  0  0  0  0  0  0  0
  120.0735  103.1966  105.2784 H   0  0  0  0  0  0  0  0  0  0  0  0
  119.4180  106.0765  106.0801 H   0  0  0  0  0  0  0  0  0  0  0  0
  125.7175  107.4765  105.7887 H   0  0  0  0  0  0  0  0  0  0  0  0
  119.2337  103.6657  103.2659 H   0  0  0  0  0  0  0  0  0  0  0  0
  117.6749  104.1771  102.7334 H   0  0  0  0  0  0  0  0  0  0  0  0
  123.0230  104.7889  104.9909 H   0  0  0  0  0  0  0  0  0  0  0  0
  1  4  1  0  0  0  0
  1 10  1  0  0  0  0
  1 13  2  0  0  0  0
  2  6  1  0  0  0  0
  2 10  1  0  0  0  0
  2 14  2  0  0  0  0
  3  9  1  0  0  0  0
  3 11  1  0  0  0  0
  3 17  2  0  0  0  0
  4  5  1  0  0  0  0
  5  6  1  0  0  0  0
  6 12  1  0  0  0  0
  7  8  1  0  0  0  0
  8  9  1  0  0  0  0
  9 18  1  0  0  0  0
 12 18  1  0  0  0  0
 15 18  2  0  0  0  0
 16 18  2  0  0  0  0
  4 19  1  0  0  0  0
  4 20  1  0  0  0  0
  5 21  1  0  0  0  0
  5 22  1  0  0  0  0
  6 23  1  0  0  0  0
  7 24  1  0  0  0  0
  7 25  1  0  0  0  0
  7 26  1  0  0  0  0
  8 27  1  0  0  0  0
  8 28  1  0  0  0  0
  9 29  1  0  0  0  0
 10 30  1  0  0  0  0
 11 31  1  0  0  0  0
 11 32  1  0  0  0  0
 12 33  1  0  0  0  0
M  END
> <FRED Chemgauss4 score>
-6.238358

$$$$
C80744995	P126055637
  -OEChem-05182014473D

 40 41  0     1  0  0  0  0  0999 V2000
  125.5746  105.1168  108.8631 C   0  0  0  0  0  0  0  0  0  0  0  0
  122.6336  107.4212  107.8312 C   0  0  0  0  0  0  0  0  0  0  0  0
  123.7677  105.5925  106.5311 C   0  0  0  0  0  0  0  0  0  0  0  0
  122.2005  108.0384  106.4982 C   0  0  0  0  0  0  0  0  0  0  0  0
  123.2935  106.2750  105.2446 C   0  0  0  0  0  0  0  0  0  0  0  0
  119.6288  104.5732  101.8708 C   0  0  0  0  0  0  0  0  0  0  0  0
  119.3191  104.7410  104.2463 C   0  0  0  0  0  0  0  0  0  0  0  0
  121.0477  105.1009  102.0417 C   0  0  0  0  0  0  0  0  0  0  0  0
  123.9208  106.6034  107.6734 C   0  0  0  0  0  0  0  0  0  0  0  0
  120.7529  105.2621  104.3760 C   0  0  2  0  0  0  0  0  0  0  0  0
  124.2886  105.9034  108.9790 C   0  0  0  0  0  0  0  0  0  0  0  0
  120.8795  106.2345  105.5405 C   0  0  0  0  0  0  0  0  0  0  0  0
  119.2034  103.8642  103.0785 N   0  0  0  0  0  0  0  0  0  0  0  0
  122.0696  107.0705  105.4020 N   0  0  0  0  0  0  0  0  0  0  0  0
  125.5958  104.0326  109.7140 N   0  0  0  0  0  0  0  0  0  0  0  0
  126.4943  105.4057  108.1031 O   0  0  0  0  0  0  0  0  0  0  0  0
  121.1252  105.9593  103.1810 O   0  0  0  0  0  0  0  0  0  0  0  0
  122.7853  108.2186  108.5679 H   0  0  0  0  0  0  0  0  0  0  0  0
  121.8275  106.7824  108.2144 H   0  0  0  0  0  0  0  0  0  0  0  0
  123.0495  104.8121  106.8139 H   0  0  0  0  0  0  0  0  0  0  0  0
  124.7247  105.0916  106.3444 H   0  0  0  0  0  0  0  0  0  0  0  0
  121.2275  108.5462  106.6610 H   0  0  0  0  0  0  0  0  0  0  0  0
  122.9127  108.8457  106.2213 H   0  0  0  0  0  0  0  0  0  0  0  0
  124.1165  106.9033  104.8400 H   0  0  0  0  0  0  0  0  0  0  0  0
  123.1249  105.4842  104.4848 H   0  0  0  0  0  0  0  0  0  0  0  0
  118.9395  105.4031  101.6735 H   0  0  0  0  0  0  0  0  0  0  0  0
  119.5858  103.8926  101.0143 H   0  0  0  0  0  0  0  0  0  0  0  0
  119.0403  104.1799  105.1448 H   0  0  0  0  0  0  0  0  0  0  0  0
  118.6128  105.5744  104.1426 H   0  0  0  0  0  0  0  0  0  0  0  0
  121.7731  104.2852  102.1489 H   0  0  0  0  0  0  0  0  0  0  0  0
  121.3359  105.6869  101.1633 H   0  0  0  0  0  0  0  0  0  0  0  0
  124.7398  107.2927  107.4183 H   0  0  0  0  0  0  0  0  0  0  0  0
  121.4559  104.4389  104.5443 H   0  0  0  0  0  0  0  0  0  0  0  0
  123.4816  105.2223  109.2615 H   0  0  0  0  0  0  0  0  0  0  0  0
  124.4016  106.6510  109.7684 H   0  0  0  0  0  0  0  0  0  0  0  0
  120.9615  105.6911  106.4866 H   0  0  0  0  0  0  0  0  0  0  0  0
  120.0105  106.8971  105.5889 H   0  0  0  0  0  0  0  0  0  0  0  0
  118.2345  103.5650  102.9733 H   0  0  0  0  0  0  0  0  0  0  0  0
  124.7986  103.8537  110.3163 H   0  0  0  0  0  0  0  0  0  0  0  0
  126.3968  103.4108  109.7468 H   0  0  0  0  0  0  0  0  0  0  0  0
  1 11  1  0  0  0  0
  1 15  1  0  0  0  0
  1 16  2  0  0  0  0
  2  4  1  0  0  0  0
  2  9  1  0  0  0  0
  3  5  1  0  0  0  0
  3  9  1  0  0  0  0
  4 14  1  0  0  0  0
  5 14  1  0  0  0  0
  6  8  1  0  0  0  0
  6 13  1  0  0  0  0
  7 10  1  0  0  0  0
  7 13  1  0  0  0  0
  8 17  1  0  0  0  0
  9 11  1  0  0  0  0
 10 12  1  0  0  0  0
 10 17  1  0  0  0  0
 12 14  1  0  0  0  0
  2 18  1  0  0  0  0
  2 19  1  0  0  0  0
  3 20  1  0  0  0  0
  3 21  1  0  0  0  0
  4 22  1  0  0  0  0
  4 23  1  0  0  0  0
  5 24  1  0  0  0  0
  5 25  1  0  0  0  0
  6 26  1  0  0  0  0
  6 27  1  0  0  0  0
  7 28  1  0  0  0  0
  7 29  1  0  0  0  0
  8 30  1  0  0  0  0
  8 31  1  0  0  0  0
  9 32  1  0  0  0  0
 10 33  1  0  0  0  0
 11 34  1  0  0  0  0
 11 35  1  0  0  0  0
 12 36  1  0  0  0  0
 12 37  1  0  0  0  0
 13 38  1  0  0  0  0
 15 39  1  0  0  0  0
 15 40  1  0  0  0  0
M  END
> <FRED Chemgauss4 score>
-6.237693

$$$$
C02558640	P06221219
  -OEChem-05182014473D

 23 23  0     1  0  0  0  0  0999 V2000
  124.2733  105.5226  106.5885 C   0  0  0  0  0  0  0  0  0  0  0  0
  125.3992  106.4636  107.0061 C   0  0  1  0  0  0  0  0  0  0  0  0
  125.1435  107.8924  106.5217 C   0  0  2  0  0  0  0  0  0  0  0  0
  123.7116  108.3500  106.8297 C   0  0  1  0  0  0  0  0  0  0  0  0
  122.6692  107.2943  106.4454 C   0  0  2  0  0  0  0  0  0  0  0  0
  121.2945  106.6464  104.6562 C   0  0  0  0  0  0  0  0  0  0  0  0
  122.9992  106.0185  107.0008 O   0  0  0  0  0  0  0  0  0  0  0  0
  125.4951  106.4373  108.4282 O   0  0  0  0  0  0  0  0  0  0  0  0
  125.3678  107.9323  105.1143 O   0  0  0  0  0  0  0  0  0  0  0  0
  123.5814  108.6093  108.2260 O   0  0  0  0  0  0  0  0  0  0  0  0
  122.5254  107.2458  105.0296 O   0  0  0  0  0  0  0  0  0  0  0  0
  124.2608  105.4194  105.4960 H   0  0  0  0  0  0  0  0  0  0  0  0
  124.4256  104.5087  106.9860 H   0  0  0  0  0  0  0  0  0  0  0  0
  126.3553  106.0993  106.6047 H   0  0  0  0  0  0  0  0  0  0  0  0
  125.8779  108.5819  106.9690 H   0  0  0  0  0  0  0  0  0  0  0  0
  123.4986  109.2975  106.3116 H   0  0  0  0  0  0  0  0  0  0  0  0
  121.6629  107.6056  106.8516 H   0  0  0  0  0  0  0  0  0  0  0  0
  121.2149  106.6243  103.5666 H   0  0  0  0  0  0  0  0  0  0  0  0
  120.4659  107.2183  105.0813 H   0  0  0  0  0  0  0  0  0  0  0  0
  121.2652  105.6247  105.0422 H   0  0  0  0  0  0  0  0  0  0  0  0
  125.6887  105.5196  108.6771 H   0  0  0  0  0  0  0  0  0  0  0  0
  126.2902  107.6694  104.9769 H   0  0  0  0  0  0  0  0  0  0  0  0
  122.6657  108.8932  108.3678 H   0  0  0  0  0  0  0  0  0  0  0  0
  1  2  1  0  0  0  0
  1  7  1  0  0  0  0
  2  3  1  0  0  0  0
  2  8  1  0  0  0  0
  3  4  1  0  0  0  0
  3  9  1  0  0  0  0
  4  5  1  0  0  0  0
  4 10  1  0  0  0  0
  5  7  1  0  0  0  0
  5 11  1  0  0  0  0
  6 11  1  0  0  0  0
  1 12  1  0  0  0  0
  1 13  1  0  0  0  0
  2 14  1  0  0  0  0
  3 15  1  0  0  0  0
  4 16  1  0  0  0  0
  5 17  1  0  0  0  0
  6 18  1  0  0  0  0
  6 19  1  0  0  0  0
  6 20  1  0  0  0  0
  8 21  1  0  0  0  0
  9 22  1  0  0  0  0
 10 23  1  0  0  0  0
M  END
> <FRED Chemgauss4 score>
-6.234979

$$$$
C79162526	P123601573
  -OEChem-05182014473D

 20 20  0     1  0  0  0  0  0999 V2000
  124.4115  104.8660  109.9252 C   0  0  0  0  0  0  0  0  0  0  0  0
  124.8482  106.0631  110.4416 C   0  0  0  0  0  0  0  0  0  0  0  0
  125.3703  105.8665  108.3097 C   0  0  0  0  0  0  0  0  0  0  0  0
  125.9502  106.2600  106.9716 C   0  0  0  0  0  0  0  0  0  0  0  0
  123.7035  106.6592  105.9002 C   0  0  0  0  0  0  0  0  0  0  0  0
  125.0651  107.2670  106.2296 C   0  0  2  0  0  0  0  0  0  0  0  0
  124.7399  104.7495  108.5978 N   0  0  0  0  0  0  0  0  0  0  0  0
  125.4608  106.6929  109.3951 N   0  0  0  0  0  0  0  0  0  0  0  0
  122.9137  107.6020  105.1826 O   0  0  0  0  0  0  0  0  0  0  0  0
  125.7080  107.6209  105.0035 O   0  0  0  0  0  0  0  0  0  0  0  0
  123.8787  104.0814  110.4421 H   0  0  0  0  0  0  0  0  0  0  0  0
  124.7816  106.5100  111.4228 H   0  0  0  0  0  0  0  0  0  0  0  0
  126.9543  106.6769  107.1241 H   0  0  0  0  0  0  0  0  0  0  0  0
  126.0792  105.3500  106.3717 H   0  0  0  0  0  0  0  0  0  0  0  0
  123.8105  105.7741  105.2650 H   0  0  0  0  0  0  0  0  0  0  0  0
  123.1567  106.3800  106.8063 H   0  0  0  0  0  0  0  0  0  0  0  0
  124.9386  108.1887  106.8096 H   0  0  0  0  0  0  0  0  0  0  0  0
  125.8980  107.6047  109.4198 H   0  0  0  0  0  0  0  0  0  0  0  0
  122.0648  107.1700  104.9988 H   0  0  0  0  0  0  0  0  0  0  0  0
  125.8070  106.7989  104.5006 H   0  0  0  0  0  0  0  0  0  0  0  0
  1  2  2  0  0  0  0
  1  7  1  0  0  0  0
  2  8  1  0  0  0  0
  3  4  1  0  0  0  0
  3  7  2  0  0  0  0
  3  8  1  0  0  0  0
  4  6  1  0  0  0  0
  5  6  1  0  0  0  0
  5  9  1  0  0  0  0
  6 10  1  0  0  0  0
  1 11  1  0  0  0  0
  2 12  1  0  0  0  0
  4 13  1  0  0  0  0
  4 14  1  0  0  0  0
  5 15  1  0  0  0  0
  5 16  1  0  0  0  0
  6 17  1  0  0  0  0
  8 18  1  0  0  0  0
  9 19  1  0  0  0  0
 10 20  1  0  0  0  0
M  END
> <FRED Chemgauss4 score>
-6.232326

$$$$
C87375881	P136703724
  -OEChem-05182014473D

 27 27  0     0  0  0  0  0  0999 V2000
  119.4754  105.0145  103.1263 C   0  0  0  0  0  0  0  0  0  0  0  0
  119.0255  104.1917  104.1376 C   0  0  0  0  0  0  0  0  0  0  0  0
  120.4046  106.0428  104.8261 C   0  0  0  0  0  0  0  0  0  0  0  0
  119.1849  104.8601  101.6861 C   0  0  0  0  0  0  0  0  0  0  0  0
  118.1733  102.9872  104.0759 C   0  0  0  0  0  0  0  0  0  0  0  0
  121.1967  107.0389  105.6227 C   0  0  0  0  0  0  0  0  0  0  0  0
  124.8885  107.5973  106.0824 C   0  0  0  0  0  0  0  0  0  0  0  0
  123.3900  107.8007  106.2305 C   0  0  0  0  0  0  0  0  0  0  0  0
  120.2660  106.0768  103.5193 N   0  0  0  0  0  0  0  0  0  0  0  0
  125.3194  107.7123  104.7150 N   0  0  0  0  0  0  0  0  0  0  0  0
  122.6381  106.8218  105.4931 N   0  0  0  0  0  0  0  0  0  0  0  0
  119.6116  104.7605  105.6457 S   0  0  0  0  0  0  0  0  0  0  0  0
  118.2699  105.4063  101.4059 H   0  0  0  0  0  0  0  0  0  0  0  0
  120.0079  105.2374  101.0564 H   0  0  0  0  0  0  0  0  0  0  0  0
  119.0447  103.8027  101.4047 H   0  0  0  0  0  0  0  0  0  0  0  0
  118.7819  102.0766  103.9541 H   0  0  0  0  0  0  0  0  0  0  0  0
  117.5646  102.8648  104.9877 H   0  0  0  0  0  0  0  0  0  0  0  0
  117.4595  103.0289  103.2357 H   0  0  0  0  0  0  0  0  0  0  0  0
  120.9783  108.0599  105.2909 H   0  0  0  0  0  0  0  0  0  0  0  0
  120.9438  106.9816  106.6866 H   0  0  0  0  0  0  0  0  0  0  0  0
  125.1946  106.6089  106.4397 H   0  0  0  0  0  0  0  0  0  0  0  0
  125.4294  108.3575  106.6545 H   0  0  0  0  0  0  0  0  0  0  0  0
  123.0969  107.7068  107.2806 H   0  0  0  0  0  0  0  0  0  0  0  0
  123.0844  108.7889  105.8719 H   0  0  0  0  0  0  0  0  0  0  0  0
  124.7442  107.3240  103.9846 H   0  0  0  0  0  0  0  0  0  0  0  0
  126.2683  107.9899  104.5209 H   0  0  0  0  0  0  0  0  0  0  0  0
  122.8543  105.8786  105.8340 H   0  0  0  0  0  0  0  0  0  0  0  0
  1  2  2  0  0  0  0
  1  4  1  0  0  0  0
  1  9  1  0  0  0  0
  2  5  1  0  0  0  0
  2 12  1  0  0  0  0
  3  6  1  0  0  0  0
  3  9  2  0  0  0  0
  3 12  1  0  0  0  0
  6 11  1  0  0  0  0
  7  8  1  0  0  0  0
  7 10  1  0  0  0  0
  8 11  1  0  0  0  0
  4 13  1  0  0  0  0
  4 14  1  0  0  0  0
  4 15  1  0  0  0  0
  5 16  1  0  0  0  0
  5 17  1  0  0  0  0
  5 18  1  0  0  0  0
  6 19  1  0  0  0  0
  6 20  1  0  0  0  0
  7 21  1  0  0  0  0
  7 22  1  0  0  0  0
  8 23  1  0  0  0  0
  8 24  1  0  0  0  0
 10 25  1  0  0  0  0
 10 26  1  0  0  0  0
 11 27  1  0  0  0  0
M  END
> <FRED Chemgauss4 score>
-6.230299

$$$$
C78676016	P122779583
  -OEChem-05182014473D

 24 24  0     1  0  0  0  0  0999 V2000
  121.7203  106.2012  105.1828 C   0  0  0  0  0  0  0  0  0  0  0  0
  122.1453  105.3617  106.1854 C   0  0  0  0  0  0  0  0  0  0  0  0
  123.7955  106.6084  105.4242 C   0  0  0  0  0  0  0  0  0  0  0  0
  123.8235  106.6189  109.1149 C   0  0  0  0  0  0  0  0  0  0  0  0
  125.1640  107.1505  105.3011 C   0  0  0  0  0  0  0  0  0  0  0  0
  124.3801  104.9900  107.2817 C   0  0  0  0  0  0  0  0  0  0  0  0
  123.9184  105.1482  108.7332 C   0  0  2  0  0  0  0  0  0  0  0  0
  122.7523  106.9744  104.7130 N   0  0  0  0  0  0  0  0  0  0  0  0
  123.4767  105.6337  106.3285 N   0  0  0  0  0  0  0  0  0  0  0  0
  125.2153  108.3798  104.5407 N   0  0  0  0  0  0  0  0  0  0  0  0
  122.6198  104.5820  108.8949 O   0  0  0  0  0  0  0  0  0  0  0  0
  120.7236  106.2881  104.7753 H   0  0  0  0  0  0  0  0  0  0  0  0
  121.6339  104.6224  106.7859 H   0  0  0  0  0  0  0  0  0  0  0  0
  123.1522  107.1621  108.4428 H   0  0  0  0  0  0  0  0  0  0  0  0
  123.4510  106.7245  110.1396 H   0  0  0  0  0  0  0  0  0  0  0  0
  124.8096  107.0960  109.0884 H   0  0  0  0  0  0  0  0  0  0  0  0
  125.6100  107.3667  106.2879 H   0  0  0  0  0  0  0  0  0  0  0  0
  125.8502  106.4423  104.8048 H   0  0  0  0  0  0  0  0  0  0  0  0
  125.3676  105.4421  107.1291 H   0  0  0  0  0  0  0  0  0  0  0  0
  124.4517  103.9316  107.0035 H   0  0  0  0  0  0  0  0  0  0  0  0
  124.5976  104.6406  109.4274 H   0  0  0  0  0  0  0  0  0  0  0  0
  126.0639  108.6150  104.0594 H   0  0  0  0  0  0  0  0  0  0  0  0
  124.4896  109.0603  104.6734 H   0  0  0  0  0  0  0  0  0  0  0  0
  122.3825  104.6987  109.8277 H   0  0  0  0  0  0  0  0  0  0  0  0
  1  2  2  0  0  0  0
  1  8  1  0  0  0  0
  2  9  1  0  0  0  0
  3  5  1  0  0  0  0
  3  8  2  0  0  0  0
  3  9  1  0  0  0  0
  4  7  1  0  0  0  0
  5 10  1  0  0  0  0
  6  7  1  0  0  0  0
  6  9  1  0  0  0  0
  7 11  1  0  0  0  0
  1 12  1  0  0  0  0
  2 13  1  0  0  0  0
  4 14  1  0  0  0  0
  4 15  1  0  0  0  0
  4 16  1  0  0  0  0
  5 17  1  0  0  0  0
  5 18  1  0  0  0  0
  6 19  1  0  0  0  0
  6 20  1  0  0  0  0
  7 21  1  0  0  0  0
 10 22  1  0  0  0  0
 10 23  1  0  0  0  0
 11 24  1  0  0  0  0
M  END
> <FRED Chemgauss4 score>
-6.228878

$$$$
C83872281	P131208497
  -OEChem-05182014473D

 26 26  0     1  0  0  0  0  0999 V2000
  118.0775  105.5929  106.1726 C   0  0  0  0  0  0  0  0  0  0  0  0
  122.6836  105.5431  106.0844 C   0  0  0  0  0  0  0  0  0  0  0  0
  125.1872  105.0140  108.7400 C   0  0  0  0  0  0  0  0  0  0  0  0
  126.3437  105.7424  108.0640 C   0  0  0  0  0  0  0  0  0  0  0  0
  125.1546  105.8209  106.0333 C   0  0  0  0  0  0  0  0  0  0  0  0
  123.9793  105.0912  106.6751 C   0  0  1  0  0  0  0  0  0  0  0  0
  119.4400  105.3592  106.6735 C   0  0  0  0  0  0  0  0  0  0  0  0
  120.3601  104.8101  105.5882 C   0  0  0  0  0  0  0  0  0  0  0  0
  117.0016  105.7779  105.7794 N   0  0  0  0  0  0  0  0  0  0  0  0
  123.9109  105.3738  108.1122 N   0  0  0  0  0  0  0  0  0  0  0  0
  121.6900  104.5831  106.1065 N   0  0  0  0  0  0  0  0  0  0  0  0
  122.5863  106.6811  105.6404 O   0  0  0  0  0  0  0  0  0  0  0  0
  126.3762  105.4372  106.6683 O   0  0  0  0  0  0  0  0  0  0  0  0
  125.3325  103.9311  108.6705 H   0  0  0  0  0  0  0  0  0  0  0  0
  125.1529  105.2660  109.8059 H   0  0  0  0  0  0  0  0  0  0  0  0
  126.2096  106.8251  108.1639 H   0  0  0  0  0  0  0  0  0  0  0  0
  127.3088  105.4867  108.5203 H   0  0  0  0  0  0  0  0  0  0  0  0
  125.2235  105.5949  104.9684 H   0  0  0  0  0  0  0  0  0  0  0  0
  125.0513  106.8993  106.1503 H   0  0  0  0  0  0  0  0  0  0  0  0
  124.0550  104.0319  106.5129 H   0  0  0  0  0  0  0  0  0  0  0  0
  119.3957  104.6393  107.4990 H   0  0  0  0  0  0  0  0  0  0  0  0
  119.8476  106.2914  107.0821 H   0  0  0  0  0  0  0  0  0  0  0  0
  119.9640  103.8584  105.2191 H   0  0  0  0  0  0  0  0  0  0  0  0
  120.4149  105.4987  104.7377 H   0  0  0  0  0  0  0  0  0  0  0  0
  123.1882  104.8007  108.5153 H   0  0  0  0  0  0  0  0  0  0  0  0
  121.9046  103.6743  106.5059 H   0  0  0  0  0  0  0  0  0  0  0  0
  1  7  1  0  0  0  0
  1  9  3  0  0  0  0
  2  6  1  0  0  0  0
  2 11  1  0  0  0  0
  2 12  2  0  0  0  0
  3  4  1  0  0  0  0
  3 10  1  0  0  0  0
  4 13  1  0  0  0  0
  5  6  1  0  0  0  0
  5 13  1  0  0  0  0
  6 10  1  0  0  0  0
  7  8  1  0  0  0  0
  8 11  1  0  0  0  0
  3 14  1  0  0  0  0
  3 15  1  0  0  0  0
  4 16  1  0  0  0  0
  4 17  1  0  0  0  0
  5 18  1  0  0  0  0
  5 19  1  0  0  0  0
  6 20  1  0  0  0  0
  7 21  1  0  0  0  0
  7 22  1  0  0  0  0
  8 23  1  0  0  0  0
  8 24  1  0  0  0  0
 10 25  1  0  0  0  0
 11 26  1  0  0  0  0
M  END
> <FRED Chemgauss4 score>
-6.224570

$$$$
C85353245	P133560517
  -OEChem-05182014473D

 24 25  0     1  0  0  0  0  0999 V2000
  122.8274  107.8509  107.9568 C   0  0  0  0  0  0  0  0  0  0  0  0
  122.4155  108.3827  109.9329 C   0  0  0  0  0  0  0  0  0  0  0  0
  122.5817  107.2050  105.4699 C   0  0  0  0  0  0  0  0  0  0  0  0
  124.3341  105.7777  106.0653 C   0  0  0  0  0  0  0  0  0  0  0  0
  123.3986  107.9142  106.5479 C   0  0  2  0  0  0  0  0  0  0  0  0
  124.7415  107.1914  106.4625 C   0  0  2  0  0  0  0  0  0  0  0  0
  122.3072  109.0084  111.2606 C   0  0  0  0  0  0  0  0  0  0  0  0
  123.0820  108.8164  108.8883 N   0  0  0  0  0  0  0  0  0  0  0  0
  122.0452  106.8471  108.3594 N   0  0  0  0  0  0  0  0  0  0  0  0
  121.7958  107.2115  109.6264 N   0  0  0  0  0  0  0  0  0  0  0  0
  125.5863  107.7837  105.4210 N   0  0  0  0  0  0  0  0  0  0  0  0
  123.0861  105.8656  105.3627 O   0  0  0  0  0  0  0  0  0  0  0  0
  121.5072  107.1711  105.6765 H   0  0  0  0  0  0  0  0  0  0  0  0
  122.7276  107.6833  104.4948 H   0  0  0  0  0  0  0  0  0  0  0  0
  125.0687  105.2581  105.4414 H   0  0  0  0  0  0  0  0  0  0  0  0
  124.1638  105.1620  106.9558 H   0  0  0  0  0  0  0  0  0  0  0  0
  123.5013  109.0025  106.3175 H   0  0  0  0  0  0  0  0  0  0  0  0
  125.3047  107.1950  107.4100 H   0  0  0  0  0  0  0  0  0  0  0  0
  121.4481  109.6998  111.3098 H   0  0  0  0  0  0  0  0  0  0  0  0
  122.1786  108.2621  112.0653 H   0  0  0  0  0  0  0  0  0  0  0  0
  123.2121  109.5845  111.5263 H   0  0  0  0  0  0  0  0  0  0  0  0
  121.2079  106.6223  110.2043 H   0  0  0  0  0  0  0  0  0  0  0  0
  126.2509  107.1956  104.9714 H   0  0  0  0  0  0  0  0  0  0  0  0
  125.6070  108.7758  105.3481 H   0  0  0  0  0  0  0  0  0  0  0  0
  1  5  1  0  0  0  0
  1  8  1  0  0  0  0
  1  9  2  0  0  0  0
  2  7  1  0  0  0  0
  2  8  2  0  0  0  0
  2 10  1  0  0  0  0
  3  5  1  0  0  0  0
  3 12  1  0  0  0  0
  4  6  1  0  0  0  0
  4 12  1  0  0  0  0
  5  6  1  0  0  0  0
  6 11  1  0  0  0  0
  9 10  1  0  0  0  0
  3 13  1  0  0  0  0
  3 14  1  0  0  0  0
  4 15  1  0  0  0  0
  4 16  1  0  0  0  0
  5 17  1  0  0  0  0
  6 18  1  0  0  0  0
  7 19  1  0  0  0  0
  7 20  1  0  0  0  0
  7 21  1  0  0  0  0
 10 22  1  0  0  0  0
 11 23  1  0  0  0  0
 11 24  1  0  0  0  0
M  END
> <FRED Chemgauss4 score>
-6.219394

$$$$
C71789783	P111278390
  -OEChem-05182014473D

 26 26  0     1  0  0  0  0  0999 V2000
  121.5391  105.0817  105.7375 C   0  0  0  0  0  0  0  0  0  0  0  0
  122.9323  105.4762  106.1803 C   0  0  2  0  0  0  0  0  0  0  0  0
  122.8759  106.0123  107.6117 C   0  0  1  0  0  0  0  0  0  0  0  0
  124.2466  106.5508  108.0329 C   0  0  2  0  0  0  0  0  0  0  0  0
  124.8059  107.5005  106.9640 C   0  0  2  0  0  0  0  0  0  0  0  0
  124.7314  106.8934  105.5599 C   0  0  1  0  0  0  0  0  0  0  0  0
  119.7433  103.6341  106.2507 C   0  0  0  0  0  0  0  0  0  0  0  0
  120.9554  105.5818  104.7855 O   0  0  0  0  0  0  0  0  0  0  0  0
  123.3964  106.4722  105.2742 O   0  0  0  0  0  0  0  0  0  0  0  0
  121.9292  107.0796  107.6797 O   0  0  0  0  0  0  0  0  0  0  0  0
  125.1395  105.4603  108.2572 O   0  0  0  0  0  0  0  0  0  0  0  0
  126.1570  107.8349  107.2656 O   0  0  0  0  0  0  0  0  0  0  0  0
  125.1281  107.8981  104.6265 O   0  0  0  0  0  0  0  0  0  0  0  0
  121.0601  104.1032  106.5573 O   0  0  0  0  0  0  0  0  0  0  0  0
  123.5571  104.5853  106.1167 H   0  0  0  0  0  0  0  0  0  0  0  0
  122.5399  105.2192  108.2878 H   0  0  0  0  0  0  0  0  0  0  0  0
  124.1671  107.1034  108.9954 H   0  0  0  0  0  0  0  0  0  0  0  0
  124.2293  108.4337  106.9797 H   0  0  0  0  0  0  0  0  0  0  0  0
  125.4261  106.0525  105.4548 H   0  0  0  0  0  0  0  0  0  0  0  0
  119.4576  102.8565  106.9633 H   0  0  0  0  0  0  0  0  0  0  0  0
  119.7252  103.2354  105.2333 H   0  0  0  0  0  0  0  0  0  0  0  0
  119.0422  104.4688  106.3253 H   0  0  0  0  0  0  0  0  0  0  0  0
  121.9275  107.3859  108.5991 H   0  0  0  0  0  0  0  0  0  0  0  0
  124.7454  104.9255  108.9624 H   0  0  0  0  0  0  0  0  0  0  0  0
  126.1487  108.2661  108.1346 H   0  0  0  0  0  0  0  0  0  0  0  0
  125.0736  107.4933  103.7474 H   0  0  0  0  0  0  0  0  0  0  0  0
  1  2  1  0  0  0  0
  1  8  2  0  0  0  0
  1 14  1  0  0  0  0
  2  3  1  0  0  0  0
  2  9  1  0  0  0  0
  3  4  1  0  0  0  0
  3 10  1  0  0  0  0
  4  5  1  0  0  0  0
  4 11  1  0  0  0  0
  5  6  1  0  0  0  0
  5 12  1  0  0  0  0
  6  9  1  0  0  0  0
  6 13  1  0  0  0  0
  7 14  1  0  0  0  0
  2 15  1  0  0  0  0
  3 16  1  0  0  0  0
  4 17  1  0  0  0  0
  5 18  1  0  0  0  0
  6 19  1  0  0  0  0
  7 20  1  0  0  0  0
  7 21  1  0  0  0  0
  7 22  1  0  0  0  0
 10 23  1  0  0  0  0
 11 24  1  0  0  0  0
 12 25  1  0  0  0  0
 13 26  1  0  0  0  0
M  END
> <FRED Chemgauss4 score>
-6.219320

$$$$
C84117862	P131638256
  -OEChem-05182014473D

 24 24  0     1  0  0  0  0  0999 V2000
  122.8613  107.0030  106.2117 C   0  0  0  0  0  0  0  0  0  0  0  0
  125.0313  106.4008  106.9153 C   0  0  0  0  0  0  0  0  0  0  0  0
  120.6556  105.9676  105.6203 C   0  0  0  0  0  0  0  0  0  0  0  0
  125.3845  103.4809  107.6354 C   0  0  0  0  0  0  0  0  0  0  0  0
  121.4082  107.2248  106.0676 C   0  0  0  0  0  0  0  0  0  0  0  0
  125.9182  104.6291  108.4833 C   0  0  0  0  0  0  0  0  0  0  0  0
  126.2508  105.8758  107.6458 C   0  0  1  0  0  0  0  0  0  0  0  0
  123.7783  107.3915  105.3515 N   0  0  0  0  0  0  0  0  0  0  0  0
  125.0511  107.0374  105.7637 N   0  0  0  0  0  0  0  0  0  0  0  0
  127.3289  105.6216  106.7165 N   0  0  0  0  0  0  0  0  0  0  0  0
  123.4694  106.1804  107.5884 S   0  0  0  0  0  0  0  0  0  0  0  0
  121.0662  105.5830  104.6804 H   0  0  0  0  0  0  0  0  0  0  0  0
  119.5924  106.1760  105.4657 H   0  0  0  0  0  0  0  0  0  0  0  0
  120.7403  105.1761  106.3726 H   0  0  0  0  0  0  0  0  0  0  0  0
  126.0960  103.2109  106.8485 H   0  0  0  0  0  0  0  0  0  0  0  0
  125.2196  102.5973  108.2601 H   0  0  0  0  0  0  0  0  0  0  0  0
  124.4314  103.7413  107.1647 H   0  0  0  0  0  0  0  0  0  0  0  0
  120.9631  107.5790  107.0173 H   0  0  0  0  0  0  0  0  0  0  0  0
  121.1987  108.0342  105.3419 H   0  0  0  0  0  0  0  0  0  0  0  0
  125.1771  104.8670  109.2567 H   0  0  0  0  0  0  0  0  0  0  0  0
  126.8200  104.2828  109.0042 H   0  0  0  0  0  0  0  0  0  0  0  0
  126.6271  106.6560  108.3192 H   0  0  0  0  0  0  0  0  0  0  0  0
  128.0631  104.9932  106.9878 H   0  0  0  0  0  0  0  0  0  0  0  0
  127.4305  106.2217  105.9181 H   0  0  0  0  0  0  0  0  0  0  0  0
  1  5  1  0  0  0  0
  1  8  2  0  0  0  0
  1 11  1  0  0  0  0
  2  7  1  0  0  0  0
  2  9  2  0  0  0  0
  2 11  1  0  0  0  0
  3  5  1  0  0  0  0
  4  6  1  0  0  0  0
  6  7  1  0  0  0  0
  7 10  1  0  0  0  0
  8  9  1  0  0  0  0
  3 12  1  0  0  0  0
  3 13  1  0  0  0  0
  3 14  1  0  0  0  0
  4 15  1  0  0  0  0
  4 16  1  0  0  0  0
  4 17  1  0  0  0  0
  5 18  1  0  0  0  0
  5 19  1  0  0  0  0
  6 20  1  0  0  0  0
  6 21  1  0  0  0  0
  7 22  1  0  0  0  0
 10 23  1  0  0  0  0
 10 24  1  0  0  0  0
M  END
> <FRED Chemgauss4 score>
-6.216211

$$$$
C81922581	P127811112
  -OEChem-05182014473D

 29 29  0     1  0  0  0  0  0999 V2000
  119.2517  105.6700  104.8373 C   0  0  0  0  0  0  0  0  0  0  0  0
  119.3114  106.2171  106.1190 C   0  0  0  0  0  0  0  0  0  0  0  0
  121.6082  106.1120  104.5390 C   0  0  0  0  0  0  0  0  0  0  0  0
  121.6678  106.6591  105.8207 C   0  0  0  0  0  0  0  0  0  0  0  0
  120.4002  105.6174  104.0473 C   0  0  0  0  0  0  0  0  0  0  0  0
  120.5194  106.7117  106.6106 C   0  0  0  0  0  0  0  0  0  0  0  0
  125.1803  105.9689  108.9972 C   0  0  0  0  0  0  0  0  0  0  0  0
  123.2975  104.6641  107.1189 C   0  0  0  0  0  0  0  0  0  0  0  0
  125.4323  106.0770  107.4925 C   0  0  2  0  0  0  0  0  0  0  0  0
  124.1917  105.7957  106.6194 C   0  0  2  0  0  0  0  0  0  0  0  0
  126.5129  105.1516  107.1382 N   0  0  0  0  0  0  0  0  0  0  0  0
  123.8085  108.0333  105.3077 O   0  0  0  0  0  0  0  0  0  0  0  0
  123.0271  107.8639  107.6965 O   0  0  0  0  0  0  0  0  0  0  0  0
  123.2226  107.2698  106.3899 S   0  0  0  0  0  0  0  0  0  0  0  0
  120.3260  104.9415  102.4663 Cl  0  0  0  0  0  0  0  0  0  0  0  0
  120.5388  107.3789  108.2034 Cl  0  0  0  0  0  0  0  0  0  0  0  0
  118.3037  105.2870  104.4678 H   0  0  0  0  0  0  0  0  0  0  0  0
  118.4069  106.2499  106.7213 H   0  0  0  0  0  0  0  0  0  0  0  0
  122.5039  106.0710  103.9235 H   0  0  0  0  0  0  0  0  0  0  0  0
  124.8240  104.9741  109.2848 H   0  0  0  0  0  0  0  0  0  0  0  0
  124.4422  106.7040  109.3315 H   0  0  0  0  0  0  0  0  0  0  0  0
  126.1025  106.1611  109.5580 H   0  0  0  0  0  0  0  0  0  0  0  0
  122.9275  104.8568  108.1312 H   0  0  0  0  0  0  0  0  0  0  0  0
  123.8248  103.7054  107.1189 H   0  0  0  0  0  0  0  0  0  0  0  0
  122.4186  104.5587  106.4729 H   0  0  0  0  0  0  0  0  0  0  0  0
  125.7845  107.0948  107.2829 H   0  0  0  0  0  0  0  0  0  0  0  0
  124.5279  105.5427  105.6049 H   0  0  0  0  0  0  0  0  0  0  0  0
  127.2290  104.9967  107.8102 H   0  0  0  0  0  0  0  0  0  0  0  0
  126.5968  104.8808  106.1852 H   0  0  0  0  0  0  0  0  0  0  0  0
  1  2  2  0  0  0  0
  1  5  1  0  0  0  0
  2  6  1  0  0  0  0
  3  4  1  0  0  0  0
  3  5  2  0  0  0  0
  4  6  2  0  0  0  0
  4 14  1  0  0  0  0
  5 15  1  0  0  0  0
  6 16  1  0  0  0  0
  7  9  1  0  0  0  0
  8 10  1  0  0  0  0
  9 10  1  0  0  0  0
  9 11  1  0  0  0  0
 10 14  1  0  0  0  0
 12 14  2  0  0  0  0
 13 14  2  0  0  0  0
  1 17  1  0  0  0  0
  2 18  1  0  0  0  0
  3 19  1  0  0  0  0
  7 20  1  0  0  0  0
  7 21  1  0  0  0  0
  7 22  1  0  0  0  0
  8 23  1  0  0  0  0
  8 24  1  0  0  0  0
  8 25  1  0  0  0  0
  9 26  1  0  0  0  0
 10 27  1  0  0  0  0
 11 28  1  0  0  0  0
 11 29  1  0  0  0  0
M  END
> <FRED Chemgauss4 score>
-6.214401

$$$$
C87121137	P136358272
  -OEChem-05182014473D

 36 36  0     1  0  0  0  0  0999 V2000
  121.2743  104.3336  107.1071 C   0  0  0  0  0  0  0  0  0  0  0  0
  120.4901  104.6860  105.8455 C   0  0  0  0  0  0  0  0  0  0  0  0
  122.3674  105.3581  107.3951 C   0  0  0  0  0  0  0  0  0  0  0  0
  122.5101  105.8965  104.9292 C   0  0  0  0  0  0  0  0  0  0  0  0
  121.4156  104.8617  104.6343 C   0  0  2  0  0  0  0  0  0  0  0  0
  123.2936  105.5414  106.1938 C   0  0  1  0  0  0  0  0  0  0  0  0
  119.1897  104.7092  103.4943 C   0  0  0  0  0  0  0  0  0  0  0  0
  125.7149  105.9096  107.5091 C   0  0  0  0  0  0  0  0  0  0  0  0
  121.3336  104.7825  102.1256 C   0  0  0  0  0  0  0  0  0  0  0  0
  120.6143  105.2616  103.3969 C   0  0  2  0  0  0  0  0  0  0  0  0
  121.0957  103.3941  101.8283 N   0  0  0  0  0  0  0  0  0  0  0  0
  123.9007  107.7874  107.3852 O   0  0  0  0  0  0  0  0  0  0  0  0
  125.1407  107.1498  105.2809 O   0  0  0  0  0  0  0  0  0  0  0  0
  120.5236  106.6892  103.3718 O   0  0  0  0  0  0  0  0  0  0  0  0
  124.5122  106.7828  106.5358 S   0  0  0  0  0  0  0  0  0  0  0  0
  120.5903  104.2749  107.9613 H   0  0  0  0  0  0  0  0  0  0  0  0
  121.7259  103.3407  106.9908 H   0  0  0  0  0  0  0  0  0  0  0  0
  119.7564  103.8963  105.6440 H   0  0  0  0  0  0  0  0  0  0  0  0
  119.9231  105.6095  106.0195 H   0  0  0  0  0  0  0  0  0  0  0  0
  121.9048  106.3173  107.6613 H   0  0  0  0  0  0  0  0  0  0  0  0
  122.9457  105.0398  108.2708 H   0  0  0  0  0  0  0  0  0  0  0  0
  123.1973  105.9627  104.0762 H   0  0  0  0  0  0  0  0  0  0  0  0
  122.0603  106.8923  105.0397 H   0  0  0  0  0  0  0  0  0  0  0  0
  121.8989  103.8979  104.4257 H   0  0  0  0  0  0  0  0  0  0  0  0
  123.8584  104.6165  106.0244 H   0  0  0  0  0  0  0  0  0  0  0  0
  118.5922  104.9822  102.6175 H   0  0  0  0  0  0  0  0  0  0  0  0
  118.6684  105.1353  104.3595 H   0  0  0  0  0  0  0  0  0  0  0  0
  119.1877  103.6189  103.5929 H   0  0  0  0  0  0  0  0  0  0  0  0
  126.5155  106.6032  107.7707 H   0  0  0  0  0  0  0  0  0  0  0  0
  125.2239  105.5354  108.4087 H   0  0  0  0  0  0  0  0  0  0  0  0
  126.1047  105.0826  106.9137 H   0  0  0  0  0  0  0  0  0  0  0  0
  120.9877  105.3428  101.2501 H   0  0  0  0  0  0  0  0  0  0  0  0
  122.4172  104.9137  102.2153 H   0  0  0  0  0  0  0  0  0  0  0  0
  121.7728  102.8872  101.2821 H   0  0  0  0  0  0  0  0  0  0  0  0
  120.1794  103.0088  101.9893 H   0  0  0  0  0  0  0  0  0  0  0  0
  120.0729  106.9462  104.1892 H   0  0  0  0  0  0  0  0  0  0  0  0
  1  2  1  0  0  0  0
  1  3  1  0  0  0  0
  2  5  1  0  0  0  0
  3  6  1  0  0  0  0
  4  5  1  0  0  0  0
  4  6  1  0  0  0  0
  5 10  1  0  0  0  0
  6 15  1  0  0  0  0
  7 10  1  0  0  0  0
  8 15  1  0  0  0  0
  9 10  1  0  0  0  0
  9 11  1  0  0  0  0
 10 14  1  0  0  0  0
 12 15  2  0  0  0  0
 13 15  2  0  0  0  0
  1 16  1  0  0  0  0
  1 17  1  0  0  0  0
  2 18  1  0  0  0  0
  2 19  1  0  0  0  0
  3 20  1  0  0  0  0
  3 21  1  0  0  0  0
  4 22  1  0  0  0  0
  4 23  1  0  0  0  0
  5 24  1  0  0  0  0
  6 25  1  0  0  0  0
  7 26  1  0  0  0  0
  7 27  1  0  0  0  0
  7 28  1  0  0  0  0
  8 29  1  0  0  0  0
  8 30  1  0  0  0  0
  8 31  1  0  0  0  0
  9 32  1  0  0  0  0
  9 33  1  0  0  0  0
 11 34  1  0  0  0  0
 11 35  1  0  0  0  0
 14 36  1  0  0  0  0
M  END
> <FRED Chemgauss4 score>
-6.211033

$$$$
C88488803	P138408179
  -OEChem-05182014473D

 34 34  0     1  0  0  0  0  0999 V2000
  124.7842  107.4987  106.4711 C   0  0  0  0  0  0  0  0  0  0  0  0
  120.0822  104.5875  105.9325 C   0  0  0  0  0  0  0  0  0  0  0  0
  125.7078  104.3070  107.2282 C   0  0  0  0  0  0  0  0  0  0  0  0
  125.8202  104.5669  108.7011 C   0  0  0  0  0  0  0  0  0  0  0  0
  125.9721  105.7018  107.7256 C   0  0  0  0  0  0  0  0  0  0  0  0
  121.4539  105.1015  107.9920 C   0  0  0  0  0  0  0  0  0  0  0  0
  121.4145  108.6526  107.6316 C   0  0  0  0  0  0  0  0  0  0  0  0
  123.6684  108.4965  106.6491 C   0  0  0  0  0  0  0  0  0  0  0  0
  120.7216  105.6700  106.7840 C   0  0  1  0  0  0  0  0  0  0  0  0
  120.9210  103.6371  105.4159 N   0  0  0  0  0  0  0  0  0  0  0  0
  124.9705  106.7379  107.6163 N   0  0  0  0  0  0  0  0  0  0  0  0
  122.4036  107.7806  106.9501 N   0  0  2  0  0  0  0  0  0  0  0  0
  125.4324  107.3878  105.4338 O   0  0  0  0  0  0  0  0  0  0  0  0
  121.0101  107.3534  104.8082 O   0  0  0  0  0  0  0  0  0  0  0  0
  122.9080  105.7976  105.3607 O   0  0  0  0  0  0  0  0  0  0  0  0
  118.4352  104.5522  105.6355 S   0  0  0  0  0  0  0  0  0  0  0  0
  121.8202  106.6564  105.7893 S   0  0  0  0  0  0  0  0  0  0  0  0
  126.5159  103.7679  106.7490 H   0  0  0  0  0  0  0  0  0  0  0  0
  124.7249  104.0926  106.8272 H   0  0  0  0  0  0  0  0  0  0  0  0
  124.9130  104.5275  109.2912 H   0  0  0  0  0  0  0  0  0  0  0  0
  126.7037  104.2022  109.2105 H   0  0  0  0  0  0  0  0  0  0  0  0
  126.9755  106.0874  107.5807 H   0  0  0  0  0  0  0  0  0  0  0  0
  122.2310  104.3953  107.6813 H   0  0  0  0  0  0  0  0  0  0  0  0
  121.9318  105.8855  108.5889 H   0  0  0  0  0  0  0  0  0  0  0  0
  120.7567  104.5730  108.6511 H   0  0  0  0  0  0  0  0  0  0  0  0
  120.4984  108.0928  107.8368 H   0  0  0  0  0  0  0  0  0  0  0  0
  121.1687  109.5107  107.0001 H   0  0  0  0  0  0  0  0  0  0  0  0
  121.8223  109.0192  108.5776 H   0  0  0  0  0  0  0  0  0  0  0  0
  123.9061  109.1712  107.4769 H   0  0  0  0  0  0  0  0  0  0  0  0
  123.5419  109.0790  105.7319 H   0  0  0  0  0  0  0  0  0  0  0  0
  119.9554  106.3694  107.1397 H   0  0  0  0  0  0  0  0  0  0  0  0
  121.9223  103.6446  105.5787 H   0  0  0  0  0  0  0  0  0  0  0  0
  120.5631  102.8876  104.8330 H   0  0  0  0  0  0  0  0  0  0  0  0
  124.3730  106.9181  108.4180 H   0  0  0  0  0  0  0  0  0  0  0  0
  1  8  1  0  0  0  0
  1 11  1  0  0  0  0
  1 13  2  0  0  0  0
  2  9  1  0  0  0  0
  2 10  1  0  0  0  0
  2 16  2  0  0  0  0
  3  4  1  0  0  0  0
  3  5  1  0  0  0  0
  4  5  1  0  0  0  0
  5 11  1  0  0  0  0
  6  9  1  0  0  0  0
  7 12  1  0  0  0  0
  8 12  1  0  0  0  0
  9 17  1  0  0  0  0
 12 17  1  0  0  0  0
 14 17  2  0  0  0  0
 15 17  2  0  0  0  0
  3 18  1  0  0  0  0
  3 19  1  0  0  0  0
  4 20  1  0  0  0  0
  4 21  1  0  0  0  0
  5 22  1  0  0  0  0
  6 23  1  0  0  0  0
  6 24  1  0  0  0  0
  6 25  1  0  0  0  0
  7 26  1  0  0  0  0
  7 27  1  0  0  0  0
  7 28  1  0  0  0  0
  8 29  1  0  0  0  0
  8 30  1  0  0  0  0
  9 31  1  0  0  0  0
 10 32  1  0  0  0  0
 10 33  1  0  0  0  0
 11 34  1  0  0  0  0
M  END
> <FRED Chemgauss4 score>
-6.209958

$$$$
C52785703	P79103784
  -OEChem-05182014473D

 23 23  0     1  0  0  0  0  0999 V2000
  125.7036  103.8571  108.5078 C   0  0  0  0  0  0  0  0  0  0  0  0
  125.6696  105.6067  107.3697 C   0  0  0  0  0  0  0  0  0  0  0  0
  121.5262  108.8240  107.8843 C   0  0  0  0  0  0  0  0  0  0  0  0
  124.1811  107.1376  105.9666 C   0  0  0  0  0  0  0  0  0  0  0  0
  123.5091  107.7807  107.1754 C   0  0  0  0  0  0  0  0  0  0  0  0
  125.6036  106.6343  106.2595 C   0  0  1  0  0  0  0  0  0  0  0  0
  125.5929  104.3044  107.2223 N   0  0  0  0  0  0  0  0  0  0  0  0
  125.8190  105.9101  108.6871 N   0  0  0  0  0  0  0  0  0  0  0  0
  125.8439  104.8007  109.4412 N   0  0  0  0  0  0  0  0  0  0  0  0
  126.4684  107.7560  106.5570 N   0  0  0  0  0  0  0  0  0  0  0  0
  122.1990  108.1906  106.8048 O   0  0  0  0  0  0  0  0  0  0  0  0
  125.6792  102.8041  108.7556 H   0  0  0  0  0  0  0  0  0  0  0  0
  120.5255  109.1250  107.5647 H   0  0  0  0  0  0  0  0  0  0  0  0
  122.0960  109.6991  108.2068 H   0  0  0  0  0  0  0  0  0  0  0  0
  121.4443  108.1188  108.7148 H   0  0  0  0  0  0  0  0  0  0  0  0
  124.2157  107.8763  105.1538 H   0  0  0  0  0  0  0  0  0  0  0  0
  123.5439  106.3304  105.5818 H   0  0  0  0  0  0  0  0  0  0  0  0
  123.4231  107.0755  108.0074 H   0  0  0  0  0  0  0  0  0  0  0  0
  124.0668  108.6615  107.5087 H   0  0  0  0  0  0  0  0  0  0  0  0
  126.0088  106.2002  105.3367 H   0  0  0  0  0  0  0  0  0  0  0  0
  125.9483  104.8193  110.4520 H   0  0  0  0  0  0  0  0  0  0  0  0
  126.2963  108.6321  106.0996 H   0  0  0  0  0  0  0  0  0  0  0  0
  127.3282  107.5857  107.0451 H   0  0  0  0  0  0  0  0  0  0  0  0
  1  7  2  0  0  0  0
  1  9  1  0  0  0  0
  2  6  1  0  0  0  0
  2  7  1  0  0  0  0
  2  8  2  0  0  0  0
  3 11  1  0  0  0  0
  4  5  1  0  0  0  0
  4  6  1  0  0  0  0
  5 11  1  0  0  0  0
  6 10  1  0  0  0  0
  8  9  1  0  0  0  0
  1 12  1  0  0  0  0
  3 13  1  0  0  0  0
  3 14  1  0  0  0  0
  3 15  1  0  0  0  0
  4 16  1  0  0  0  0
  4 17  1  0  0  0  0
  5 18  1  0  0  0  0
  5 19  1  0  0  0  0
  6 20  1  0  0  0  0
  9 21  1  0  0  0  0
 10 22  1  0  0  0  0
 10 23  1  0  0  0  0
M  END
> <FRED Chemgauss4 score>
-6.209181

$$$$
C82598966	P129091305
  -OEChem-05182014473D

 29 29  0     1  0  0  0  0  0999 V2000
  119.6302  104.2074  106.5281 C   0  0  0  0  0  0  0  0  0  0  0  0
  118.9912  104.1948  105.3505 C   0  0  0  0  0  0  0  0  0  0  0  0
  121.0223  104.7068  106.5892 C   0  0  0  0  0  0  0  0  0  0  0  0
  120.7642  105.0614  104.2071 C   0  0  0  0  0  0  0  0  0  0  0  0
  117.5796  103.6958  105.2452 C   0  0  0  0  0  0  0  0  0  0  0  0
  121.3809  105.5320  102.9112 C   0  0  0  0  0  0  0  0  0  0  0  0
  122.9026  105.6484  105.2909 C   0  0  0  0  0  0  0  0  0  0  0  0
  124.5649  107.3791  106.1480 C   0  0  0  0  0  0  0  0  0  0  0  0
  123.1334  106.8460  106.2136 C   0  0  1  0  0  0  0  0  0  0  0  0
  119.5443  104.6203  104.1692 N   0  0  0  0  0  0  0  0  0  0  0  0
  121.5382  105.1296  105.3626 N   0  0  0  0  0  0  0  0  0  0  0  0
  124.8749  107.7987  104.7989 N   0  0  0  0  0  0  0  0  0  0  0  0
  121.6088  104.7162  107.6688 O   0  0  0  0  0  0  0  0  0  0  0  0
  122.2343  107.8966  105.8587 O   0  0  0  0  0  0  0  0  0  0  0  0
  119.1710  103.8652  107.4482 H   0  0  0  0  0  0  0  0  0  0  0  0
  116.8909  104.5231  105.3986 H   0  0  0  0  0  0  0  0  0  0  0  0
  117.4078  102.9323  106.0005 H   0  0  0  0  0  0  0  0  0  0  0  0
  117.4203  103.2655  104.2591 H   0  0  0  0  0  0  0  0  0  0  0  0
  121.1766  106.5896  102.7872 H   0  0  0  0  0  0  0  0  0  0  0  0
  120.9491  104.9702  102.0902 H   0  0  0  0  0  0  0  0  0  0  0  0
  122.4512  105.3608  102.9474 H   0  0  0  0  0  0  0  0  0  0  0  0
  123.0964  105.9173  104.2477 H   0  0  0  0  0  0  0  0  0  0  0  0
  123.5641  104.8203  105.5649 H   0  0  0  0  0  0  0  0  0  0  0  0
  125.2864  106.6093  106.4408 H   0  0  0  0  0  0  0  0  0  0  0  0
  124.6844  108.2388  106.8154 H   0  0  0  0  0  0  0  0  0  0  0  0
  122.8946  106.5488  107.2421 H   0  0  0  0  0  0  0  0  0  0  0  0
  124.5252  107.2547  104.0315 H   0  0  0  0  0  0  0  0  0  0  0  0
  125.5887  108.4905  104.6604 H   0  0  0  0  0  0  0  0  0  0  0  0
  121.3399  107.5402  105.9683 H   0  0  0  0  0  0  0  0  0  0  0  0
  1  2  2  0  0  0  0
  1  3  1  0  0  0  0
  2  5  1  0  0  0  0
  2 10  1  0  0  0  0
  3 11  1  0  0  0  0
  3 13  2  0  0  0  0
  4  6  1  0  0  0  0
  4 10  2  0  0  0  0
  4 11  1  0  0  0  0
  7  9  1  0  0  0  0
  7 11  1  0  0  0  0
  8  9  1  0  0  0  0
  8 12  1  0  0  0  0
  9 14  1  0  0  0  0
  1 15  1  0  0  0  0
  5 16  1  0  0  0  0
  5 17  1  0  0  0  0
  5 18  1  0  0  0  0
  6 19  1  0  0  0  0
  6 20  1  0  0  0  0
  6 21  1  0  0  0  0
  7 22  1  0  0  0  0
  7 23  1  0  0  0  0
  8 24  1  0  0  0  0
  8 25  1  0  0  0  0
  9 26  1  0  0  0  0
 12 27  1  0  0  0  0
 12 28  1  0  0  0  0
 14 29  1  0  0  0  0
M  END
> <FRED Chemgauss4 score>
-6.208291

$$$$
C87440425	P136787889
  -OEChem-05182014473D

 19 19  0     0  0  0  0  0  0999 V2000
  119.3787  103.8503  106.2088 C   0  0  0  0  0  0  0  0  0  0  0  0
  121.0880  104.9724  105.7889 C   0  0  0  0  0  0  0  0  0  0  0  0
  122.0543  105.9276  105.1882 C   0  0  0  0  0  0  0  0  0  0  0  0
  125.2458  107.2320  106.4792 C   0  0  0  0  0  0  0  0  0  0  0  0
  124.3491  106.8616  105.3204 C   0  0  0  0  0  0  0  0  0  0  0  0
  119.8588  104.8054  105.3592 N   0  0  0  0  0  0  0  0  0  0  0  0
  120.2335  103.4159  107.1373 N   0  0  0  0  0  0  0  0  0  0  0  0
  121.3188  104.1493  106.8467 N   0  0  0  0  0  0  0  0  0  0  0  0
  124.5608  107.8776  107.4860 N   0  0  0  0  0  0  0  0  0  0  0  0
  123.3174  105.9746  105.7717 N   0  0  0  0  0  0  0  0  0  0  0  0
  121.6979  106.6274  104.2438 O   0  0  0  0  0  0  0  0  0  0  0  0
  126.4395  106.9501  106.5395 O   0  0  0  0  0  0  0  0  0  0  0  0
  118.3740  103.4585  106.1492 H   0  0  0  0  0  0  0  0  0  0  0  0
  124.9151  106.3516  104.5362 H   0  0  0  0  0  0  0  0  0  0  0  0
  123.8817  107.7638  104.9167 H   0  0  0  0  0  0  0  0  0  0  0  0
  122.1583  104.0339  107.4021 H   0  0  0  0  0  0  0  0  0  0  0  0
  123.5655  108.0580  107.4069 H   0  0  0  0  0  0  0  0  0  0  0  0
  125.0151  108.1939  108.3368 H   0  0  0  0  0  0  0  0  0  0  0  0
  123.5109  105.4031  106.5943 H   0  0  0  0  0  0  0  0  0  0  0  0
  1  6  1  0  0  0  0
  1  7  2  0  0  0  0
  2  3  1  0  0  0  0
  2  6  2  0  0  0  0
  2  8  1  0  0  0  0
  3 10  1  0  0  0  0
  3 11  2  0  0  0  0
  4  5  1  0  0  0  0
  4  9  1  0  0  0  0
  4 12  2  0  0  0  0
  5 10  1  0  0  0  0
  7  8  1  0  0  0  0
  1 13  1  0  0  0  0
  5 14  1  0  0  0  0
  5 15  1  0  0  0  0
  8 16  1  0  0  0  0
  9 17  1  0  0  0  0
  9 18  1  0  0  0  0
 10 19  1  0  0  0  0
M  END
> <FRED Chemgauss4 score>
-6.207949

$$$$
L-Alanine	P10000028
  -OEChem-05182014473D

 13 12  0     1  0  0  0  0  0999 V2000
  124.2049  107.3108  105.8755 C   0  0  0  0  0  0  0  0  0  0  0  0
  125.7222  105.8736  107.3806 C   0  0  0  0  0  0  0  0  0  0  0  0
  125.1381  107.2490  107.0945 C   0  0  2  0  0  0  0  0  0  0  0  0
  124.4716  107.7213  108.3479 N   0  3  0  0  0  0  0  0  0  0  0  0
  123.1969  106.5518  105.8990 O   0  5  0  0  0  0  0  0  0  0  0  0
  124.5711  108.1245  104.9783 O   0  0  0  0  0  0  0  0  0  0  0  0
  124.9266  105.1421  107.5600 H   0  0  0  0  0  0  0  0  0  0  0  0
  126.3176  105.5132  106.5344 H   0  0  0  0  0  0  0  0  0  0  0  0
  126.3677  105.8878  108.2661 H   0  0  0  0  0  0  0  0  0  0  0  0
  125.9594  107.9542  106.9202 H   0  0  0  0  0  0  0  0  0  0  0  0
  123.5423  108.0891  108.1382 H   0  0  0  0  0  0  0  0  0  0  0  0
  125.0240  108.4606  108.7854 H   0  0  0  0  0  0  0  0  0  0  0  0
  124.3755  106.9500  109.0104 H   0  0  0  0  0  0  0  0  0  0  0  0
  1  3  1  0  0  0  0
  1  5  1  0  0  0  0
  1  6  2  0  0  0  0
  2  3  1  0  0  0  0
  3  4  1  0  0  0  0
  2  7  1  0  0  0  0
  2  8  1  0  0  0  0
  2  9  1  0  0  0  0
  3 10  1  0  0  0  0
  4 11  1  0  0  0  0
  4 12  1  0  0  0  0
  4 13  1  0  0  0  0
M  CHG  2   4   1   5  -1
M  END
> <FRED Chemgauss4 score>
-6.199663

$$$$
C54433554	P81923854
  -OEChem-05182014473D

 34 34  0     1  0  0  0  0  0999 V2000
  123.9563  106.7851  105.7041 C   0  0  0  0  0  0  0  0  0  0  0  0
  123.7557  105.6278  106.4801 C   0  0  0  0  0  0  0  0  0  0  0  0
  122.5205  105.1664  106.0954 C   0  0  0  0  0  0  0  0  0  0  0  0
  121.7387  103.9949  106.5344 C   0  0  0  0  0  0  0  0  0  0  0  0
  125.1191  103.6057  107.1594 C   0  0  0  0  0  0  0  0  0  0  0  0
  118.9013  106.3366  106.5948 C   0  0  0  0  0  0  0  0  0  0  0  0
  118.8421  108.7009  106.1719 C   0  0  0  0  0  0  0  0  0  0  0  0
  120.8042  105.9840  104.4308 C   0  0  0  0  0  0  0  0  0  0  0  0
  119.9496  107.2316  104.6269 C   0  0  0  0  0  0  0  0  0  0  0  0
  124.6687  105.0471  107.4786 C   0  0  1  0  0  0  0  0  0  0  0  0
  122.9309  107.0429  104.8879 N   0  0  0  0  0  0  0  0  0  0  0  0
  122.0740  106.0410  105.1490 N   0  0  0  0  0  0  0  0  0  0  0  0
  125.8699  105.8494  107.6937 N   0  0  0  0  0  0  0  0  0  0  0  0
  119.6270  107.4750  106.0325 N   0  0  0  0  0  0  0  0  0  0  0  0
  124.8060  107.4529  105.6972 H   0  0  0  0  0  0  0  0  0  0  0  0
  121.0864  104.2482  107.3866 H   0  0  0  0  0  0  0  0  0  0  0  0
  121.0971  103.5989  105.7283 H   0  0  0  0  0  0  0  0  0  0  0  0
  122.3865  103.1574  106.8464 H   0  0  0  0  0  0  0  0  0  0  0  0
  125.6026  103.5671  106.1771 H   0  0  0  0  0  0  0  0  0  0  0  0
  125.8290  103.2250  107.9023 H   0  0  0  0  0  0  0  0  0  0  0  0
  124.2681  102.9155  107.1444 H   0  0  0  0  0  0  0  0  0  0  0  0
  119.4930  105.4238  106.4876 H   0  0  0  0  0  0  0  0  0  0  0  0
  117.9488  106.2016  106.0753 H   0  0  0  0  0  0  0  0  0  0  0  0
  118.7009  106.5033  107.6566 H   0  0  0  0  0  0  0  0  0  0  0  0
  119.3896  109.5477  105.7500 H   0  0  0  0  0  0  0  0  0  0  0  0
  118.6407  108.9028  107.2275 H   0  0  0  0  0  0  0  0  0  0  0  0
  117.8886  108.6011  105.6462 H   0  0  0  0  0  0  0  0  0  0  0  0
  120.2694  105.0991  104.7961 H   0  0  0  0  0  0  0  0  0  0  0  0
  121.0226  105.8153  103.3696 H   0  0  0  0  0  0  0  0  0  0  0  0
  120.4881  108.1141  104.2681 H   0  0  0  0  0  0  0  0  0  0  0  0
  119.0037  107.1603  104.0804 H   0  0  0  0  0  0  0  0  0  0  0  0
  124.1917  105.0054  108.4813 H   0  0  0  0  0  0  0  0  0  0  0  0
  126.6824  105.3920  108.0466 H   0  0  0  0  0  0  0  0  0  0  0  0
  125.7798  106.8422  107.6775 H   0  0  0  0  0  0  0  0  0  0  0  0
  1  2  1  0  0  0  0
  1 11  2  0  0  0  0
  2  3  2  0  0  0  0
  2 10  1  0  0  0  0
  3  4  1  0  0  0  0
  3 12  1  0  0  0  0
  5 10  1  0  0  0  0
  6 14  1  0  0  0  0
  7 14  1  0  0  0  0
  8  9  1  0  0  0  0
  8 12  1  0  0  0  0
  9 14  1  0  0  0  0
 10 13  1  0  0  0  0
 11 12  1  0  0  0  0
  1 15  1  0  0  0  0
  4 16  1  0  0  0  0
  4 17  1  0  0  0  0
  4 18  1  0  0  0  0
  5 19  1  0  0  0  0
  5 20  1  0  0  0  0
  5 21  1  0  0  0  0
  6 22  1  0  0  0  0
  6 23  1  0  0  0  0
  6 24  1  0  0  0  0
  7 25  1  0  0  0  0
  7 26  1  0  0  0  0
  7 27  1  0  0  0  0
  8 28  1  0  0  0  0
  8 29  1  0  0  0  0
  9 30  1  0  0  0  0
  9 31  1  0  0  0  0
 10 32  1  0  0  0  0
 13 33  1  0  0  0  0
 13 34  1  0  0  0  0
M  END
> <FRED Chemgauss4 score>
-6.198068

$$$$
C39053924	P59169126
  -OEChem-05182014473D

 16 16  0     0  0  0  0  0  0999 V2000
  121.2020  106.7297  105.3883 C   0  0  0  0  0  0  0  0  0  0  0  0
  123.1951  106.8168  106.0021 C   0  0  0  0  0  0  0  0  0  0  0  0
  120.4107  104.5848  106.5144 C   0  0  0  0  0  0  0  0  0  0  0  0
  122.3318  107.4883  105.2759 N   0  0  0  0  0  0  0  0  0  0  0  0
  122.5960  105.7105  106.5188 N   0  0  0  0  0  0  0  0  0  0  0  0
  121.3119  105.6312  106.1384 N   0  0  0  0  0  0  0  0  0  0  0  0
  124.7168  108.2217  107.6801 N   0  0  0  0  0  0  0  0  0  0  0  0
  125.6095  106.0552  106.6055 O   0  0  0  0  0  0  0  0  0  0  0  0
  125.3018  108.1055  105.1739 O   0  0  0  0  0  0  0  0  0  0  0  0
  124.8128  107.2473  106.2671 S   0  0  0  0  0  0  0  0  0  0  0  0
  120.2764  107.0048  104.8985 H   0  0  0  0  0  0  0  0  0  0  0  0
  120.4807  103.7933  105.7636 H   0  0  0  0  0  0  0  0  0  0  0  0
  120.6883  104.2021  107.5005 H   0  0  0  0  0  0  0  0  0  0  0  0
  119.3930  104.9827  106.5583 H   0  0  0  0  0  0  0  0  0  0  0  0
  125.0653  107.8358  108.5662 H   0  0  0  0  0  0  0  0  0  0  0  0
  124.8534  109.2355  107.5866 H   0  0  0  0  0  0  0  0  0  0  0  0
  1  4  2  0  0  0  0
  1  6  1  0  0  0  0
  2  4  1  0  0  0  0
  2  5  2  0  0  0  0
  2 10  1  0  0  0  0
  3  6  1  0  0  0  0
  5  6  1  0  0  0  0
  7 10  1  0  0  0  0
  8 10  2  0  0  0  0
  9 10  2  0  0  0  0
  1 11  1  0  0  0  0
  3 12  1  0  0  0  0
  3 13  1  0  0  0  0
  3 14  1  0  0  0  0
  7 15  1  0  0  0  0
  7 16  1  0  0  0  0
M  END
> <FRED Chemgauss4 score>
-6.196608

$$$$
C88001803	P137647695
  -OEChem-05182014473D

 26 26  0     1  0  0  0  0  0999 V2000
  121.7899  106.2261  105.4675 C   0  0  0  0  0  0  0  0  0  0  0  0
  123.6900  106.6828  106.2013 C   0  0  0  0  0  0  0  0  0  0  0  0
  119.6385  107.4437  105.0486 C   0  0  0  0  0  0  0  0  0  0  0  0
  126.6188  104.9707  108.9639 C   0  0  0  0  0  0  0  0  0  0  0  0
  120.5747  106.2942  104.6476 C   0  0  0  0  0  0  0  0  0  0  0  0
  126.0249  106.1828  107.0401 C   0  0  0  0  0  0  0  0  0  0  0  0
  125.0619  107.2456  106.5043 C   0  0  1  0  0  0  0  0  0  0  0  0
  122.8386  107.0815  105.2849 N   0  0  0  0  0  0  0  0  0  0  0  0
  121.9389  105.3233  106.4392 N   0  0  0  0  0  0  0  0  0  0  0  0
  123.1622  105.6371  106.8924 N   0  0  0  0  0  0  0  0  0  0  0  0
  125.6182  107.8979  105.3382 N   0  0  0  0  0  0  0  0  0  0  0  0
  125.7422  105.9441  108.4151 O   0  0  0  0  0  0  0  0  0  0  0  0
  119.3721  107.3719  106.1086 H   0  0  0  0  0  0  0  0  0  0  0  0
  118.7128  107.4307  104.4648 H   0  0  0  0  0  0  0  0  0  0  0  0
  120.1264  108.4113  104.8895 H   0  0  0  0  0  0  0  0  0  0  0  0
  126.3749  104.8121  110.0172 H   0  0  0  0  0  0  0  0  0  0  0  0
  127.6521  105.3130  108.8656 H   0  0  0  0  0  0  0  0  0  0  0  0
  126.4944  104.0324  108.4181 H   0  0  0  0  0  0  0  0  0  0  0  0
  120.8157  106.4091  103.5698 H   0  0  0  0  0  0  0  0  0  0  0  0
  119.9957  105.3479  104.6972 H   0  0  0  0  0  0  0  0  0  0  0  0
  125.8975  105.2346  106.5062 H   0  0  0  0  0  0  0  0  0  0  0  0
  127.0709  106.4966  106.9536 H   0  0  0  0  0  0  0  0  0  0  0  0
  124.9724  108.0411  107.2550 H   0  0  0  0  0  0  0  0  0  0  0  0
  123.5585  105.1039  107.6575 H   0  0  0  0  0  0  0  0  0  0  0  0
  126.6116  108.0263  105.2855 H   0  0  0  0  0  0  0  0  0  0  0  0
  124.9986  108.3826  104.7156 H   0  0  0  0  0  0  0  0  0  0  0  0
  1  5  1  0  0  0  0
  1  8  1  0  0  0  0
  1  9  2  0  0  0  0
  2  7  1  0  0  0  0
  2  8  2  0  0  0  0
  2 10  1  0  0  0  0
  3  5  1  0  0  0  0
  4 12  1  0  0  0  0
  6  7  1  0  0  0  0
  6 12  1  0  0  0  0
  7 11  1  0  0  0  0
  9 10  1  0  0  0  0
  3 13  1  0  0  0  0
  3 14  1  0  0  0  0
  3 15  1  0  0  0  0
  4 16  1  0  0  0  0
  4 17  1  0  0  0  0
  4 18  1  0  0  0  0
  5 19  1  0  0  0  0
  5 20  1  0  0  0  0
  6 21  1  0  0  0  0
  6 22  1  0  0  0  0
  7 23  1  0  0  0  0
 10 24  1  0  0  0  0
 11 25  1  0  0  0  0
 11 26  1  0  0  0  0
M  END
> <FRED Chemgauss4 score>
-6.194182

$$$$
C95869685	P150893526
  -OEChem-05182014473D

 16 16  0     1  0  0  0  0  0999 V2000
  125.4448  106.2037  108.2622 C   0  0  0  0  0  0  0  0  0  0  0  0
  123.9930  106.9743  106.3128 C   0  0  0  0  0  0  0  0  0  0  0  0
  124.2079  104.6260  107.0634 C   0  0  0  0  0  0  0  0  0  0  0  0
  125.0635  107.3150  107.3091 C   0  0  2  0  0  0  0  0  0  0  0  0
  125.0417  104.9776  108.0987 N   0  0  0  0  0  0  0  0  0  0  0  0
  123.6806  105.6302  106.2561 N   0  0  0  0  0  0  0  0  0  0  0  0
  126.2492  106.5615  109.3188 N   0  0  0  0  0  0  0  0  0  0  0  0
  126.2598  107.6559  106.5411 N   0  0  0  0  0  0  0  0  0  0  0  0
  123.4770  107.8205  105.5845 O   0  0  0  0  0  0  0  0  0  0  0  0
  123.9065  103.4502  106.8496 O   0  0  0  0  0  0  0  0  0  0  0  0
  124.7271  108.1789  107.8937 H   0  0  0  0  0  0  0  0  0  0  0  0
  122.9996  105.3467  105.5572 H   0  0  0  0  0  0  0  0  0  0  0  0
  126.5272  107.5104  109.3926 H   0  0  0  0  0  0  0  0  0  0  0  0
  126.5166  105.8553  109.9614 H   0  0  0  0  0  0  0  0  0  0  0  0
  127.1416  107.6037  107.0016 H   0  0  0  0  0  0  0  0  0  0  0  0
  126.1379  108.1166  105.6662 H   0  0  0  0  0  0  0  0  0  0  0  0
  1  4  1  0  0  0  0
  1  5  2  0  0  0  0
  1  7  1  0  0  0  0
  2  4  1  0  0  0  0
  2  6  1  0  0  0  0
  2  9  2  0  0  0  0
  3  5  1  0  0  0  0
  3  6  1  0  0  0  0
  3 10  2  0  0  0  0
  4  8  1  0  0  0  0
  4 11  1  0  0  0  0
  6 12  1  0  0  0  0
  7 13  1  0  0  0  0
  7 14  1  0  0  0  0
  8 15  1  0  0  0  0
  8 16  1  0  0  0  0
M  END
> <FRED Chemgauss4 score>
-6.194027

$$$$
C72210807	P112191516
  -OEChem-05182014473D

 17 17  0     0  0  0  0  0  0999 V2000
  124.0061  105.0100  106.1277 C   0  0  0  0  0  0  0  0  0  0  0  0
  125.4169  104.0364  107.7324 C   0  0  0  0  0  0  0  0  0  0  0  0
  125.5251  106.3955  107.3504 C   0  0  0  0  0  0  0  0  0  0  0  0
  124.5293  106.2689  106.3867 C   0  0  0  0  0  0  0  0  0  0  0  0
  125.9769  105.2700  108.0329 C   0  0  0  0  0  0  0  0  0  0  0  0
  124.4593  103.9429  106.7997 N   0  3  0  0  0  0  0  0  0  0  0  0
  126.0749  107.6687  107.6306 N   0  0  0  0  0  0  0  0  0  0  0  0
  125.0374  108.0127  104.6159 O   0  5  0  0  0  0  0  0  0  0  0  0
  122.7352  107.1497  104.7670 O   0  0  0  0  0  0  0  0  0  0  0  0
  123.6009  108.6269  106.5363 O   0  0  0  0  0  0  0  0  0  0  0  0
  123.9175  107.6407  105.4927 S   0  0  0  0  0  0  0  0  0  0  0  0
  127.2055  105.3547  109.2383 Cl  0  0  0  0  0  0  0  0  0  0  0  0
  123.2321  104.8085  105.3995 H   0  0  0  0  0  0  0  0  0  0  0  0
  125.6973  103.1044  108.2047 H   0  0  0  0  0  0  0  0  0  0  0  0
  124.0619  103.0271  106.5928 H   0  0  0  0  0  0  0  0  0  0  0  0
  125.7713  108.4546  107.0961 H   0  0  0  0  0  0  0  0  0  0  0  0
  126.8207  107.7385  108.2897 H   0  0  0  0  0  0  0  0  0  0  0  0
  1  4  1  0  0  0  0
  1  6  2  0  0  0  0
  2  5  2  0  0  0  0
  2  6  1  0  0  0  0
  3  4  2  0  0  0  0
  3  5  1  0  0  0  0
  3  7  1  0  0  0  0
  4 11  1  0  0  0  0
  5 12  1  0  0  0  0
  8 11  1  0  0  0  0
  9 11  2  0  0  0  0
 10 11  2  0  0  0  0
  1 13  1  0  0  0  0
  2 14  1  0  0  0  0
  6 15  1  0  0  0  0
  7 16  1  0  0  0  0
  7 17  1  0  0  0  0
M  CHG  2   6   1   8  -1
M  END
> <FRED Chemgauss4 score>
-6.192881

$$$$
C85004486	P133054956
  -OEChem-05182014473D

 24 24  0     1  0  0  0  0  0999 V2000
  123.2932  108.2889  108.1260 C   0  0  0  0  0  0  0  0  0  0  0  0
  122.5630  108.6044  110.1454 C   0  0  0  0  0  0  0  0  0  0  0  0
  123.8852  105.8773  106.8676 C   0  0  0  0  0  0  0  0  0  0  0  0
  124.2352  108.3559  106.9662 C   0  0  0  0  0  0  0  0  0  0  0  0
  125.2584  106.9734  105.0332 C   0  0  0  0  0  0  0  0  0  0  0  0
  124.0899  107.1458  106.0271 C   0  0  1  0  0  0  0  0  0  0  0  0
  122.1224  107.7239  108.0955 N   0  0  0  0  0  0  0  0  0  0  0  0
  123.6326  108.8377  109.3101 N   0  0  0  0  0  0  0  0  0  0  0  0
  121.6365  107.9073  109.3588 N   0  0  0  0  0  0  0  0  0  0  0  0
  125.5252  108.1592  104.2284 N   0  0  0  0  0  0  0  0  0  0  0  0
  122.4419  108.9307  111.3162 O   0  0  0  0  0  0  0  0  0  0  0  0
  122.8921  107.3411  105.2620 O   0  0  0  0  0  0  0  0  0  0  0  0
  123.7784  104.9975  106.2223 H   0  0  0  0  0  0  0  0  0  0  0  0
  124.7189  105.7003  107.5544 H   0  0  0  0  0  0  0  0  0  0  0  0
  122.9610  105.9419  107.4534 H   0  0  0  0  0  0  0  0  0  0  0  0
  123.9986  109.2811  106.4273 H   0  0  0  0  0  0  0  0  0  0  0  0
  125.2533  108.4375  107.3605 H   0  0  0  0  0  0  0  0  0  0  0  0
  125.0397  106.1357  104.3590 H   0  0  0  0  0  0  0  0  0  0  0  0
  126.1706  106.6806  105.5670 H   0  0  0  0  0  0  0  0  0  0  0  0
  124.4936  109.3202  109.5374 H   0  0  0  0  0  0  0  0  0  0  0  0
  120.7333  107.5846  109.6816 H   0  0  0  0  0  0  0  0  0  0  0  0
  124.7473  108.6932  103.9030 H   0  0  0  0  0  0  0  0  0  0  0  0
  126.4454  108.2830  103.8618 H   0  0  0  0  0  0  0  0  0  0  0  0
  122.1774  107.4398  105.9060 H   0  0  0  0  0  0  0  0  0  0  0  0
  1  4  1  0  0  0  0
  1  7  2  0  0  0  0
  1  8  1  0  0  0  0
  2  8  1  0  0  0  0
  2  9  1  0  0  0  0
  2 11  2  0  0  0  0
  3  6  1  0  0  0  0
  4  6  1  0  0  0  0
  5  6  1  0  0  0  0
  5 10  1  0  0  0  0
  6 12  1  0  0  0  0
  7  9  1  0  0  0  0
  3 13  1  0  0  0  0
  3 14  1  0  0  0  0
  3 15  1  0  0  0  0
  4 16  1  0  0  0  0
  4 17  1  0  0  0  0
  5 18  1  0  0  0  0
  5 19  1  0  0  0  0
  8 20  1  0  0  0  0
  9 21  1  0  0  0  0
 10 22  1  0  0  0  0
 10 23  1  0  0  0  0
 12 24  1  0  0  0  0
M  END
> <FRED Chemgauss4 score>
-6.192037

$$$$
AOC	P10000032
  -OEChem-05182014473D

 15 15  0     0  0  0  0  0  0999 V2000
  124.5070  107.2962  105.5015 C   0  0  0  0  0  0  0  0  0  0  0  0
  123.9201  107.8609  107.9262 C   0  0  0  0  0  0  0  0  0  0  0  0
  125.1397  106.2082  107.7290 C   0  0  0  0  0  0  0  0  0  0  0  0
  124.9891  107.4847  106.8946 C   0  0  0  0  0  0  0  0  0  0  0  0
  126.1783  108.3531  106.9742 N   0  3  0  0  0  0  0  0  0  0  0  0
  125.3960  106.9867  104.6607 O   0  5  0  0  0  0  0  0  0  0  0  0
  123.2664  107.4714  105.3421 O   0  0  0  0  0  0  0  0  0  0  0  0
  123.9857  106.5486  108.5350 O   0  0  0  0  0  0  0  0  0  0  0  0
  124.1939  108.6404  108.6450 H   0  0  0  0  0  0  0  0  0  0  0  0
  122.9197  108.0723  107.5354 H   0  0  0  0  0  0  0  0  0  0  0  0
  124.9942  105.2613  107.1995 H   0  0  0  0  0  0  0  0  0  0  0  0
  126.0419  106.1371  108.3457 H   0  0  0  0  0  0  0  0  0  0  0  0
  126.6579  108.4177  106.0663 H   0  0  0  0  0  0  0  0  0  0  0  0
  126.8589  107.9956  107.6581 H   0  0  0  0  0  0  0  0  0  0  0  0
  125.9270  109.3092  107.2594 H   0  0  0  0  0  0  0  0  0  0  0  0
  1  4  1  0  0  0  0
  1  6  1  0  0  0  0
  1  7  2  0  0  0  0
  2  4  1  0  0  0  0
  2  8  1  0  0  0  0
  3  4  1  0  0  0  0
  3  8  1  0  0  0  0
  4  5  1  0  0  0  0
  2  9  1  0  0  0  0
  2 10  1  0  0  0  0
  3 11  1  0  0  0  0
  3 12  1  0  0  0  0
  5 13  1  0  0  0  0
  5 14  1  0  0  0  0
  5 15  1  0  0  0  0
M  CHG  2   5   1   6  -1
M  END
> <FRED Chemgauss4 score>
-6.188091

$$$$
C39065006	P59185477
  -OEChem-05182014473D

 20 20  0     0  0  0  0  0  0999 V2000
  123.0600  105.9436  106.9875 C   0  0  0  0  0  0  0  0  0  0  0  0
  124.3842  106.2530  106.7940 C   0  0  0  0  0  0  0  0  0  0  0  0
  124.3856  107.1107  105.6777 C   0  0  0  0  0  0  0  0  0  0  0  0
  125.4711  105.7709  107.5936 C   0  0  0  0  0  0  0  0  0  0  0  0
  120.9472  106.5931  105.8071 C   0  0  0  0  0  0  0  0  0  0  0  0
  123.1597  107.3319  105.1958 N   0  0  0  0  0  0  0  0  0  0  0  0
  122.3756  106.6086  106.0131 N   0  0  0  0  0  0  0  0  0  0  0  0
  125.5357  107.6345  105.1778 N   0  0  0  0  0  0  0  0  0  0  0  0
  126.1409  104.3857  109.4618 N   0  0  0  0  0  0  0  0  0  0  0  0
  125.1451  104.9125  108.6597 N   0  0  0  0  0  0  0  0  0  0  0  0
  126.6721  106.0556  107.3750 O   0  0  0  0  0  0  0  0  0  0  0  0
  122.5576  105.3224  107.7169 H   0  0  0  0  0  0  0  0  0  0  0  0
  120.5135  107.4105  106.3893 H   0  0  0  0  0  0  0  0  0  0  0  0
  120.7313  106.7251  104.7432 H   0  0  0  0  0  0  0  0  0  0  0  0
  120.5447  105.6315  106.1375 H   0  0  0  0  0  0  0  0  0  0  0  0
  126.4442  107.4636  105.6227 H   0  0  0  0  0  0  0  0  0  0  0  0
  125.5303  108.2964  104.3938 H   0  0  0  0  0  0  0  0  0  0  0  0
  125.8320  103.4556  109.7418 H   0  0  0  0  0  0  0  0  0  0  0  0
  126.9548  104.2433  108.8653 H   0  0  0  0  0  0  0  0  0  0  0  0
  124.1749  104.6790  108.8409 H   0  0  0  0  0  0  0  0  0  0  0  0
  1  2  2  0  0  0  0
  1  7  1  0  0  0  0
  2  3  1  0  0  0  0
  2  4  1  0  0  0  0
  3  6  2  0  0  0  0
  3  8  1  0  0  0  0
  4 10  1  0  0  0  0
  4 11  2  0  0  0  0
  5  7  1  0  0  0  0
  6  7  1  0  0  0  0
  9 10  1  0  0  0  0
  1 12  1  0  0  0  0
  5 13  1  0  0  0  0
  5 14  1  0  0  0  0
  5 15  1  0  0  0  0
  8 16  1  0  0  0  0
  8 17  1  0  0  0  0
  9 18  1  0  0  0  0
  9 19  1  0  0  0  0
 10 20  1  0  0  0  0
M  END
> <FRED Chemgauss4 score>
-6.186178

$$$$
C82915337	P129630570
  -OEChem-05182014473D

 36 36  0     1  0  0  0  0  0999 V2000
  121.3940  105.0581  104.4181 C   0  0  0  0  0  0  0  0  0  0  0  0
  120.1957  104.5617  106.4464 C   0  0  0  0  0  0  0  0  0  0  0  0
  120.0545  105.1782  103.6828 C   0  0  1  0  0  0  0  0  0  0  0  0
  118.8785  104.6904  105.6731 C   0  0  2  0  0  0  0  0  0  0  0  0
  120.1869  104.7460  102.2288 C   0  0  0  0  0  0  0  0  0  0  0  0
  117.8153  103.7617  106.2435 C   0  0  0  0  0  0  0  0  0  0  0  0
  124.3944  106.6519  107.5923 C   0  0  0  0  0  0  0  0  0  0  0  0
  122.4849  105.3162  106.5546 C   0  0  0  0  0  0  0  0  0  0  0  0
  124.1090  106.6524  105.0565 C   0  0  0  0  0  0  0  0  0  0  0  0
  123.4023  106.5523  106.4258 C   0  0  2  0  0  0  0  0  0  0  0  0
  121.2186  105.4206  105.8321 N   0  0  0  0  0  0  0  0  0  0  0  0
  125.1416  107.6763  104.9693 N   0  0  0  0  0  0  0  0  0  0  0  0
  119.0821  104.3295  104.3026 O   0  0  0  0  0  0  0  0  0  0  0  0
  122.5505  107.7099  106.5022 O   0  0  0  0  0  0  0  0  0  0  0  0
  121.7752  104.0311  104.3370 H   0  0  0  0  0  0  0  0  0  0  0  0
  122.1245  105.7271  103.9475 H   0  0  0  0  0  0  0  0  0  0  0  0
  120.0323  104.8602  107.4889 H   0  0  0  0  0  0  0  0  0  0  0  0
  120.5311  103.5157  106.4432 H   0  0  0  0  0  0  0  0  0  0  0  0
  119.6904  106.2136  103.7089 H   0  0  0  0  0  0  0  0  0  0  0  0
  118.5035  105.7213  105.7170 H   0  0  0  0  0  0  0  0  0  0  0  0
  120.5478  103.7185  102.1756 H   0  0  0  0  0  0  0  0  0  0  0  0
  120.8920  105.3951  101.7087 H   0  0  0  0  0  0  0  0  0  0  0  0
  119.2184  104.8063  101.7313 H   0  0  0  0  0  0  0  0  0  0  0  0
  118.1644  102.7292  106.2110 H   0  0  0  0  0  0  0  0  0  0  0  0
  116.8971  103.8422  105.6609 H   0  0  0  0  0  0  0  0  0  0  0  0
  117.6013  104.0296  107.2786 H   0  0  0  0  0  0  0  0  0  0  0  0
  125.0350  107.5346  107.4817 H   0  0  0  0  0  0  0  0  0  0  0  0
  125.0398  105.7723  107.6731 H   0  0  0  0  0  0  0  0  0  0  0  0
  123.8617  106.7771  108.5421 H   0  0  0  0  0  0  0  0  0  0  0  0
  123.0249  104.4243  106.2123 H   0  0  0  0  0  0  0  0  0  0  0  0
  122.2644  105.1351  107.6139 H   0  0  0  0  0  0  0  0  0  0  0  0
  124.5518  105.6806  104.8028 H   0  0  0  0  0  0  0  0  0  0  0  0
  123.3594  106.8415  104.2779 H   0  0  0  0  0  0  0  0  0  0  0  0
  125.3465  108.0659  104.0729 H   0  0  0  0  0  0  0  0  0  0  0  0
  125.7440  107.8080  105.7550 H   0  0  0  0  0  0  0  0  0  0  0  0
  121.9341  107.6310  105.7627 H   0  0  0  0  0  0  0  0  0  0  0  0
  1  3  1  0  0  0  0
  1 11  1  0  0  0  0
  2  4  1  0  0  0  0
  2 11  1  0  0  0  0
  3  5  1  0  0  0  0
  3 13  1  0  0  0  0
  4  6  1  0  0  0  0
  4 13  1  0  0  0  0
  7 10  1  0  0  0  0
  8 10  1  0  0  0  0
  8 11  1  0  0  0  0
  9 10  1  0  0  0  0
  9 12  1  0  0  0  0
 10 14  1  0  0  0  0
  1 15  1  0  0  0  0
  1 16  1  0  0  0  0
  2 17  1  0  0  0  0
  2 18  1  0  0  0  0
  3 19  1  0  0  0  0
  4 20  1  0  0  0  0
  5 21  1  0  0  0  0
  5 22  1  0  0  0  0
  5 23  1  0  0  0  0
  6 24  1  0  0  0  0
  6 25  1  0  0  0  0
  6 26  1  0  0  0  0
  7 27  1  0  0  0  0
  7 28  1  0  0  0  0
  7 29  1  0  0  0  0
  8 30  1  0  0  0  0
  8 31  1  0  0  0  0
  9 32  1  0  0  0  0
  9 33  1  0  0  0  0
 12 34  1  0  0  0  0
 12 35  1  0  0  0  0
 14 36  1  0  0  0  0
M  END
> <FRED Chemgauss4 score>
-6.185273

$$$$
C38523819	P132606343
  -OEChem-05182014473D

 26 26  0     0  0  0  0  0  0999 V2000
  124.7727  105.2367  107.3777 C   0  0  0  0  0  0  0  0  0  0  0  0
  123.4679  104.9768  107.4837 C   0  0  0  0  0  0  0  0  0  0  0  0
  125.2402  106.1698  106.3328 C   0  0  0  0  0  0  0  0  0  0  0  0
  122.8616  106.4361  105.6371 C   0  0  0  0  0  0  0  0  0  0  0  0
  121.1219  105.1695  106.8799 C   0  0  0  0  0  0  0  0  0  0  0  0
  120.6839  104.1763  105.8191 C   0  0  0  0  0  0  0  0  0  0  0  0
  117.0066  104.2953  105.8453 C   0  0  0  0  0  0  0  0  0  0  0  0
  118.4226  104.7708  105.5828 C   0  0  0  0  0  0  0  0  0  0  0  0
  124.2345  106.6992  105.5390 N   0  0  0  0  0  0  0  0  0  0  0  0
  122.5153  105.5386  106.6588 N   0  0  0  0  0  0  0  0  0  0  0  0
  126.4329  106.4305  106.2088 O   0  0  0  0  0  0  0  0  0  0  0  0
  122.0550  106.9680  104.8715 O   0  0  0  0  0  0  0  0  0  0  0  0
  116.7900  103.0748  105.1476 O   0  0  0  0  0  0  0  0  0  0  0  0
  119.3361  103.7923  106.0595 O   0  0  0  0  0  0  0  0  0  0  0  0
  125.5031  104.7828  108.0360 H   0  0  0  0  0  0  0  0  0  0  0  0
  123.1031  104.2943  108.2442 H   0  0  0  0  0  0  0  0  0  0  0  0
  120.5161  106.0805  106.8449 H   0  0  0  0  0  0  0  0  0  0  0  0
  121.0410  104.7235  107.8758 H   0  0  0  0  0  0  0  0  0  0  0  0
  121.3054  103.2768  105.8684 H   0  0  0  0  0  0  0  0  0  0  0  0
  120.7542  104.6040  104.8136 H   0  0  0  0  0  0  0  0  0  0  0  0
  116.2731  105.0256  105.4904 H   0  0  0  0  0  0  0  0  0  0  0  0
  116.8565  104.1109  106.9131 H   0  0  0  0  0  0  0  0  0  0  0  0
  118.6265  105.7107  106.1052 H   0  0  0  0  0  0  0  0  0  0  0  0
  118.5897  104.9018  104.5097 H   0  0  0  0  0  0  0  0  0  0  0  0
  124.5212  107.3462  104.8097 H   0  0  0  0  0  0  0  0  0  0  0  0
  115.8782  102.8025  105.3384 H   0  0  0  0  0  0  0  0  0  0  0  0
  1  2  2  0  0  0  0
  1  3  1  0  0  0  0
  2 10  1  0  0  0  0
  3  9  1  0  0  0  0
  3 11  2  0  0  0  0
  4  9  1  0  0  0  0
  4 10  1  0  0  0  0
  4 12  2  0  0  0  0
  5  6  1  0  0  0  0
  5 10  1  0  0  0  0
  6 14  1  0  0  0  0
  7  8  1  0  0  0  0
  7 13  1  0  0  0  0
  8 14  1  0  0  0  0
  1 15  1  0  0  0  0
  2 16  1  0  0  0  0
  5 17  1  0  0  0  0
  5 18  1  0  0  0  0
  6 19  1  0  0  0  0
  6 20  1  0  0  0  0
  7 21  1  0  0  0  0
  7 22  1  0  0  0  0
  8 23  1  0  0  0  0
  8 24  1  0  0  0  0
  9 25  1  0  0  0  0
 13 26  1  0  0  0  0
M  END
> <FRED Chemgauss4 score>
-6.183899

$$$$
C44776899	P67529880
  -OEChem-05182014473D

 41 41  0     0  0  0  0  0  0999 V2000
  122.6669  106.1504  106.4582 C   0  0  0  0  0  0  0  0  0  0  0  0
  125.1820  106.2461  107.1730 C   0  0  0  0  0  0  0  0  0  0  0  0
  118.1282  105.5135  105.7381 C   0  0  0  0  0  0  0  0  0  0  0  0
  118.6969  105.7542  104.3438 C   0  0  0  0  0  0  0  0  0  0  0  0
  118.6937  104.2995  106.4735 C   0  0  0  0  0  0  0  0  0  0  0  0
  120.2182  105.8764  104.2704 C   0  0  0  0  0  0  0  0  0  0  0  0
  120.1239  104.5197  106.9589 C   0  0  0  0  0  0  0  0  0  0  0  0
  120.9283  104.5398  104.4805 C   0  0  0  0  0  0  0  0  0  0  0  0
  121.2167  104.1781  105.9410 C   0  0  0  0  0  0  0  0  0  0  0  0
  124.4384  106.5597  104.7113 C   0  0  0  0  0  0  0  0  0  0  0  0
  124.0095  108.2833  106.4334 C   0  0  0  0  0  0  0  0  0  0  0  0
  123.5127  103.7956  106.6814 C   0  0  0  0  0  0  0  0  0  0  0  0
  124.0844  106.7468  106.2055 C   0  0  0  0  0  0  0  0  0  0  0  0
  124.7746  105.9027  108.4370 N   0  0  0  0  0  0  0  0  0  0  0  0
  122.4709  104.7676  106.3633 N   0  0  0  0  0  0  0  0  0  0  0  0
  121.7323  106.9176  106.7267 O   0  0  0  0  0  0  0  0  0  0  0  0
  126.7825  105.9931  106.7210 S   0  0  0  0  0  0  0  0  0  0  0  0
  118.2715  106.4138  106.3486 H   0  0  0  0  0  0  0  0  0  0  0  0
  117.0430  105.3831  105.6411 H   0  0  0  0  0  0  0  0  0  0  0  0
  118.3591  104.9555  103.6716 H   0  0  0  0  0  0  0  0  0  0  0  0
  118.2574  106.6819  103.9562 H   0  0  0  0  0  0  0  0  0  0  0  0
  118.0638  104.1326  107.3567 H   0  0  0  0  0  0  0  0  0  0  0  0
  118.6149  103.3940  105.8611 H   0  0  0  0  0  0  0  0  0  0  0  0
  120.4664  106.2311  103.2619 H   0  0  0  0  0  0  0  0  0  0  0  0
  120.5850  106.6399  104.9657 H   0  0  0  0  0  0  0  0  0  0  0  0
  120.2377  105.5532  107.3127 H   0  0  0  0  0  0  0  0  0  0  0  0
  120.2906  103.8941  107.8466 H   0  0  0  0  0  0  0  0  0  0  0  0
  120.3341  103.7388  104.0224 H   0  0  0  0  0  0  0  0  0  0  0  0
  121.8760  104.5582  103.9258 H   0  0  0  0  0  0  0  0  0  0  0  0
  121.3878  103.0937  105.9725 H   0  0  0  0  0  0  0  0  0  0  0  0
  125.4308  106.9638  104.4772 H   0  0  0  0  0  0  0  0  0  0  0  0
  123.7206  107.0780  104.0648 H   0  0  0  0  0  0  0  0  0  0  0  0
  124.4605  105.5100  104.4072 H   0  0  0  0  0  0  0  0  0  0  0  0
  124.9816  108.7637  106.2699 H   0  0  0  0  0  0  0  0  0  0  0  0
  123.2977  108.7583  105.7478 H   0  0  0  0  0  0  0  0  0  0  0  0
  123.6953  108.5191  107.4572 H   0  0  0  0  0  0  0  0  0  0  0  0
  123.4626  103.5236  107.7389 H   0  0  0  0  0  0  0  0  0  0  0  0
  124.4996  104.2175  106.4729 H   0  0  0  0  0  0  0  0  0  0  0  0
  123.3835  102.8923  106.0792 H   0  0  0  0  0  0  0  0  0  0  0  0
  123.7990  105.9816  108.7047 H   0  0  0  0  0  0  0  0  0  0  0  0
  125.4075  105.5641  109.1529 H   0  0  0  0  0  0  0  0  0  0  0  0
  1 13  1  0  0  0  0
  1 15  1  0  0  0  0
  1 16  2  0  0  0  0
  2 13  1  0  0  0  0
  2 14  1  0  0  0  0
  2 17  2  0  0  0  0
  3  4  1  0  0  0  0
  3  5  1  0  0  0  0
  4  6  1  0  0  0  0
  5  7  1  0  0  0  0
  6  8  1  0  0  0  0
  7  9  1  0  0  0  0
  8  9  1  0  0  0  0
  9 15  1  0  0  0  0
 10 13  1  0  0  0  0
 11 13  1  0  0  0  0
 12 15  1  0  0  0  0
  3 18  1  0  0  0  0
  3 19  1  0  0  0  0
  4 20  1  0  0  0  0
  4 21  1  0  0  0  0
  5 22  1  0  0  0  0
  5 23  1  0  0  0  0
  6 24  1  0  0  0  0
  6 25  1  0  0  0  0
  7 26  1  0  0  0  0
  7 27  1  0  0  0  0
  8 28  1  0  0  0  0
  8 29  1  0  0  0  0
  9 30  1  0  0  0  0
 10 31  1  0  0  0  0
 10 32  1  0  0  0  0
 10 33  1  0  0  0  0
 11 34  1  0  0  0  0
 11 35  1  0  0  0  0
 11 36  1  0  0  0  0
 12 37  1  0  0  0  0
 12 38  1  0  0  0  0
 12 39  1  0  0  0  0
 14 40  1  0  0  0  0
 14 41  1  0  0  0  0
M  END
> <FRED Chemgauss4 score>
-6.183694

$$$$
C08681527	P57121907
  -OEChem-05182014473D

 21 22  0     1  0  0  0  0  0999 V2000
  126.1683  105.9595  106.8827 C   0  0  0  0  0  0  0  0  0  0  0  0
  125.2731  107.1048  107.3209 C   0  0  1  0  0  0  0  0  0  0  0  0
  124.2964  107.6000  106.2411 C   0  0  2  0  0  0  0  0  0  0  0  0
  123.4576  106.4555  105.6502 C   0  0  1  0  0  0  0  0  0  0  0  0
  123.0200  105.4754  106.7483 C   0  0  2  0  0  0  0  0  0  0  0  0
  124.1815  105.2134  107.7135 C   0  0  1  0  0  0  0  0  0  0  0  0
  125.3307  104.7950  106.9560 O   0  0  0  0  0  0  0  0  0  0  0  0
  124.5008  106.4632  108.3428 O   0  0  0  0  0  0  0  0  0  0  0  0
  125.0280  108.2478  105.2062 O   0  0  0  0  0  0  0  0  0  0  0  0
  122.3064  107.0104  105.0153 O   0  0  0  0  0  0  0  0  0  0  0  0
  122.6017  104.2593  106.1398 O   0  0  0  0  0  0  0  0  0  0  0  0
  126.5835  106.0706  105.8776 H   0  0  0  0  0  0  0  0  0  0  0  0
  126.9882  105.8091  107.5931 H   0  0  0  0  0  0  0  0  0  0  0  0
  125.8549  107.9363  107.7309 H   0  0  0  0  0  0  0  0  0  0  0  0
  123.6260  108.3470  106.6852 H   0  0  0  0  0  0  0  0  0  0  0  0
  124.0177  105.9377  104.8615 H   0  0  0  0  0  0  0  0  0  0  0  0
  122.1608  105.8900  107.2896 H   0  0  0  0  0  0  0  0  0  0  0  0
  123.9387  104.4522  108.4608 H   0  0  0  0  0  0  0  0  0  0  0  0
  125.4945  108.9916  105.6192 H   0  0  0  0  0  0  0  0  0  0  0  0
  121.8167  107.4868  105.7028 H   0  0  0  0  0  0  0  0  0  0  0  0
  122.3332  103.6657  106.8591 H   0  0  0  0  0  0  0  0  0  0  0  0
  1  2  1  0  0  0  0
  1  7  1  0  0  0  0
  2  3  1  0  0  0  0
  2  8  1  0  0  0  0
  3  4  1  0  0  0  0
  3  9  1  0  0  0  0
  4  5  1  0  0  0  0
  4 10  1  0  0  0  0
  5  6  1  0  0  0  0
  5 11  1  0  0  0  0
  6  7  1  0  0  0  0
  6  8  1  0  0  0  0
  1 12  1  0  0  0  0
  1 13  1  0  0  0  0
  2 14  1  0  0  0  0
  3 15  1  0  0  0  0
  4 16  1  0  0  0  0
  5 17  1  0  0  0  0
  6 18  1  0  0  0  0
  9 19  1  0  0  0  0
 10 20  1  0  0  0  0
 11 21  1  0  0  0  0
M  END
> <FRED Chemgauss4 score>
-6.182978

$$$$
C78564008	P122600660
  -OEChem-05182014473D

 40 42  0     0  0  0  0  0  0999 V2000
  125.1258  107.1903  106.2897 C   0  0  0  0  0  0  0  0  0  0  0  0
  123.8456  107.5177  105.8400 C   0  0  0  0  0  0  0  0  0  0  0  0
  122.8981  105.8439  107.3008 C   0  0  0  0  0  0  0  0  0  0  0  0
  118.1259  104.7940  106.4546 C   0  0  0  0  0  0  0  0  0  0  0  0
  125.2910  106.1852  107.2491 C   0  0  0  0  0  0  0  0  0  0  0  0
  122.7331  106.8455  106.3447 C   0  0  0  0  0  0  0  0  0  0  0  0
  124.1801  105.5172  107.7500 C   0  0  0  0  0  0  0  0  0  0  0  0
  118.2750  106.0166  105.8341 C   0  0  0  0  0  0  0  0  0  0  0  0
  117.1993  104.9657  104.2377 C   0  0  0  0  0  0  0  0  0  0  0  0
  126.6360  105.8248  107.7396 C   0  0  0  0  0  0  0  0  0  0  0  0
  125.5611  104.1187  109.2124 C   0  0  0  0  0  0  0  0  0  0  0  0
  121.4010  107.1887  105.8732 C   0  0  0  0  0  0  0  0  0  0  0  0
  115.1255  105.2955  102.8678 C   0  0  0  0  0  0  0  0  0  0  0  0
  128.0142  104.4043  109.2157 C   0  0  0  0  0  0  0  0  0  0  0  0
  118.9546  107.2203  106.4202 C   0  0  0  0  0  0  0  0  0  0  0  0
  116.5301  104.6912  102.9475 C   0  0  0  0  0  0  0  0  0  0  0  0
  117.7447  106.1168  104.5627 N   0  0  0  0  0  0  0  0  0  0  0  0
  124.3392  104.5133  108.7076 N   0  0  0  0  0  0  0  0  0  0  0  0
  126.6949  104.7953  108.7061 N   0  0  0  0  0  0  0  0  0  0  0  0
  120.3361  106.9540  106.7508 N   0  0  0  0  0  0  0  0  0  0  0  0
  127.6062  106.4292  107.2876 O   0  0  0  0  0  0  0  0  0  0  0  0
  121.2352  107.6495  104.7298 O   0  0  0  0  0  0  0  0  0  0  0  0
  125.5650  102.8877  110.3656 S   0  0  0  0  0  0  0  0  0  0  0  0
  117.2874  103.7192  105.4139 S   0  0  0  0  0  0  0  0  0  0  0  0
  125.9769  107.7277  105.8809 H   0  0  0  0  0  0  0  0  0  0  0  0
  123.7280  108.2997  105.0939 H   0  0  0  0  0  0  0  0  0  0  0  0
  122.0300  105.3196  107.6944 H   0  0  0  0  0  0  0  0  0  0  0  0
  118.4564  104.4876  107.4370 H   0  0  0  0  0  0  0  0  0  0  0  0
  114.4998  104.9356  103.6917 H   0  0  0  0  0  0  0  0  0  0  0  0
  114.6335  105.0289  101.9271 H   0  0  0  0  0  0  0  0  0  0  0  0
  115.1680  106.3881  102.9307 H   0  0  0  0  0  0  0  0  0  0  0  0
  128.2697  105.0021  110.0945 H   0  0  0  0  0  0  0  0  0  0  0  0
  128.7775  104.5619  108.4489 H   0  0  0  0  0  0  0  0  0  0  0  0
  128.0129  103.3478  109.4970 H   0  0  0  0  0  0  0  0  0  0  0  0
  118.9321  108.0581  105.7148 H   0  0  0  0  0  0  0  0  0  0  0  0
  118.4494  107.5508  107.3339 H   0  0  0  0  0  0  0  0  0  0  0  0
  117.1274  105.0787  102.1009 H   0  0  0  0  0  0  0  0  0  0  0  0
  116.4549  103.6029  102.7637 H   0  0  0  0  0  0  0  0  0  0  0  0
  123.5042  104.0469  109.0515 H   0  0  0  0  0  0  0  0  0  0  0  0
  120.5200  106.5177  107.6484 H   0  0  0  0  0  0  0  0  0  0  0  0
  1  2  2  0  0  0  0
  1  5  1  0  0  0  0
  2  6  1  0  0  0  0
  3  6  2  0  0  0  0
  3  7  1  0  0  0  0
  4  8  2  0  0  0  0
  4 24  1  0  0  0  0
  5  7  2  0  0  0  0
  5 10  1  0  0  0  0
  6 12  1  0  0  0  0
  7 18  1  0  0  0  0
  8 15  1  0  0  0  0
  8 17  1  0  0  0  0
  9 16  1  0  0  0  0
  9 17  2  0  0  0  0
  9 24  1  0  0  0  0
 10 19  1  0  0  0  0
 10 21  2  0  0  0  0
 11 18  1  0  0  0  0
 11 19  1  0  0  0  0
 11 23  2  0  0  0  0
 12 20  1  0  0  0  0
 12 22  2  0  0  0  0
 13 16  1  0  0  0  0
 14 19  1  0  0  0  0
 15 20  1  0  0  0  0
  1 25  1  0  0  0  0
  2 26  1  0  0  0  0
  3 27  1  0  0  0  0
  4 28  1  0  0  0  0
 13 29  1  0  0  0  0
 13 30  1  0  0  0  0
 13 31  1  0  0  0  0
 14 32  1  0  0  0  0
 14 33  1  0  0  0  0
 14 34  1  0  0  0  0
 15 35  1  0  0  0  0
 15 36  1  0  0  0  0
 16 37  1  0  0  0  0
 16 38  1  0  0  0  0
 18 39  1  0  0  0  0
 20 40  1  0  0  0  0
M  END
> <FRED Chemgauss4 score>
-6.181038

$$$$
C55060960	P82932939
  -OEChem-05182014473D

 47 49  0     1  0  0  0  0  0999 V2000
  116.2129  106.4864  103.7235 C   0  0  0  0  0  0  0  0  0  0  0  0
  114.8380  106.3310  103.9118 C   0  0  0  0  0  0  0  0  0  0  0  0
  115.2268  104.2961  105.1570 C   0  0  0  0  0  0  0  0  0  0  0  0
  117.1019  105.5457  104.2521 C   0  0  0  0  0  0  0  0  0  0  0  0
  116.6010  104.4543  104.9672 C   0  0  0  0  0  0  0  0  0  0  0  0
  114.3463  105.2383  104.6268 C   0  0  0  0  0  0  0  0  0  0  0  0
  118.5465  105.6730  104.0766 C   0  0  0  0  0  0  0  0  0  0  0  0
  119.3949  104.7666  104.5865 C   0  0  0  0  0  0  0  0  0  0  0  0
  118.8666  103.5916  105.3553 C   0  0  0  0  0  0  0  0  0  0  0  0
  121.6649  106.1368  106.4108 C   0  0  0  0  0  0  0  0  0  0  0  0
  126.5845  105.5935  108.3734 C   0  0  0  0  0  0  0  0  0  0  0  0
  122.0463  104.8508  109.9923 C   0  0  0  0  0  0  0  0  0  0  0  0
  121.3624  105.1494  108.6628 C   0  0  0  0  0  0  0  0  0  0  0  0
  123.4295  104.2336  109.7804 C   0  0  0  0  0  0  0  0  0  0  0  0
  123.6583  105.3231  107.6259 C   0  0  0  0  0  0  0  0  0  0  0  0
  122.2803  105.9793  107.7673 C   0  0  1  0  0  0  0  0  0  0  0  0
  120.8696  104.8660  104.4271 C   0  0  0  0  0  0  0  0  0  0  0  0
  125.6077  104.5190  108.7920 C   0  0  0  0  0  0  0  0  0  0  0  0
  117.4949  103.5098  105.4976 N   0  0  0  0  0  0  0  0  0  0  0  0
  124.2725  105.0973  108.9422 N   0  0  2  0  0  0  0  0  0  0  0  0
  127.1587  106.2290  109.4534 N   0  0  0  0  0  0  0  0  0  0  0  0
  121.4539  104.9435  105.7468 N   0  0  0  0  0  0  0  0  0  0  0  0
  119.6344  102.7541  105.8272 O   0  0  0  0  0  0  0  0  0  0  0  0
  121.3983  107.2582  105.9947 O   0  0  0  0  0  0  0  0  0  0  0  0
  126.8705  105.8425  107.2054 O   0  0  0  0  0  0  0  0  0  0  0  0
  113.0263  105.0946  104.8041 F   0  0  0  0  0  0  0  0  0  0  0  0
  116.5769  107.3442  103.1635 H   0  0  0  0  0  0  0  0  0  0  0  0
  114.1489  107.0629  103.5004 H   0  0  0  0  0  0  0  0  0  0  0  0
  114.8335  103.4490  105.7122 H   0  0  0  0  0  0  0  0  0  0  0  0
  118.9142  106.5282  103.5182 H   0  0  0  0  0  0  0  0  0  0  0  0
  122.1416  105.7782  110.5712 H   0  0  0  0  0  0  0  0  0  0  0  0
  121.4237  104.1690  110.5826 H   0  0  0  0  0  0  0  0  0  0  0  0
  121.1010  104.2056  108.1663 H   0  0  0  0  0  0  0  0  0  0  0  0
  120.4185  105.6793  108.8379 H   0  0  0  0  0  0  0  0  0  0  0  0
  123.8972  104.0997  110.7634 H   0  0  0  0  0  0  0  0  0  0  0  0
  123.3228  103.2372  109.3316 H   0  0  0  0  0  0  0  0  0  0  0  0
  123.5752  104.3795  107.0683 H   0  0  0  0  0  0  0  0  0  0  0  0
  124.2983  105.9852  107.0281 H   0  0  0  0  0  0  0  0  0  0  0  0
  122.3968  106.9848  108.1926 H   0  0  0  0  0  0  0  0  0  0  0  0
  121.1099  105.7631  103.8512 H   0  0  0  0  0  0  0  0  0  0  0  0
  121.2354  103.9814  103.8999 H   0  0  0  0  0  0  0  0  0  0  0  0
  125.8967  104.0806  109.7510 H   0  0  0  0  0  0  0  0  0  0  0  0
  125.5671  103.7422  108.0236 H   0  0  0  0  0  0  0  0  0  0  0  0
  117.1117  102.7233  106.0143 H   0  0  0  0  0  0  0  0  0  0  0  0
  126.9171  105.9648  110.4027 H   0  0  0  0  0  0  0  0  0  0  0  0
  127.8380  106.9757  109.3469 H   0  0  0  0  0  0  0  0  0  0  0  0
  121.7223  104.0795  106.2082 H   0  0  0  0  0  0  0  0  0  0  0  0
  1  2  1  0  0  0  0
  1  4  2  0  0  0  0
  2  6  2  0  0  0  0
  3  5  2  0  0  0  0
  3  6  1  0  0  0  0
  4  5  1  0  0  0  0
  4  7  1  0  0  0  0
  5 19  1  0  0  0  0
  6 26  1  0  0  0  0
  7  8  2  0  0  0  0
  8  9  1  0  0  0  0
  8 17  1  0  0  0  0
  9 19  1  0  0  0  0
  9 23  2  0  0  0  0
 10 16  1  0  0  0  0
 10 22  1  0  0  0  0
 10 24  2  0  0  0  0
 11 18  1  0  0  0  0
 11 21  1  0  0  0  0
 11 25  2  0  0  0  0
 12 13  1  0  0  0  0
 12 14  1  0  0  0  0
 13 16  1  0  0  0  0
 14 20  1  0  0  0  0
 15 16  1  0  0  0  0
 15 20  1  0  0  0  0
 17 22  1  0  0  0  0
 18 20  1  0  0  0  0
  1 27  1  0  0  0  0
  2 28  1  0  0  0  0
  3 29  1  0  0  0  0
  7 30  1  0  0  0  0
 12 31  1  0  0  0  0
 12 32  1  0  0  0  0
 13 33  1  0  0  0  0
 13 34  1  0  0  0  0
 14 35  1  0  0  0  0
 14 36  1  0  0  0  0
 15 37  1  0  0  0  0
 15 38  1  0  0  0  0
 16 39  1  0  0  0  0
 17 40  1  0  0  0  0
 17 41  1  0  0  0  0
 18 42  1  0  0  0  0
 18 43  1  0  0  0  0
 19 44  1  0  0  0  0
 21 45  1  0  0  0  0
 21 46  1  0  0  0  0
 22 47  1  0  0  0  0
M  END
> <FRED Chemgauss4 score>
-6.179060

$$$$
C70638491	P108965909
  -OEChem-05182014473D

 31 32  0     1  0  0  0  0  0999 V2000
  125.1473  106.4837  106.6288 C   0  0  0  0  0  0  0  0  0  0  0  0
  123.7720  106.2791  107.1031 C   0  0  0  0  0  0  0  0  0  0  0  0
  124.6591  107.4956  105.6374 C   0  0  0  0  0  0  0  0  0  0  0  0
  120.0574  105.8567  104.6051 C   0  0  0  0  0  0  0  0  0  0  0  0
  122.0719  104.8897  103.4693 C   0  0  0  0  0  0  0  0  0  0  0  0
  120.9877  106.4280  105.6772 C   0  0  0  0  0  0  0  0  0  0  0  0
  122.9354  105.4925  104.5792 C   0  0  0  0  0  0  0  0  0  0  0  0
  123.1818  107.3018  106.1502 C   0  0  1  0  0  0  0  0  0  0  0  0
  120.6515  104.5976  103.9648 C   0  0  0  0  0  0  0  0  0  0  0  0
  119.7675  104.0904  102.8289 C   0  0  0  0  0  0  0  0  0  0  0  0
  123.3300  105.4978  108.0108 N   0  0  0  0  0  0  0  0  0  0  0  0
  122.3206  106.7090  105.1272 N   0  0  0  0  0  0  0  0  0  0  0  0
  120.4067  102.9043  102.2231 N   0  3  0  0  0  0  0  0  0  0  0  0
  126.2058  106.0316  106.9117 O   0  0  0  0  0  0  0  0  0  0  0  0
  125.3232  108.0947  104.8408 O   0  0  0  0  0  0  0  0  0  0  0  0
  119.0850  105.6237  105.0550 H   0  0  0  0  0  0  0  0  0  0  0  0
  119.8769  106.6196  103.8363 H   0  0  0  0  0  0  0  0  0  0  0  0
  122.0372  105.5828  102.6183 H   0  0  0  0  0  0  0  0  0  0  0  0
  122.5392  103.9663  103.1068 H   0  0  0  0  0  0  0  0  0  0  0  0
  120.5427  107.3544  106.0602 H   0  0  0  0  0  0  0  0  0  0  0  0
  121.0498  105.7264  106.5199 H   0  0  0  0  0  0  0  0  0  0  0  0
  123.0962  104.7439  105.3664 H   0  0  0  0  0  0  0  0  0  0  0  0
  123.9187  105.7335  104.1569 H   0  0  0  0  0  0  0  0  0  0  0  0
  122.7624  108.1786  106.6499 H   0  0  0  0  0  0  0  0  0  0  0  0
  120.7051  103.8115  104.7298 H   0  0  0  0  0  0  0  0  0  0  0  0
  119.6620  104.8428  102.0491 H   0  0  0  0  0  0  0  0  0  0  0  0
  118.7904  103.7854  103.1998 H   0  0  0  0  0  0  0  0  0  0  0  0
  124.1076  104.9663  108.4260 H   0  0  0  0  0  0  0  0  0  0  0  0
  121.4123  103.0569  102.0752 H   0  0  0  0  0  0  0  0  0  0  0  0
  119.9887  102.6809  101.3108 H   0  0  0  0  0  0  0  0  0  0  0  0
  120.3027  102.0767  102.8239 H   0  0  0  0  0  0  0  0  0  0  0  0
  1  2  1  0  0  0  0
  1  3  1  0  0  0  0
  1 14  2  0  0  0  0
  2  8  1  0  0  0  0
  2 11  2  0  0  0  0
  3  8  1  0  0  0  0
  3 15  2  0  0  0  0
  4  6  1  0  0  0  0
  4  9  1  0  0  0  0
  5  7  1  0  0  0  0
  5  9  1  0  0  0  0
  6 12  1  0  0  0  0
  7 12  1  0  0  0  0
  8 12  1  0  0  0  0
  9 10  1  0  0  0  0
 10 13  1  0  0  0  0
  4 16  1  0  0  0  0
  4 17  1  0  0  0  0
  5 18  1  0  0  0  0
  5 19  1  0  0  0  0
  6 20  1  0  0  0  0
  6 21  1  0  0  0  0
  7 22  1  0  0  0  0
  7 23  1  0  0  0  0
  8 24  1  0  0  0  0
  9 25  1  0  0  0  0
 10 26  1  0  0  0  0
 10 27  1  0  0  0  0
 11 28  1  0  0  0  0
 13 29  1  0  0  0  0
 13 30  1  0  0  0  0
 13 31  1  0  0  0  0
M  CHG  1  13   1
M  END
> <FRED Chemgauss4 score>
-6.169530

$$$$
C19168263	P28303153
  -OEChem-05182014473D

 20 20  0     1  0  0  0  0  0999 V2000
  123.9850  108.0527  107.4533 C   0  0  0  0  0  0  0  0  0  0  0  0
  125.2653  105.7793  106.8509 C   0  0  0  0  0  0  0  0  0  0  0  0
  123.8931  106.9673  108.5281 C   0  0  2  0  0  0  0  0  0  0  0  0
  125.1196  106.0647  108.3458 C   0  0  2  0  0  0  0  0  0  0  0  0
  122.6294  105.2237  109.4079 N   0  0  0  0  0  0  0  0  0  0  0  0
  122.6745  106.2004  108.3703 N   0  0  0  0  0  0  0  0  0  0  0  0
  123.6515  106.9097  105.0989 O   0  0  0  0  0  0  0  0  0  0  0  0
  125.8681  108.0303  105.6100 O   0  0  0  0  0  0  0  0  0  0  0  0
  126.2746  106.7541  108.8186 O   0  0  0  0  0  0  0  0  0  0  0  0
  124.7100  107.2642  106.0216 S   0  0  0  0  0  0  0  0  0  0  0  0
  123.0223  108.4943  107.1823 H   0  0  0  0  0  0  0  0  0  0  0  0
  124.6684  108.8481  107.7679 H   0  0  0  0  0  0  0  0  0  0  0  0
  126.2957  105.5743  106.5504 H   0  0  0  0  0  0  0  0  0  0  0  0
  124.6054  104.9655  106.5370 H   0  0  0  0  0  0  0  0  0  0  0  0
  123.8935  107.4390  109.5184 H   0  0  0  0  0  0  0  0  0  0  0  0
  125.0430  105.1319  108.9185 H   0  0  0  0  0  0  0  0  0  0  0  0
  122.6393  104.2899  108.9986 H   0  0  0  0  0  0  0  0  0  0  0  0
  123.4845  105.2956  109.9580 H   0  0  0  0  0  0  0  0  0  0  0  0
  121.8745  106.8228  108.4560 H   0  0  0  0  0  0  0  0  0  0  0  0
  127.0303  106.1708  108.6508 H   0  0  0  0  0  0  0  0  0  0  0  0
  1  3  1  0  0  0  0
  1 10  1  0  0  0  0
  2  4  1  0  0  0  0
  2 10  1  0  0  0  0
  3  4  1  0  0  0  0
  3  6  1  0  0  0  0
  4  9  1  0  0  0  0
  5  6  1  0  0  0  0
  7 10  2  0  0  0  0
  8 10  2  0  0  0  0
  1 11  1  0  0  0  0
  1 12  1  0  0  0  0
  2 13  1  0  0  0  0
  2 14  1  0  0  0  0
  3 15  1  0  0  0  0
  4 16  1  0  0  0  0
  5 17  1  0  0  0  0
  5 18  1  0  0  0  0
  6 19  1  0  0  0  0
  9 20  1  0  0  0  0
M  END
> <FRED Chemgauss4 score>
-6.167714

$$$$
C83947683	P131340971
  -OEChem-05182014473D

 21 21  0     1  0  0  0  0  0999 V2000
  124.7323  107.0320  105.5838 C   0  0  0  0  0  0  0  0  0  0  0  0
  123.3967  105.4925  106.4092 C   0  0  0  0  0  0  0  0  0  0  0  0
  124.6849  105.9610  106.4963 C   0  0  0  0  0  0  0  0  0  0  0  0
  124.3829  104.2995  109.1127 C   0  0  0  0  0  0  0  0  0  0  0  0
  125.3695  104.2549  108.2091 C   0  0  0  0  0  0  0  0  0  0  0  0
  121.4026  106.1723  105.0526 C   0  0  0  0  0  0  0  0  0  0  0  0
  125.8066  105.4368  107.3787 C   0  0  2  0  0  0  0  0  0  0  0  0
  123.5670  107.2321  104.9626 N   0  0  0  0  0  0  0  0  0  0  0  0
  122.7752  106.2804  105.4855 N   0  0  0  0  0  0  0  0  0  0  0  0
  126.3728  106.4822  108.2419 N   0  0  0  0  0  0  0  0  0  0  0  0
  125.5665  107.6758  105.3433 H   0  0  0  0  0  0  0  0  0  0  0  0
  122.8825  104.6848  106.9122 H   0  0  0  0  0  0  0  0  0  0  0  0
  124.1174  103.4141  109.6799 H   0  0  0  0  0  0  0  0  0  0  0  0
  123.8258  105.2104  109.3006 H   0  0  0  0  0  0  0  0  0  0  0  0
  125.8913  103.3105  108.0673 H   0  0  0  0  0  0  0  0  0  0  0  0
  120.7925  106.8023  105.7052 H   0  0  0  0  0  0  0  0  0  0  0  0
  121.3210  106.5054  104.0142 H   0  0  0  0  0  0  0  0  0  0  0  0
  121.0836  105.1284  105.1199 H   0  0  0  0  0  0  0  0  0  0  0  0
  126.6294  105.1124  106.7279 H   0  0  0  0  0  0  0  0  0  0  0  0
  126.4161  107.4053  107.8789 H   0  0  0  0  0  0  0  0  0  0  0  0
  126.8663  106.1918  109.0530 H   0  0  0  0  0  0  0  0  0  0  0  0
  1  3  1  0  0  0  0
  1  8  2  0  0  0  0
  2  3  2  0  0  0  0
  2  9  1  0  0  0  0
  3  7  1  0  0  0  0
  4  5  2  0  0  0  0
  5  7  1  0  0  0  0
  6  9  1  0  0  0  0
  7 10  1  0  0  0  0
  8  9  1  0  0  0  0
  1 11  1  0  0  0  0
  2 12  1  0  0  0  0
  4 13  1  0  0  0  0
  4 14  1  0  0  0  0
  5 15  1  0  0  0  0
  6 16  1  0  0  0  0
  6 17  1  0  0  0  0
  6 18  1  0  0  0  0
  7 19  1  0  0  0  0
 10 20  1  0  0  0  0
 10 21  1  0  0  0  0
M  END
> <FRED Chemgauss4 score>
-6.167539

$$$$
C05510479	P08181956
  -OEChem-05182014473D

 25 24  0     0  0  0  0  0  0999 V2000
  121.5487  106.1674  106.3050 C   0  0  0  0  0  0  0  0  0  0  0  0
  119.1418  105.3410  106.2038 C   0  0  0  0  0  0  0  0  0  0  0  0
  123.7199  107.0971  107.2079 C   0  0  0  0  0  0  0  0  0  0  0  0
  123.0916  104.7853  107.7659 C   0  0  0  0  0  0  0  0  0  0  0  0
  125.0499  106.6485  106.6305 C   0  0  0  0  0  0  0  0  0  0  0  0
  123.1808  105.0507  109.2576 C   0  0  0  0  0  0  0  0  0  0  0  0
  120.4771  105.4006  106.7741 N   0  0  0  0  0  0  0  0  0  0  0  0
  122.7358  106.0223  107.0673 N   0  0  0  0  0  0  0  0  0  0  0  0
  125.9924  107.7078  106.7371 O   0  0  0  0  0  0  0  0  0  0  0  0
  121.9338  105.5501  109.7238 O   0  0  0  0  0  0  0  0  0  0  0  0
  121.4162  107.1727  104.9491 S   0  0  0  0  0  0  0  0  0  0  0  0
  118.4785  106.0348  106.7269 H   0  0  0  0  0  0  0  0  0  0  0  0
  118.7364  104.3297  106.2956 H   0  0  0  0  0  0  0  0  0  0  0  0
  119.1705  105.6123  105.1451 H   0  0  0  0  0  0  0  0  0  0  0  0
  123.8111  107.3418  108.2710 H   0  0  0  0  0  0  0  0  0  0  0  0
  123.3471  107.9736  106.6693 H   0  0  0  0  0  0  0  0  0  0  0  0
  124.0474  104.4295  107.3683 H   0  0  0  0  0  0  0  0  0  0  0  0
  122.3174  104.0408  107.5571 H   0  0  0  0  0  0  0  0  0  0  0  0
  124.9347  106.4041  105.5699 H   0  0  0  0  0  0  0  0  0  0  0  0
  125.4429  105.7731  107.1578 H   0  0  0  0  0  0  0  0  0  0  0  0
  123.9446  105.8084  109.4584 H   0  0  0  0  0  0  0  0  0  0  0  0
  123.4259  104.1404  109.8145 H   0  0  0  0  0  0  0  0  0  0  0  0
  120.6458  104.7553  107.5366 H   0  0  0  0  0  0  0  0  0  0  0  0
  126.8243  107.3808  106.3586 H   0  0  0  0  0  0  0  0  0  0  0  0
  122.0337  105.7057  110.6768 H   0  0  0  0  0  0  0  0  0  0  0  0
  1  7  1  0  0  0  0
  1  8  1  0  0  0  0
  1 11  2  0  0  0  0
  2  7  1  0  0  0  0
  3  5  1  0  0  0  0
  3  8  1  0  0  0  0
  4  6  1  0  0  0  0
  4  8  1  0  0  0  0
  5  9  1  0  0  0  0
  6 10  1  0  0  0  0
  2 12  1  0  0  0  0
  2 13  1  0  0  0  0
  2 14  1  0  0  0  0
  3 15  1  0  0  0  0
  3 16  1  0  0  0  0
  4 17  1  0  0  0  0
  4 18  1  0  0  0  0
  5 19  1  0  0  0  0
  5 20  1  0  0  0  0
  6 21  1  0  0  0  0
  6 22  1  0  0  0  0
  7 23  1  0  0  0  0
  9 24  1  0  0  0  0
 10 25  1  0  0  0  0
M  END
> <FRED Chemgauss4 score>
-6.163126

$$$$
C87777191	P137311341
  -OEChem-05182014473D

 19 19  0     0  0  0  0  0  0999 V2000
  122.3776  105.2041  106.4252 C   0  0  0  0  0  0  0  0  0  0  0  0
  123.8443  106.6646  106.1554 C   0  0  0  0  0  0  0  0  0  0  0  0
  125.0227  107.5218  106.2510 C   0  0  0  0  0  0  0  0  0  0  0  0
  120.7319  105.7789  104.5659 C   0  0  0  0  0  0  0  0  0  0  0  0
  120.0132  104.4566  104.7795 C   0  0  0  0  0  0  0  0  0  0  0  0
  123.5659  105.6447  106.9337 N   0  0  0  0  0  0  0  0  0  0  0  0
  122.8600  106.8156  105.2290 N   0  0  0  0  0  0  0  0  0  0  0  0
  121.9033  105.8872  105.3812 N   0  0  0  0  0  0  0  0  0  0  0  0
  125.4498  108.0636  104.9722 N   0  0  0  0  0  0  0  0  0  0  0  0
  118.9117  104.4106  103.9826 F   0  0  0  0  0  0  0  0  0  0  0  0
  121.8551  104.3537  106.8454 H   0  0  0  0  0  0  0  0  0  0  0  0
  124.8616  108.3967  106.9159 H   0  0  0  0  0  0  0  0  0  0  0  0
  125.9078  106.9979  106.6697 H   0  0  0  0  0  0  0  0  0  0  0  0
  121.0138  105.8811  103.5110 H   0  0  0  0  0  0  0  0  0  0  0  0
  120.0549  106.6115  104.7920 H   0  0  0  0  0  0  0  0  0  0  0  0
  120.6432  103.5947  104.5391 H   0  0  0  0  0  0  0  0  0  0  0  0
  119.6733  104.3667  105.8153 H   0  0  0  0  0  0  0  0  0  0  0  0
  126.4160  108.2925  104.8507 H   0  0  0  0  0  0  0  0  0  0  0  0
  124.7497  108.3804  104.3315 H   0  0  0  0  0  0  0  0  0  0  0  0
  1  6  2  0  0  0  0
  1  8  1  0  0  0  0
  2  3  1  0  0  0  0
  2  6  1  0  0  0  0
  2  7  2  0  0  0  0
  3  9  1  0  0  0  0
  4  5  1  0  0  0  0
  4  8  1  0  0  0  0
  5 10  1  0  0  0  0
  7  8  1  0  0  0  0
  1 11  1  0  0  0  0
  3 12  1  0  0  0  0
  3 13  1  0  0  0  0
  4 14  1  0  0  0  0
  4 15  1  0  0  0  0
  5 16  1  0  0  0  0
  5 17  1  0  0  0  0
  9 18  1  0  0  0  0
  9 19  1  0  0  0  0
M  END
> <FRED Chemgauss4 score>
-6.160743

$$$$
C85227510	P133359270
  -OEChem-05182014473D

 18 18  0     1  0  0  0  0  0999 V2000
  123.7060  106.2902  107.2033 C   0  0  0  0  0  0  0  0  0  0  0  0
  124.5355  107.1685  105.4379 C   0  0  0  0  0  0  0  0  0  0  0  0
  124.6201  104.4914  108.7109 C   0  0  0  0  0  0  0  0  0  0  0  0
  123.4692  105.4658  108.4478 C   0  0  2  0  0  0  0  0  0  0  0  0
  123.3993  107.7556  105.5464 N   0  0  0  0  0  0  0  0  0  0  0  0
  122.8697  107.1924  106.6764 N   0  0  0  0  0  0  0  0  0  0  0  0
  124.7856  106.2577  106.4225 N   0  3  0  0  0  0  0  0  0  0  0  0
  125.7203  105.1914  109.3351 N   0  0  0  0  0  0  0  0  0  0  0  0
  125.4338  107.4393  104.4024 O   0  5  0  0  0  0  0  0  0  0  0  0
  122.2499  104.7412  108.2834 O   0  0  0  0  0  0  0  0  0  0  0  0
  124.9764  104.0465  107.7754 H   0  0  0  0  0  0  0  0  0  0  0  0
  124.3058  103.6785  109.3747 H   0  0  0  0  0  0  0  0  0  0  0  0
  123.3287  106.1296  109.3099 H   0  0  0  0  0  0  0  0  0  0  0  0
  121.9550  107.4648  107.0242 H   0  0  0  0  0  0  0  0  0  0  0  0
  125.6133  105.6801  106.5374 H   0  0  0  0  0  0  0  0  0  0  0  0
  125.9304  106.1265  109.0364 H   0  0  0  0  0  0  0  0  0  0  0  0
  126.3693  104.6698  109.8962 H   0  0  0  0  0  0  0  0  0  0  0  0
  122.3687  104.1793  107.5030 H   0  0  0  0  0  0  0  0  0  0  0  0
  1  4  1  0  0  0  0
  1  6  1  0  0  0  0
  1  7  2  0  0  0  0
  2  5  2  0  0  0  0
  2  7  1  0  0  0  0
  2  9  1  0  0  0  0
  3  4  1  0  0  0  0
  3  8  1  0  0  0  0
  4 10  1  0  0  0  0
  5  6  1  0  0  0  0
  3 11  1  0  0  0  0
  3 12  1  0  0  0  0
  4 13  1  0  0  0  0
  6 14  1  0  0  0  0
  7 15  1  0  0  0  0
  8 16  1  0  0  0  0
  8 17  1  0  0  0  0
 10 18  1  0  0  0  0
M  CHG  2   7   1   9  -1
M  END
> <FRED Chemgauss4 score>
-6.155583

$$$$
C50395723	P75386859
  -OEChem-05182014473D

 28 28  0     1  0  0  0  0  0999 V2000
  120.0871  105.4690  104.5206 C   0  0  0  0  0  0  0  0  0  0  0  0
  119.6682  103.6086  106.7309 C   0  0  0  0  0  0  0  0  0  0  0  0
  120.6975  104.7164  106.8923 C   0  0  0  0  0  0  0  0  0  0  0  0
  118.4866  104.1457  105.9459 C   0  0  0  0  0  0  0  0  0  0  0  0
  121.1969  105.1508  105.5168 C   0  0  2  0  0  0  0  0  0  0  0  0
  125.5972  106.8840  106.8588 C   0  0  0  0  0  0  0  0  0  0  0  0
  123.3575  105.9736  106.1627 C   0  0  0  0  0  0  0  0  0  0  0  0
  124.2196  107.2252  106.3068 C   0  0  2  0  0  0  0  0  0  0  0  0
  118.8753  104.8443  104.7348 N   0  0  0  0  0  0  0  0  0  0  0  0
  122.0505  106.3319  105.6337 N   0  0  0  0  0  0  0  0  0  0  0  0
  120.2829  106.1786  103.5315 O   0  0  0  0  0  0  0  0  0  0  0  0
  124.3783  107.8200  105.0201 O   0  0  0  0  0  0  0  0  0  0  0  0
  120.1166  102.7575  106.2042 H   0  0  0  0  0  0  0  0  0  0  0  0
  119.3350  103.2489  107.7104 H   0  0  0  0  0  0  0  0  0  0  0  0
  120.2440  105.5606  107.4283 H   0  0  0  0  0  0  0  0  0  0  0  0
  121.5341  104.3582  107.5042 H   0  0  0  0  0  0  0  0  0  0  0  0
  117.8091  103.3349  105.6600 H   0  0  0  0  0  0  0  0  0  0  0  0
  117.9172  104.8596  106.5512 H   0  0  0  0  0  0  0  0  0  0  0  0
  121.7846  104.3309  105.0731 H   0  0  0  0  0  0  0  0  0  0  0  0
  126.1101  106.1539  106.2254 H   0  0  0  0  0  0  0  0  0  0  0  0
  126.2209  107.7814  106.9384 H   0  0  0  0  0  0  0  0  0  0  0  0
  125.5134  106.4689  107.8690 H   0  0  0  0  0  0  0  0  0  0  0  0
  123.8252  105.2555  105.4805 H   0  0  0  0  0  0  0  0  0  0  0  0
  123.2188  105.4855  107.1329 H   0  0  0  0  0  0  0  0  0  0  0  0
  123.7291  107.9569  106.9591 H   0  0  0  0  0  0  0  0  0  0  0  0
  118.1970  104.8763  103.9798 H   0  0  0  0  0  0  0  0  0  0  0  0
  121.6044  107.0016  106.2573 H   0  0  0  0  0  0  0  0  0  0  0  0
  124.9135  108.6178  105.1501 H   0  0  0  0  0  0  0  0  0  0  0  0
  1  5  1  0  0  0  0
  1  9  1  0  0  0  0
  1 11  2  0  0  0  0
  2  3  1  0  0  0  0
  2  4  1  0  0  0  0
  3  5  1  0  0  0  0
  4  9  1  0  0  0  0
  5 10  1  0  0  0  0
  6  8  1  0  0  0  0
  7  8  1  0  0  0  0
  7 10  1  0  0  0  0
  8 12  1  0  0  0  0
  2 13  1  0  0  0  0
  2 14  1  0  0  0  0
  3 15  1  0  0  0  0
  3 16  1  0  0  0  0
  4 17  1  0  0  0  0
  4 18  1  0  0  0  0
  5 19  1  0  0  0  0
  6 20  1  0  0  0  0
  6 21  1  0  0  0  0
  6 22  1  0  0  0  0
  7 23  1  0  0  0  0
  7 24  1  0  0  0  0
  8 25  1  0  0  0  0
  9 26  1  0  0  0  0
 10 27  1  0  0  0  0
 12 28  1  0  0  0  0
M  END
> <FRED Chemgauss4 score>
-6.155343

$$$$
C86400074	P135284224
  -OEChem-05182014473D

 27 28  0     1  0  0  0  0  0999 V2000
  123.4086  106.4812  106.2527 C   0  0  0  0  0  0  0  0  0  0  0  0
  120.4594  104.3640  104.0586 C   0  0  0  0  0  0  0  0  0  0  0  0
  119.0186  103.8699  104.2164 C   0  0  0  0  0  0  0  0  0  0  0  0
  119.7740  104.4314  106.4032 C   0  0  0  0  0  0  0  0  0  0  0  0
  120.9109  104.8049  105.4553 C   0  0  2  0  0  0  0  0  0  0  0  0
  118.5338  104.5041  105.5162 C   0  0  2  0  0  0  0  0  0  0  0  0
  121.9560  106.6983  106.5640 C   0  0  0  0  0  0  0  0  0  0  0  0
  124.2095  105.6902  106.9918 N   0  5  0  0  0  0  0  0  0  0  0  0
  124.0320  107.0593  105.2085 N   0  0  0  0  0  0  0  0  0  0  0  0
  125.4123  105.7784  106.3706 N   0  0  0  0  0  0  0  0  0  0  0  0
  125.3058  106.6009  105.2993 N   0  0  0  0  0  0  0  0  0  0  0  0
  121.0941  106.2824  105.4639 N   0  0  0  0  0  0  0  0  0  0  0  0
  117.3939  103.8079  106.0871 N   0  3  0  0  0  0  0  0  0  0  0  0
  121.1169  103.5895  103.6370 H   0  0  0  0  0  0  0  0  0  0  0  0
  120.4766  105.2142  103.3569 H   0  0  0  0  0  0  0  0  0  0  0  0
  118.4190  104.2040  103.3684 H   0  0  0  0  0  0  0  0  0  0  0  0
  118.9859  102.7796  104.2404 H   0  0  0  0  0  0  0  0  0  0  0  0
  119.9230  103.4516  106.8696 H   0  0  0  0  0  0  0  0  0  0  0  0
  119.6856  105.1738  107.2074 H   0  0  0  0  0  0  0  0  0  0  0  0
  121.8392  104.3466  105.7340 H   0  0  0  0  0  0  0  0  0  0  0  0
  118.2219  105.5649  105.3572 H   0  0  0  0  0  0  0  0  0  0  0  0
  121.6631  106.1318  107.4547 H   0  0  0  0  0  0  0  0  0  0  0  0
  121.7515  107.7545  106.7686 H   0  0  0  0  0  0  0  0  0  0  0  0
  120.1851  106.7367  105.5628 H   0  0  0  0  0  0  0  0  0  0  0  0
  117.1250  104.2271  106.9815 H   0  0  0  0  0  0  0  0  0  0  0  0
  117.6174  102.8220  106.2497 H   0  0  0  0  0  0  0  0  0  0  0  0
  116.5888  103.8543  105.4564 H   0  0  0  0  0  0  0  0  0  0  0  0
  1  7  1  0  0  0  0
  1  8  1  0  0  0  0
  1  9  2  0  0  0  0
  2  3  1  0  0  0  0
  2  5  1  0  0  0  0
  3  6  1  0  0  0  0
  4  5  1  0  0  0  0
  4  6  1  0  0  0  0
  5 12  1  0  0  0  0
  6 13  1  0  0  0  0
  7 12  1  0  0  0  0
  8 10  1  0  0  0  0
  9 11  1  0  0  0  0
 10 11  2  0  0  0  0
  2 14  1  0  0  0  0
  2 15  1  0  0  0  0
  3 16  1  0  0  0  0
  3 17  1  0  0  0  0
  4 18  1  0  0  0  0
  4 19  1  0  0  0  0
  5 20  1  0  0  0  0
  6 21  1  0  0  0  0
  7 22  1  0  0  0  0
  7 23  1  0  0  0  0
 12 24  1  0  0  0  0
 13 25  1  0  0  0  0
 13 26  1  0  0  0  0
 13 27  1  0  0  0  0
M  CHG  2   8  -1  13   1
M  END
> <FRED Chemgauss4 score>
-6.144022

$$$$
C31369269	P118184604
  -OEChem-05182014473D

 49 51  0     1  0  0  0  0  0999 V2000
  115.7835  106.3205  104.7711 C   0  0  0  0  0  0  0  0  0  0  0  0
  114.9327  105.7511  103.8471 C   0  0  0  0  0  0  0  0  0  0  0  0
  117.0912  105.7516  104.7194 C   0  0  0  0  0  0  0  0  0  0  0  0
  117.1684  104.7665  103.7561 C   0  0  0  0  0  0  0  0  0  0  0  0
  124.8950  106.9221  107.8735 C   0  0  0  0  0  0  0  0  0  0  0  0
  124.7039  106.2426  109.0258 C   0  0  0  0  0  0  0  0  0  0  0  0
  125.8243  106.3271  106.8615 C   0  0  0  0  0  0  0  0  0  0  0  0
  126.0902  104.5258  108.4406 C   0  0  0  0  0  0  0  0  0  0  0  0
  123.2065  107.9359  106.4174 C   0  0  0  0  0  0  0  0  0  0  0  0
  118.2616  106.1045  105.5875 C   0  0  0  0  0  0  0  0  0  0  0  0
  118.4160  104.0067  103.4472 C   0  0  0  0  0  0  0  0  0  0  0  0
  119.4585  104.2339  104.5600 C   0  0  0  0  0  0  0  0  0  0  0  0
  123.8243  106.7535  110.1373 C   0  0  0  0  0  0  0  0  0  0  0  0
  126.7723  103.2137  108.6988 C   0  0  0  0  0  0  0  0  0  0  0  0
  120.4738  105.0660  107.1198 C   0  0  0  0  0  0  0  0  0  0  0  0
  124.2517  108.2051  107.4826 C   0  0  0  0  0  0  0  0  0  0  0  0
  120.7958  107.3920  106.1284 C   0  0  0  0  0  0  0  0  0  0  0  0
  120.6492  105.8943  105.8508 C   0  0  2  0  0  0  0  0  0  0  0  0
  125.2960  105.0330  109.3273 N   0  0  0  0  0  0  0  0  0  0  0  0
  126.3736  105.1192  107.2348 N   0  0  0  0  0  0  0  0  0  0  0  0
  119.5209  105.6581  104.9501 N   0  0  2  0  0  0  0  0  0  0  0  0
  121.9531  107.6744  106.9465 N   0  0  0  0  0  0  0  0  0  0  0  0
  126.0669  106.8848  105.7949 O   0  0  0  0  0  0  0  0  0  0  0  0
  123.4784  107.9585  105.2181 O   0  0  0  0  0  0  0  0  0  0  0  0
  115.7074  104.5332  102.9228 S   0  0  0  0  0  0  0  0  0  0  0  0
  115.4804  107.1090  105.4481 H   0  0  0  0  0  0  0  0  0  0  0  0
  113.8944  105.9931  103.6696 H   0  0  0  0  0  0  0  0  0  0  0  0
  118.2655  107.1899  105.7522 H   0  0  0  0  0  0  0  0  0  0  0  0
  118.1501  105.6115  106.5605 H   0  0  0  0  0  0  0  0  0  0  0  0
  118.1757  102.9377  103.3843 H   0  0  0  0  0  0  0  0  0  0  0  0
  118.8370  104.3139  102.4832 H   0  0  0  0  0  0  0  0  0  0  0  0
  119.1743  103.6132  105.4188 H   0  0  0  0  0  0  0  0  0  0  0  0
  120.4457  103.8879  104.2241 H   0  0  0  0  0  0  0  0  0  0  0  0
  122.8116  106.3946  109.9837 H   0  0  0  0  0  0  0  0  0  0  0  0
  123.8368  107.8392  110.1317 H   0  0  0  0  0  0  0  0  0  0  0  0
  124.2049  106.3920  111.0877 H   0  0  0  0  0  0  0  0  0  0  0  0
  126.1457  102.4027  108.3357 H   0  0  0  0  0  0  0  0  0  0  0  0
  126.9395  103.0965  109.7671 H   0  0  0  0  0  0  0  0  0  0  0  0
  127.7294  103.1957  108.1828 H   0  0  0  0  0  0  0  0  0  0  0  0
  119.5768  105.3566  107.6774 H   0  0  0  0  0  0  0  0  0  0  0  0
  120.3710  104.0032  106.8736 H   0  0  0  0  0  0  0  0  0  0  0  0
  121.3397  105.1769  107.7805 H   0  0  0  0  0  0  0  0  0  0  0  0
  124.9937  108.8901  107.0601 H   0  0  0  0  0  0  0  0  0  0  0  0
  123.8180  108.6810  108.3669 H   0  0  0  0  0  0  0  0  0  0  0  0
  119.9041  107.7678  106.6428 H   0  0  0  0  0  0  0  0  0  0  0  0
  120.8838  107.9419  105.1850 H   0  0  0  0  0  0  0  0  0  0  0  0
  121.5603  105.5523  105.3458 H   0  0  0  0  0  0  0  0  0  0  0  0
  127.0102  104.6516  106.5958 H   0  0  0  0  0  0  0  0  0  0  0  0
  121.8425  107.6815  107.9559 H   0  0  0  0  0  0  0  0  0  0  0  0
  1  2  2  0  0  0  0
  1  3  1  0  0  0  0
  2 25  1  0  0  0  0
  3  4  2  0  0  0  0
  3 10  1  0  0  0  0
  4 11  1  0  0  0  0
  4 25  1  0  0  0  0
  5  6  2  0  0  0  0
  5  7  1  0  0  0  0
  5 16  1  0  0  0  0
  6 13  1  0  0  0  0
  6 19  1  0  0  0  0
  7 20  1  0  0  0  0
  7 23  2  0  0  0  0
  8 14  1  0  0  0  0
  8 19  2  0  0  0  0
  8 20  1  0  0  0  0
  9 16  1  0  0  0  0
  9 22  1  0  0  0  0
  9 24  2  0  0  0  0
 10 21  1  0  0  0  0
 11 12  1  0  0  0  0
 12 21  1  0  0  0  0
 15 18  1  0  0  0  0
 17 18  1  0  0  0  0
 17 22  1  0  0  0  0
 18 21  1  0  0  0  0
  1 26  1  0  0  0  0
  2 27  1  0  0  0  0
 10 28  1  0  0  0  0
 10 29  1  0  0  0  0
 11 30  1  0  0  0  0
 11 31  1  0  0  0  0
 12 32  1  0  0  0  0
 12 33  1  0  0  0  0
 13 34  1  0  0  0  0
 13 35  1  0  0  0  0
 13 36  1  0  0  0  0
 14 37  1  0  0  0  0
 14 38  1  0  0  0  0
 14 39  1  0  0  0  0
 15 40  1  0  0  0  0
 15 41  1  0  0  0  0
 15 42  1  0  0  0  0
 16 43  1  0  0  0  0
 16 44  1  0  0  0  0
 17 45  1  0  0  0  0
 17 46  1  0  0  0  0
 18 47  1  0  0  0  0
 20 48  1  0  0  0  0
 22 49  1  0  0  0  0
M  END
> <FRED Chemgauss4 score>
-6.143997

$$$$
C91517717	P143209456
  -OEChem-05182014473D

 41 42  0     1  0  0  0  0  0999 V2000
  120.9119  104.0863  105.5729 C   0  0  0  0  0  0  0  0  0  0  0  0
  118.7268  105.1054  105.4198 C   0  0  0  0  0  0  0  0  0  0  0  0
  120.2808  105.8294  107.1222 C   0  0  0  0  0  0  0  0  0  0  0  0
  119.6656  104.1847  104.9545 C   0  0  0  0  0  0  0  0  0  0  0  0
  121.2196  104.9087  106.6568 C   0  0  0  0  0  0  0  0  0  0  0  0
  119.0344  105.9279  106.5037 C   0  0  0  0  0  0  0  0  0  0  0  0
  124.3784  104.7889  105.7937 C   0  0  0  0  0  0  0  0  0  0  0  0
  124.4973  105.8267  108.1122 C   0  0  0  0  0  0  0  0  0  0  0  0
  125.4399  103.9139  106.4440 C   0  0  0  0  0  0  0  0  0  0  0  0
  123.6171  105.5916  106.8626 C   0  0  1  0  0  0  0  0  0  0  0  0
  126.0191  105.8162  107.8421 C   0  0  0  0  0  0  0  0  0  0  0  0
  119.3352  103.3046  103.7966 C   0  0  0  0  0  0  0  0  0  0  0  0
  126.4878  107.0849  107.1186 C   0  0  0  0  0  0  0  0  0  0  0  0
  126.7651  105.7268  109.1824 C   0  0  0  0  0  0  0  0  0  0  0  0
  123.0922  106.9109  106.2799 C   0  0  0  0  0  0  0  0  0  0  0  0
  122.4528  104.8108  107.2700 N   0  0  0  0  0  0  0  0  0  0  0  0
  126.4584  104.6933  107.0640 O   0  0  0  0  0  0  0  0  0  0  0  0
  122.6286  106.6608  104.9688 O   0  0  0  0  0  0  0  0  0  0  0  0
  118.1331  106.8124  106.9501 F   0  0  0  0  0  0  0  0  0  0  0  0
  121.6418  103.3666  105.2094 H   0  0  0  0  0  0  0  0  0  0  0  0
  117.7531  105.1894  104.9445 H   0  0  0  0  0  0  0  0  0  0  0  0
  120.5097  106.4751  107.9664 H   0  0  0  0  0  0  0  0  0  0  0  0
  124.8775  105.4868  105.1188 H   0  0  0  0  0  0  0  0  0  0  0  0
  123.7004  104.1728  105.2044 H   0  0  0  0  0  0  0  0  0  0  0  0
  124.2334  106.8190  108.5046 H   0  0  0  0  0  0  0  0  0  0  0  0
  124.2483  105.1071  108.9026 H   0  0  0  0  0  0  0  0  0  0  0  0
  125.0048  103.2121  107.1661 H   0  0  0  0  0  0  0  0  0  0  0  0
  125.9255  103.3012  105.6740 H   0  0  0  0  0  0  0  0  0  0  0  0
  118.8748  102.3719  104.1449 H   0  0  0  0  0  0  0  0  0  0  0  0
  118.6398  103.7991  103.1059 H   0  0  0  0  0  0  0  0  0  0  0  0
  120.2336  103.0542  103.2175 H   0  0  0  0  0  0  0  0  0  0  0  0
  127.5587  107.0280  106.9534 H   0  0  0  0  0  0  0  0  0  0  0  0
  126.2580  107.9513  107.7300 H   0  0  0  0  0  0  0  0  0  0  0  0
  125.9748  107.1638  106.1656 H   0  0  0  0  0  0  0  0  0  0  0  0
  127.8354  105.7190  108.9993 H   0  0  0  0  0  0  0  0  0  0  0  0
  126.4774  104.8136  109.6947 H   0  0  0  0  0  0  0  0  0  0  0  0
  126.5075  106.5847  109.7962 H   0  0  0  0  0  0  0  0  0  0  0  0
  123.8975  107.6403  106.2509 H   0  0  0  0  0  0  0  0  0  0  0  0
  122.2744  107.2788  106.8939 H   0  0  0  0  0  0  0  0  0  0  0  0
  122.5661  104.1680  108.0403 H   0  0  0  0  0  0  0  0  0  0  0  0
  122.2996  107.5049  104.6132 H   0  0  0  0  0  0  0  0  0  0  0  0
  1  4  1  0  0  0  0
  1  5  2  0  0  0  0
  2  4  2  0  0  0  0
  2  6  1  0  0  0  0
  3  5  1  0  0  0  0
  3  6  2  0  0  0  0
  4 12  1  0  0  0  0
  5 16  1  0  0  0  0
  6 19  1  0  0  0  0
  7  9  1  0  0  0  0
  7 10  1  0  0  0  0
  8 10  1  0  0  0  0
  8 11  1  0  0  0  0
  9 17  1  0  0  0  0
 10 15  1  0  0  0  0
 10 16  1  0  0  0  0
 11 13  1  0  0  0  0
 11 14  1  0  0  0  0
 11 17  1  0  0  0  0
 15 18  1  0  0  0  0
  1 20  1  0  0  0  0
  2 21  1  0  0  0  0
  3 22  1  0  0  0  0
  7 23  1  0  0  0  0
  7 24  1  0  0  0  0
  8 25  1  0  0  0  0
  8 26  1  0  0  0  0
  9 27  1  0  0  0  0
  9 28  1  0  0  0  0
 12 29  1  0  0  0  0
 12 30  1  0  0  0  0
 12 31  1  0  0  0  0
 13 32  1  0  0  0  0
 13 33  1  0  0  0  0
 13 34  1  0  0  0  0
 14 35  1  0  0  0  0
 14 36  1  0  0  0  0
 14 37  1  0  0  0  0
 15 38  1  0  0  0  0
 15 39  1  0  0  0  0
 16 40  1  0  0  0  0
 18 41  1  0  0  0  0
M  END
> <FRED Chemgauss4 score>
-6.143485

$$$$
C85374462	P133634517
  -OEChem-05182014473D

 33 33  0     1  0  0  0  0  0999 V2000
  123.1150  105.9263  106.0094 C   0  0  0  0  0  0  0  0  0  0  0  0
  124.4448  105.8402  108.0966 C   0  0  0  0  0  0  0  0  0  0  0  0
  124.6507  108.1037  107.5462 C   0  0  0  0  0  0  0  0  0  0  0  0
  124.5047  105.9477  106.5824 C   0  0  2  0  0  0  0  0  0  0  0  0
  125.2063  107.2812  106.3972 C   0  0  1  0  0  0  0  0  0  0  0  0
  118.1800  103.5526  106.3638 C   0  0  0  0  0  0  0  0  0  0  0  0
  122.8870  103.6331  106.9765 C   0  0  0  0  0  0  0  0  0  0  0  0
  119.9687  105.1106  106.7291 C   0  0  0  0  0  0  0  0  0  0  0  0
  121.0012  104.6170  105.7296 C   0  0  0  0  0  0  0  0  0  0  0  0
  125.0232  107.9085  105.1011 N   0  0  0  0  0  0  0  0  0  0  0  0
  118.6238  104.9422  106.2481 N   0  0  0  0  0  0  0  0  0  0  0  0
  122.3647  104.7707  106.2303 N   0  0  0  0  0  0  0  0  0  0  0  0
  122.7069  106.9081  105.3833 O   0  0  0  0  0  0  0  0  0  0  0  0
  124.3949  107.1808  108.6162 O   0  0  0  0  0  0  0  0  0  0  0  0
  123.5794  105.2827  108.4680 H   0  0  0  0  0  0  0  0  0  0  0  0
  125.3534  105.3728  108.4917 H   0  0  0  0  0  0  0  0  0  0  0  0
  125.3480  108.8751  107.8872 H   0  0  0  0  0  0  0  0  0  0  0  0
  123.6995  108.5872  107.2958 H   0  0  0  0  0  0  0  0  0  0  0  0
  125.0521  105.1159  106.1298 H   0  0  0  0  0  0  0  0  0  0  0  0
  126.2748  107.1315  106.5605 H   0  0  0  0  0  0  0  0  0  0  0  0
  118.2332  103.2268  107.4058 H   0  0  0  0  0  0  0  0  0  0  0  0
  118.8160  102.9011  105.7584 H   0  0  0  0  0  0  0  0  0  0  0  0
  117.1477  103.4554  106.0169 H   0  0  0  0  0  0  0  0  0  0  0  0
  122.6565  103.7432  108.0393 H   0  0  0  0  0  0  0  0  0  0  0  0
  123.9718  103.5682  106.8565 H   0  0  0  0  0  0  0  0  0  0  0  0
  122.4381  102.7046  106.6133 H   0  0  0  0  0  0  0  0  0  0  0  0
  120.1054  106.1735  106.9525 H   0  0  0  0  0  0  0  0  0  0  0  0
  120.0490  104.5452  107.6627 H   0  0  0  0  0  0  0  0  0  0  0  0
  120.8520  103.5522  105.5255 H   0  0  0  0  0  0  0  0  0  0  0  0
  120.9342  105.1643  104.7838 H   0  0  0  0  0  0  0  0  0  0  0  0
  125.0115  107.3268  104.2868 H   0  0  0  0  0  0  0  0  0  0  0  0
  125.1180  108.9026  105.0346 H   0  0  0  0  0  0  0  0  0  0  0  0
  118.5632  105.2196  105.2624 H   0  0  0  0  0  0  0  0  0  0  0  0
  1  4  1  0  0  0  0
  1 12  1  0  0  0  0
  1 13  2  0  0  0  0
  2  4  1  0  0  0  0
  2 14  1  0  0  0  0
  3  5  1  0  0  0  0
  3 14  1  0  0  0  0
  4  5  1  0  0  0  0
  5 10  1  0  0  0  0
  6 11  1  0  0  0  0
  7 12  1  0  0  0  0
  8  9  1  0  0  0  0
  8 11  1  0  0  0  0
  9 12  1  0  0  0  0
  2 15  1  0  0  0  0
  2 16  1  0  0  0  0
  3 17  1  0  0  0  0
  3 18  1  0  0  0  0
  4 19  1  0  0  0  0
  5 20  1  0  0  0  0
  6 21  1  0  0  0  0
  6 22  1  0  0  0  0
  6 23  1  0  0  0  0
  7 24  1  0  0  0  0
  7 25  1  0  0  0  0
  7 26  1  0  0  0  0
  8 27  1  0  0  0  0
  8 28  1  0  0  0  0
  9 29  1  0  0  0  0
  9 30  1  0  0  0  0
 10 31  1  0  0  0  0
 10 32  1  0  0  0  0
 11 33  1  0  0  0  0
M  END
> <FRED Chemgauss4 score>
-6.137343

$$$$
C89086820	P139339947
  -OEChem-05182014473D

 44 45  0     1  0  0  0  0  0999 V2000
  122.9812  107.8296  108.8345 C   0  0  0  0  0  0  0  0  0  0  0  0
  120.5238  105.6120  106.5124 C   0  0  0  0  0  0  0  0  0  0  0  0
  116.5905  104.8790  102.9883 C   0  0  0  0  0  0  0  0  0  0  0  0
  117.3276  105.5760  104.1042 C   0  0  0  0  0  0  0  0  0  0  0  0
  124.7107  106.3219  105.3450 C   0  0  0  0  0  0  0  0  0  0  0  0
  123.1954  106.5256  105.3536 C   0  0  0  0  0  0  0  0  0  0  0  0
  124.9132  107.6167  107.3460 C   0  0  0  0  0  0  0  0  0  0  0  0
  116.0661  103.6413  103.6849 C   0  0  0  0  0  0  0  0  0  0  0  0
  123.3909  107.8133  107.3928 C   0  0  1  0  0  0  0  0  0  0  0  0
  117.9416  104.3991  104.8425 C   0  0  1  0  0  0  0  0  0  0  0  0
  121.9201  109.2404  110.5856 C   0  0  0  0  0  0  0  0  0  0  0  0
  121.2329  106.9327  106.6706 C   0  0  0  0  0  0  0  0  0  0  0  0
  118.2204  104.6816  106.3060 C   0  0  0  0  0  0  0  0  0  0  0  0
  125.4013  107.4457  105.9774 N   0  0  0  0  0  0  0  0  0  0  0  0
  122.6820  106.7102  106.7216 N   0  0  1  0  0  0  0  0  0  0  0  0
  122.3910  109.0120  109.2383 N   0  0  0  0  0  0  0  0  0  0  0  0
  119.1476  105.7798  106.4577 N   0  0  0  0  0  0  0  0  0  0  0  0
  123.1834  106.8420  109.5313 O   0  0  0  0  0  0  0  0  0  0  0  0
  121.1095  104.5349  106.4404 O   0  0  0  0  0  0  0  0  0  0  0  0
  117.0016  103.3177  104.7245 O   0  0  0  0  0  0  0  0  0  0  0  0
  115.7988  105.4835  102.5381 H   0  0  0  0  0  0  0  0  0  0  0  0
  117.2951  104.5937  102.1981 H   0  0  0  0  0  0  0  0  0  0  0  0
  118.0741  106.2926  103.7507 H   0  0  0  0  0  0  0  0  0  0  0  0
  116.6115  106.1103  104.7403 H   0  0  0  0  0  0  0  0  0  0  0  0
  124.9733  105.3838  105.8502 H   0  0  0  0  0  0  0  0  0  0  0  0
  125.0555  106.2342  104.3088 H   0  0  0  0  0  0  0  0  0  0  0  0
  122.9403  107.3894  104.7243 H   0  0  0  0  0  0  0  0  0  0  0  0
  122.7279  105.6428  104.9005 H   0  0  0  0  0  0  0  0  0  0  0  0
  125.4061  108.4919  107.7864 H   0  0  0  0  0  0  0  0  0  0  0  0
  125.2175  106.7552  107.9562 H   0  0  0  0  0  0  0  0  0  0  0  0
  115.0971  103.8336  104.1577 H   0  0  0  0  0  0  0  0  0  0  0  0
  115.9603  102.7905  103.0060 H   0  0  0  0  0  0  0  0  0  0  0  0
  123.1273  108.7803  106.9451 H   0  0  0  0  0  0  0  0  0  0  0  0
  118.8687  104.0817  104.3550 H   0  0  0  0  0  0  0  0  0  0  0  0
  120.8764  108.9284  110.6768 H   0  0  0  0  0  0  0  0  0  0  0  0
  121.9932  110.3020  110.8366 H   0  0  0  0  0  0  0  0  0  0  0  0
  122.5216  108.6696  111.2981 H   0  0  0  0  0  0  0  0  0  0  0  0
  120.9978  107.5812  105.8214 H   0  0  0  0  0  0  0  0  0  0  0  0
  120.9112  107.4178  107.5968 H   0  0  0  0  0  0  0  0  0  0  0  0
  118.6606  103.8039  106.7888 H   0  0  0  0  0  0  0  0  0  0  0  0
  117.2990  104.9482  106.8321 H   0  0  0  0  0  0  0  0  0  0  0  0
  126.4042  107.2638  105.9938 H   0  0  0  0  0  0  0  0  0  0  0  0
  122.2829  109.7561  108.5557 H   0  0  0  0  0  0  0  0  0  0  0  0
  118.7730  106.7215  106.5277 H   0  0  0  0  0  0  0  0  0  0  0  0
  1  9  1  0  0  0  0
  1 16  1  0  0  0  0
  1 18  2  0  0  0  0
  2 12  1  0  0  0  0
  2 17  1  0  0  0  0
  2 19  2  0  0  0  0
  3  4  1  0  0  0  0
  3  8  1  0  0  0  0
  4 10  1  0  0  0  0
  5  6  1  0  0  0  0
  5 14  1  0  0  0  0
  6 15  1  0  0  0  0
  7  9  1  0  0  0  0
  7 14  1  0  0  0  0
  8 20  1  0  0  0  0
  9 15  1  0  0  0  0
 10 13  1  0  0  0  0
 10 20  1  0  0  0  0
 11 16  1  0  0  0  0
 12 15  1  0  0  0  0
 13 17  1  0  0  0  0
  3 21  1  0  0  0  0
  3 22  1  0  0  0  0
  4 23  1  0  0  0  0
  4 24  1  0  0  0  0
  5 25  1  0  0  0  0
  5 26  1  0  0  0  0
  6 27  1  0  0  0  0
  6 28  1  0  0  0  0
  7 29  1  0  0  0  0
  7 30  1  0  0  0  0
  8 31  1  0  0  0  0
  8 32  1  0  0  0  0
  9 33  1  0  0  0  0
 10 34  1  0  0  0  0
 11 35  1  0  0  0  0
 11 36  1  0  0  0  0
 11 37  1  0  0  0  0
 12 38  1  0  0  0  0
 12 39  1  0  0  0  0
 13 40  1  0  0  0  0
 13 41  1  0  0  0  0
 14 42  1  0  0  0  0
 16 43  1  0  0  0  0
 17 44  1  0  0  0  0
M  END
> <FRED Chemgauss4 score>
-6.136703

$$$$
C95922182	P151021485
  -OEChem-05182014473D

 21 21  0     1  0  0  0  0  0999 V2000
  124.3337  106.3655  108.6397 C   0  0  0  0  0  0  0  0  0  0  0  0
  123.5486  107.1972  107.9379 C   0  0  0  0  0  0  0  0  0  0  0  0
  125.6519  105.8442  108.1238 C   0  0  1  0  0  0  0  0  0  0  0  0
  123.8824  107.6771  106.5550 C   0  0  1  0  0  0  0  0  0  0  0  0
  126.1788  106.6634  106.9273 C   0  0  1  0  0  0  0  0  0  0  0  0
  125.0479  106.9036  105.9196 C   0  0  2  0  0  0  0  0  0  0  0  0
  126.6534  105.7758  109.1912 N   0  0  0  0  0  0  0  0  0  0  0  0
  122.7246  107.5166  105.7354 O   0  0  0  0  0  0  0  0  0  0  0  0
  126.6762  107.9238  107.3885 O   0  0  0  0  0  0  0  0  0  0  0  0
  125.5414  107.6580  104.8136 O   0  0  0  0  0  0  0  0  0  0  0  0
  123.9998  106.0369  109.6208 H   0  0  0  0  0  0  0  0  0  0  0  0
  122.6197  107.5429  108.3836 H   0  0  0  0  0  0  0  0  0  0  0  0
  125.4673  104.8161  107.7868 H   0  0  0  0  0  0  0  0  0  0  0  0
  124.0983  108.7514  106.5919 H   0  0  0  0  0  0  0  0  0  0  0  0
  127.0193  106.1474  106.4480 H   0  0  0  0  0  0  0  0  0  0  0  0
  124.6908  105.9470  105.5173 H   0  0  0  0  0  0  0  0  0  0  0  0
  127.6112  105.7317  108.9267 H   0  0  0  0  0  0  0  0  0  0  0  0
  126.3370  105.5721  110.1119 H   0  0  0  0  0  0  0  0  0  0  0  0
  122.0263  108.0535  106.1396 H   0  0  0  0  0  0  0  0  0  0  0  0
  125.9291  108.3702  107.8125 H   0  0  0  0  0  0  0  0  0  0  0  0
  126.2725  107.1456  104.4362 H   0  0  0  0  0  0  0  0  0  0  0  0
  1  2  2  0  0  0  0
  1  3  1  0  0  0  0
  2  4  1  0  0  0  0
  3  5  1  0  0  0  0
  3  7  1  0  0  0  0
  4  6  1  0  0  0  0
  4  8  1  0  0  0  0
  5  6  1  0  0  0  0
  5  9  1  0  0  0  0
  6 10  1  0  0  0  0
  1 11  1  0  0  0  0
  2 12  1  0  0  0  0
  3 13  1  0  0  0  0
  4 14  1  0  0  0  0
  5 15  1  0  0  0  0
  6 16  1  0  0  0  0
  7 17  1  0  0  0  0
  7 18  1  0  0  0  0
  8 19  1  0  0  0  0
  9 20  1  0  0  0  0
 10 21  1  0  0  0  0
M  END
> <FRED Chemgauss4 score>
-6.135343

$$$$
C70646602	P108984036
  -OEChem-05182014473D

 23 23  0     0  0  0  0  0  0999 V2000
  117.5705  103.8119  105.7551 C   0  0  0  0  0  0  0  0  0  0  0  0
  119.5465  104.4592  105.5721 C   0  0  0  0  0  0  0  0  0  0  0  0
  123.5929  106.7743  105.8269 C   0  0  0  0  0  0  0  0  0  0  0  0
  121.0435  104.6292  105.6556 C   0  0  0  0  0  0  0  0  0  0  0  0
  125.0721  106.7479  106.1157 C   0  0  0  0  0  0  0  0  0  0  0  0
  121.4641  105.7421  106.6123 C   0  0  0  0  0  0  0  0  0  0  0  0
  118.8445  103.5063  106.1400 N   0  0  0  0  0  0  0  0  0  0  0  0
  118.7182  105.2891  104.8828 N   0  0  0  0  0  0  0  0  0  0  0  0
  117.4400  104.8940  104.9847 N   0  0  0  0  0  0  0  0  0  0  0  0
  125.7684  107.6717  105.2083 N   0  0  0  0  0  0  0  0  0  0  0  0
  122.8979  105.9150  106.6659 N   0  0  0  0  0  0  0  0  0  0  0  0
  123.0868  107.4770  104.9560 O   0  0  0  0  0  0  0  0  0  0  0  0
  116.7190  103.2151  106.0549 H   0  0  0  0  0  0  0  0  0  0  0  0
  121.4251  104.8512  104.6510 H   0  0  0  0  0  0  0  0  0  0  0  0
  121.5087  103.6804  105.9522 H   0  0  0  0  0  0  0  0  0  0  0  0
  125.2511  107.0558  107.1501 H   0  0  0  0  0  0  0  0  0  0  0  0
  125.4612  105.7364  105.9663 H   0  0  0  0  0  0  0  0  0  0  0  0
  121.0432  106.6970  106.2817 H   0  0  0  0  0  0  0  0  0  0  0  0
  121.1161  105.5507  107.6327 H   0  0  0  0  0  0  0  0  0  0  0  0
  116.6703  105.3853  104.5387 H   0  0  0  0  0  0  0  0  0  0  0  0
  126.7310  107.5056  105.0339 H   0  0  0  0  0  0  0  0  0  0  0  0
  125.3099  108.5211  104.9775 H   0  0  0  0  0  0  0  0  0  0  0  0
  123.4232  105.3808  107.3521 H   0  0  0  0  0  0  0  0  0  0  0  0
  1  7  2  0  0  0  0
  1  9  1  0  0  0  0
  2  4  1  0  0  0  0
  2  7  1  0  0  0  0
  2  8  2  0  0  0  0
  3  5  1  0  0  0  0
  3 11  1  0  0  0  0
  3 12  2  0  0  0  0
  4  6  1  0  0  0  0
  5 10  1  0  0  0  0
  6 11  1  0  0  0  0
  8  9  1  0  0  0  0
  1 13  1  0  0  0  0
  4 14  1  0  0  0  0
  4 15  1  0  0  0  0
  5 16  1  0  0  0  0
  5 17  1  0  0  0  0
  6 18  1  0  0  0  0
  6 19  1  0  0  0  0
  9 20  1  0  0  0  0
 10 21  1  0  0  0  0
 10 22  1  0  0  0  0
 11 23  1  0  0  0  0
M  END
> <FRED Chemgauss4 score>
-6.132672

$$$$
C39095921	P59227803
  -OEChem-05182014473D

 19 19  0     1  0  0  0  0  0999 V2000
  126.1872  105.8931  107.2673 C   0  0  0  0  0  0  0  0  0  0  0  0
  125.3587  104.6898  106.9292 C   0  0  0  0  0  0  0  0  0  0  0  0
  124.1113  104.8930  107.7869 C   0  0  2  0  0  0  0  0  0  0  0  0
  122.9926  105.6000  107.0233 C   0  0  0  0  0  0  0  0  0  0  0  0
  123.4443  106.9514  106.5036 C   0  0  0  0  0  0  0  0  0  0  0  0
  125.6622  106.4255  108.4276 N   0  0  0  0  0  0  0  0  0  0  0  0
  124.5608  105.7329  108.9071 N   0  0  0  0  0  0  0  0  0  0  0  0
  127.1586  106.2851  106.6402 O   0  0  0  0  0  0  0  0  0  0  0  0
  122.3551  107.5583  105.8222 O   0  0  0  0  0  0  0  0  0  0  0  0
  125.1467  104.6548  105.8575 H   0  0  0  0  0  0  0  0  0  0  0  0
  125.9140  103.7970  107.2350 H   0  0  0  0  0  0  0  0  0  0  0  0
  123.7347  103.9415  108.1587 H   0  0  0  0  0  0  0  0  0  0  0  0
  122.1274  105.7197  107.6800 H   0  0  0  0  0  0  0  0  0  0  0  0
  122.6665  104.9680  106.1937 H   0  0  0  0  0  0  0  0  0  0  0  0
  123.7507  107.6075  107.3246 H   0  0  0  0  0  0  0  0  0  0  0  0
  124.2783  106.8455  105.8025 H   0  0  0  0  0  0  0  0  0  0  0  0
  126.0451  107.2442  108.8853 H   0  0  0  0  0  0  0  0  0  0  0  0
  123.8470  106.4171  109.1527 H   0  0  0  0  0  0  0  0  0  0  0  0
  122.6698  108.4188  105.5006 H   0  0  0  0  0  0  0  0  0  0  0  0
  1  2  1  0  0  0  0
  1  6  1  0  0  0  0
  1  8  2  0  0  0  0
  2  3  1  0  0  0  0
  3  4  1  0  0  0  0
  3  7  1  0  0  0  0
  4  5  1  0  0  0  0
  5  9  1  0  0  0  0
  6  7  1  0  0  0  0
  2 10  1  0  0  0  0
  2 11  1  0  0  0  0
  3 12  1  0  0  0  0
  4 13  1  0  0  0  0
  4 14  1  0  0  0  0
  5 15  1  0  0  0  0
  5 16  1  0  0  0  0
  6 17  1  0  0  0  0
  7 18  1  0  0  0  0
  9 19  1  0  0  0  0
M  END
> <FRED Chemgauss4 score>
-6.132649

$$$$
C45059901	P67910381
  -OEChem-05182014473D

 25 24  0     0  0  0  0  0  0999 V2000
  125.3415  104.6452  108.3521 C   0  0  0  0  0  0  0  0  0  0  0  0
  123.7099  106.9719  106.7048 C   0  0  0  0  0  0  0  0  0  0  0  0
  122.3877  105.8530  108.4570 C   0  0  0  0  0  0  0  0  0  0  0  0
  124.4722  109.3681  105.0257 C   0  0  0  0  0  0  0  0  0  0  0  0
  124.8259  106.0077  108.7708 C   0  0  0  0  0  0  0  0  0  0  0  0
  125.0649  107.4198  106.1986 C   0  0  0  0  0  0  0  0  0  0  0  0
  125.1368  104.3028  107.1145 N   0  0  0  0  0  0  0  0  0  0  0  0
  125.9863  103.9171  109.3250 N   0  0  0  0  0  0  0  0  0  0  0  0
  123.6685  106.3109  107.9328 N   0  0  0  0  0  0  0  0  0  0  0  0
  122.7130  107.2021  106.0133 O   0  0  0  0  0  0  0  0  0  0  0  0
  125.6697  103.0332  106.8726 O   0  0  0  0  0  0  0  0  0  0  0  0
  124.9232  108.0201  104.9289 O   0  0  0  0  0  0  0  0  0  0  0  0
  122.1826  104.8361  108.1125 H   0  0  0  0  0  0  0  0  0  0  0  0
  121.5829  106.5094  108.1151 H   0  0  0  0  0  0  0  0  0  0  0  0
  122.4032  105.8579  109.5502 H   0  0  0  0  0  0  0  0  0  0  0  0
  124.3763  109.7938  104.0239 H   0  0  0  0  0  0  0  0  0  0  0  0
  125.1857  109.9506  105.6140 H   0  0  0  0  0  0  0  0  0  0  0  0
  123.4979  109.3823  105.5200 H   0  0  0  0  0  0  0  0  0  0  0  0
  125.5819  106.7818  108.6172 H   0  0  0  0  0  0  0  0  0  0  0  0
  124.5075  105.9996  109.8167 H   0  0  0  0  0  0  0  0  0  0  0  0
  125.5369  108.1164  106.8963 H   0  0  0  0  0  0  0  0  0  0  0  0
  125.7263  106.5518  106.1086 H   0  0  0  0  0  0  0  0  0  0  0  0
  126.1116  104.2733  110.2667 H   0  0  0  0  0  0  0  0  0  0  0  0
  126.3630  102.9971  109.1240 H   0  0  0  0  0  0  0  0  0  0  0  0
  125.4514  102.9057  105.9339 H   0  0  0  0  0  0  0  0  0  0  0  0
  1  5  1  0  0  0  0
  1  7  2  0  0  0  0
  1  8  1  0  0  0  0
  2  6  1  0  0  0  0
  2  9  1  0  0  0  0
  2 10  2  0  0  0  0
  3  9  1  0  0  0  0
  4 12  1  0  0  0  0
  5  9  1  0  0  0  0
  6 12  1  0  0  0  0
  7 11  1  0  0  0  0
  3 13  1  0  0  0  0
  3 14  1  0  0  0  0
  3 15  1  0  0  0  0
  4 16  1  0  0  0  0
  4 17  1  0  0  0  0
  4 18  1  0  0  0  0
  5 19  1  0  0  0  0
  5 20  1  0  0  0  0
  6 21  1  0  0  0  0
  6 22  1  0  0  0  0
  8 23  1  0  0  0  0
  8 24  1  0  0  0  0
 11 25  1  0  0  0  0
M  END
> <FRED Chemgauss4 score>
-6.127189

$$$$
C59696613	P90963035
  -OEChem-05182014473D

 17 17  0     0  0  0  0  0  0999 V2000
  122.4010  105.0705  106.2412 C   0  0  0  0  0  0  0  0  0  0  0  0
  123.5079  105.0706  106.9815 C   0  0  0  0  0  0  0  0  0  0  0  0
  122.2503  106.1935  105.2796 C   0  0  0  0  0  0  0  0  0  0  0  0
  124.3012  107.1102  105.9488 C   0  0  0  0  0  0  0  0  0  0  0  0
  125.6402  105.9684  107.7198 C   0  0  0  0  0  0  0  0  0  0  0  0
  123.1571  107.1286  105.1693 N   0  0  0  0  0  0  0  0  0  0  0  0
  124.4616  106.0553  106.8644 N   0  0  0  0  0  0  0  0  0  0  0  0
  121.1207  106.2305  104.4955 N   0  0  0  0  0  0  0  0  0  0  0  0
  125.1453  108.0004  105.8317 O   0  0  0  0  0  0  0  0  0  0  0  0
  126.4930  104.9525  107.2282 O   0  0  0  0  0  0  0  0  0  0  0  0
  121.6391  104.3065  106.3172 H   0  0  0  0  0  0  0  0  0  0  0  0
  123.6973  104.2884  107.7082 H   0  0  0  0  0  0  0  0  0  0  0  0
  125.3185  105.7253  108.7354 H   0  0  0  0  0  0  0  0  0  0  0  0
  126.1569  106.9309  107.6991 H   0  0  0  0  0  0  0  0  0  0  0  0
  120.4537  105.5053  104.6050 H   0  0  0  0  0  0  0  0  0  0  0  0
  121.0224  106.9806  103.8548 H   0  0  0  0  0  0  0  0  0  0  0  0
  126.7407  105.2018  106.3215 H   0  0  0  0  0  0  0  0  0  0  0  0
  1  2  2  0  0  0  0
  1  3  1  0  0  0  0
  2  7  1  0  0  0  0
  3  6  2  0  0  0  0
  3  8  1  0  0  0  0
  4  6  1  0  0  0  0
  4  7  1  0  0  0  0
  4  9  2  0  0  0  0
  5  7  1  0  0  0  0
  5 10  1  0  0  0  0
  1 11  1  0  0  0  0
  2 12  1  0  0  0  0
  5 13  1  0  0  0  0
  5 14  1  0  0  0  0
  8 15  1  0  0  0  0
  8 16  1  0  0  0  0
 10 17  1  0  0  0  0
M  END
> <FRED Chemgauss4 score>
-6.121320

$$$$
C82467311	P128880080
  -OEChem-05182014473D

 29 28  0     1  0  0  0  0  0999 V2000
  120.3562  104.9841  102.2361 C   0  0  0  0  0  0  0  0  0  0  0  0
  125.1155  107.6002  105.7566 C   0  0  0  0  0  0  0  0  0  0  0  0
  122.5681  107.4981  107.4561 C   0  0  0  0  0  0  0  0  0  0  0  0
  120.5372  105.0381  103.7430 C   0  0  0  0  0  0  0  0  0  0  0  0
  124.1008  106.4901  105.9046 C   0  0  0  0  0  0  0  0  0  0  0  0
  121.6114  106.0376  104.1678 C   0  0  0  0  0  0  0  0  0  0  0  0
  121.7403  106.0973  105.6884 C   0  0  0  0  0  0  0  0  0  0  0  0
  125.6215  108.0125  106.9707 N   0  0  0  0  0  0  0  0  0  0  0  0
  118.7137  104.5616  100.5621 N   0  0  0  0  0  0  0  0  0  0  0  0
  119.0546  104.6554  101.8958 N   0  0  0  0  0  0  0  0  0  0  0  0
  122.7637  107.0623  106.0723 N   0  0  1  0  0  0  0  0  0  0  0  0
  121.2664  105.2076  101.4419 O   0  0  0  0  0  0  0  0  0  0  0  0
  125.4832  108.0532  104.6760 O   0  0  0  0  0  0  0  0  0  0  0  0
  121.5691  107.9248  107.5779 H   0  0  0  0  0  0  0  0  0  0  0  0
  123.3094  108.2565  107.7219 H   0  0  0  0  0  0  0  0  0  0  0  0
  122.6742  106.6501  108.1380 H   0  0  0  0  0  0  0  0  0  0  0  0
  119.5750  105.3089  104.1940 H   0  0  0  0  0  0  0  0  0  0  0  0
  120.8024  104.0328  104.0918 H   0  0  0  0  0  0  0  0  0  0  0  0
  124.3189  105.8761  106.7826 H   0  0  0  0  0  0  0  0  0  0  0  0
  124.1042  105.8691  105.0047 H   0  0  0  0  0  0  0  0  0  0  0  0
  122.5738  105.7536  103.7225 H   0  0  0  0  0  0  0  0  0  0  0  0
  121.3632  107.0317  103.7737 H   0  0  0  0  0  0  0  0  0  0  0  0
  122.0131  105.1124  106.0823 H   0  0  0  0  0  0  0  0  0  0  0  0
  120.7839  106.3840  106.1391 H   0  0  0  0  0  0  0  0  0  0  0  0
  125.3128  107.5838  107.8369 H   0  0  0  0  0  0  0  0  0  0  0  0
  126.3146  108.7500  107.0487 H   0  0  0  0  0  0  0  0  0  0  0  0
  118.0081  103.8300  100.4882 H   0  0  0  0  0  0  0  0  0  0  0  0
  119.5349  104.2104  100.0711 H   0  0  0  0  0  0  0  0  0  0  0  0
  118.3610  104.4859  102.6175 H   0  0  0  0  0  0  0  0  0  0  0  0
  1  4  1  0  0  0  0
  1 10  1  0  0  0  0
  1 12  2  0  0  0  0
  2  5  1  0  0  0  0
  2  8  1  0  0  0  0
  2 13  2  0  0  0  0
  3 11  1  0  0  0  0
  4  6  1  0  0  0  0
  5 11  1  0  0  0  0
  6  7  1  0  0  0  0
  7 11  1  0  0  0  0
  9 10  1  0  0  0  0
  3 14  1  0  0  0  0
  3 15  1  0  0  0  0
  3 16  1  0  0  0  0
  4 17  1  0  0  0  0
  4 18  1  0  0  0  0
  5 19  1  0  0  0  0
  5 20  1  0  0  0  0
  6 21  1  0  0  0  0
  6 22  1  0  0  0  0
  7 23  1  0  0  0  0
  7 24  1  0  0  0  0
  8 25  1  0  0  0  0
  8 26  1  0  0  0  0
  9 27  1  0  0  0  0
  9 28  1  0  0  0  0
 10 29  1  0  0  0  0
M  END
> <FRED Chemgauss4 score>
-6.112452

$$$$
C00392817	P06167783
  -OEChem-05182014473D

 24 24  0     1  0  0  0  0  0999 V2000
  124.0229  104.7637  107.7139 C   0  0  0  0  0  0  0  0  0  0  0  0
  122.5193  106.4219  105.8843 C   0  0  0  0  0  0  0  0  0  0  0  0
  124.4306  106.2126  107.4743 C   0  0  1  0  0  0  0  0  0  0  0  0
  121.8044  105.4704  106.8285 C   0  0  2  0  0  0  0  0  0  0  0  0
  121.1054  106.1973  107.9668 C   0  0  0  0  0  0  0  0  0  0  0  0
  124.6414  107.5313  105.3221 C   0  0  0  0  0  0  0  0  0  0  0  0
  125.9463  106.3606  107.6152 C   0  0  0  0  0  0  0  0  0  0  0  0
  122.7448  104.4675  107.2858 N   0  0  0  0  0  0  0  0  0  0  0  0
  123.8762  106.6257  106.1717 N   0  0  0  0  0  0  0  0  0  0  0  0
  124.7176  103.9588  108.3315 O   0  0  0  0  0  0  0  0  0  0  0  0
  121.8900  107.0103  105.0036 O   0  0  0  0  0  0  0  0  0  0  0  0
  126.5742  105.5176  106.6654 O   0  0  0  0  0  0  0  0  0  0  0  0
  123.9311  106.7921  108.2499 H   0  0  0  0  0  0  0  0  0  0  0  0
  121.0245  104.9338  106.2277 H   0  0  0  0  0  0  0  0  0  0  0  0
  121.8366  106.7318  108.5736 H   0  0  0  0  0  0  0  0  0  0  0  0
  120.5776  105.4822  108.5983 H   0  0  0  0  0  0  0  0  0  0  0  0
  120.3868  106.9135  107.5672 H   0  0  0  0  0  0  0  0  0  0  0  0
  124.5908  108.5495  105.7166 H   0  0  0  0  0  0  0  0  0  0  0  0
  124.2383  107.5272  104.3057 H   0  0  0  0  0  0  0  0  0  0  0  0
  125.6889  107.2201  105.2848 H   0  0  0  0  0  0  0  0  0  0  0  0
  126.2597  106.0670  108.6180 H   0  0  0  0  0  0  0  0  0  0  0  0
  126.2409  107.3941  107.4277 H   0  0  0  0  0  0  0  0  0  0  0  0
  122.4473  103.4880  107.2923 H   0  0  0  0  0  0  0  0  0  0  0  0
  127.5336  105.6299  106.7753 H   0  0  0  0  0  0  0  0  0  0  0  0
  1  3  1  0  0  0  0
  1  8  1  0  0  0  0
  1 10  2  0  0  0  0
  2  4  1  0  0  0  0
  2  9  1  0  0  0  0
  2 11  2  0  0  0  0
  3  7  1  0  0  0  0
  3  9  1  0  0  0  0
  4  5  1  0  0  0  0
  4  8  1  0  0  0  0
  6  9  1  0  0  0  0
  7 12  1  0  0  0  0
  3 13  1  0  0  0  0
  4 14  1  0  0  0  0
  5 15  1  0  0  0  0
  5 16  1  0  0  0  0
  5 17  1  0  0  0  0
  6 18  1  0  0  0  0
  6 19  1  0  0  0  0
  6 20  1  0  0  0  0
  7 21  1  0  0  0  0
  7 22  1  0  0  0  0
  8 23  1  0  0  0  0
 12 24  1  0  0  0  0
M  END
> <FRED Chemgauss4 score>
-6.110135

$$$$
C82467277	P128880059
  -OEChem-05182014473D

 33 33  0     1  0  0  0  0  0999 V2000
  126.2334  106.2651  107.6570 C   0  0  0  0  0  0  0  0  0  0  0  0
  120.5599  106.8532  106.0369 C   0  0  0  0  0  0  0  0  0  0  0  0
  119.1500  106.3839  106.3602 C   0  0  0  0  0  0  0  0  0  0  0  0
  120.5390  104.8591  104.6357 C   0  0  0  0  0  0  0  0  0  0  0  0
  121.3562  105.5986  105.6885 C   0  0  1  0  0  0  0  0  0  0  0  0
  123.2371  104.8060  104.4325 C   0  0  0  0  0  0  0  0  0  0  0  0
  125.7179  107.4702  106.8899 C   0  0  0  0  0  0  0  0  0  0  0  0
  124.7704  107.0810  105.7566 C   0  0  0  0  0  0  0  0  0  0  0  0
  123.5688  106.3001  106.2846 C   0  0  0  0  0  0  0  0  0  0  0  0
  126.9744  105.6015  109.8223 N   0  0  0  0  0  0  0  0  0  0  0  0
  126.4965  106.5832  108.9789 N   0  0  0  0  0  0  0  0  0  0  0  0
  122.6827  105.9314  105.1870 N   0  0  2  0  0  0  0  0  0  0  0  0
  126.3885  105.1593  107.1449 O   0  0  0  0  0  0  0  0  0  0  0  0
  118.8151  105.0481  105.1773 S   0  0  0  0  0  0  0  0  0  0  0  0
  120.5370  107.5537  105.1909 H   0  0  0  0  0  0  0  0  0  0  0  0
  120.9953  107.3892  106.8876 H   0  0  0  0  0  0  0  0  0  0  0  0
  119.0932  105.9781  107.3750 H   0  0  0  0  0  0  0  0  0  0  0  0
  118.4178  107.1900  106.2622 H   0  0  0  0  0  0  0  0  0  0  0  0
  120.6364  105.3119  103.6430 H   0  0  0  0  0  0  0  0  0  0  0  0
  120.8144  103.8027  104.5656 H   0  0  0  0  0  0  0  0  0  0  0  0
  121.4691  104.9739  106.5798 H   0  0  0  0  0  0  0  0  0  0  0  0
  124.2323  105.0589  104.0576 H   0  0  0  0  0  0  0  0  0  0  0  0
  122.5917  104.5658  103.5832 H   0  0  0  0  0  0  0  0  0  0  0  0
  123.3161  103.9237  105.0732 H   0  0  0  0  0  0  0  0  0  0  0  0
  125.2032  108.1317  107.5971 H   0  0  0  0  0  0  0  0  0  0  0  0
  126.5808  108.0135  106.4864 H   0  0  0  0  0  0  0  0  0  0  0  0
  124.4286  107.9855  105.2369 H   0  0  0  0  0  0  0  0  0  0  0  0
  125.3128  106.4784  105.0165 H   0  0  0  0  0  0  0  0  0  0  0  0
  123.0109  106.9084  107.0045 H   0  0  0  0  0  0  0  0  0  0  0  0
  123.9029  105.3938  106.8014 H   0  0  0  0  0  0  0  0  0  0  0  0
  127.6010  106.0589  110.4832 H   0  0  0  0  0  0  0  0  0  0  0  0
  127.5606  104.9872  109.2587 H   0  0  0  0  0  0  0  0  0  0  0  0
  126.3399  107.5257  109.3225 H   0  0  0  0  0  0  0  0  0  0  0  0
  1  7  1  0  0  0  0
  1 11  1  0  0  0  0
  1 13  2  0  0  0  0
  2  3  1  0  0  0  0
  2  5  1  0  0  0  0
  3 14  1  0  0  0  0
  4  5  1  0  0  0  0
  4 14  1  0  0  0  0
  5 12  1  0  0  0  0
  6 12  1  0  0  0  0
  7  8  1  0  0  0  0
  8  9  1  0  0  0  0
  9 12  1  0  0  0  0
 10 11  1  0  0  0  0
  2 15  1  0  0  0  0
  2 16  1  0  0  0  0
  3 17  1  0  0  0  0
  3 18  1  0  0  0  0
  4 19  1  0  0  0  0
  4 20  1  0  0  0  0
  5 21  1  0  0  0  0
  6 22  1  0  0  0  0
  6 23  1  0  0  0  0
  6 24  1  0  0  0  0
  7 25  1  0  0  0  0
  7 26  1  0  0  0  0
  8 27  1  0  0  0  0
  8 28  1  0  0  0  0
  9 29  1  0  0  0  0
  9 30  1  0  0  0  0
 10 31  1  0  0  0  0
 10 32  1  0  0  0  0
 11 33  1  0  0  0  0
M  END
> <FRED Chemgauss4 score>
-6.109854

$$$$
C87971498	P137595737
  -OEChem-05182014473D

 27 27  0     1  0  0  0  0  0999 V2000
  118.7198  104.5765  106.4277 C   0  0  0  0  0  0  0  0  0  0  0  0
  119.8757  103.6351  106.0936 C   0  0  0  0  0  0  0  0  0  0  0  0
  118.3143  105.2254  105.1113 C   0  0  0  0  0  0  0  0  0  0  0  0
  120.8715  104.4274  105.2343 C   0  0  2  0  0  0  0  0  0  0  0  0
  121.8948  105.1822  106.0703 C   0  0  0  0  0  0  0  0  0  0  0  0
  123.7975  106.6430  105.9896 C   0  0  0  0  0  0  0  0  0  0  0  0
  124.7032  107.4039  105.0387 C   0  0  0  0  0  0  0  0  0  0  0  0
  122.7982  105.8917  105.2219 N   0  0  0  0  0  0  0  0  0  0  0  0
  120.2319  106.9091  104.4861 O   0  0  0  0  0  0  0  0  0  0  0  0
  119.7352  104.9924  102.9086 O   0  0  0  0  0  0  0  0  0  0  0  0
  125.6473  108.1583  105.7880 O   0  0  0  0  0  0  0  0  0  0  0  0
  119.8462  105.5334  104.2478 S   0  0  0  0  0  0  0  0  0  0  0  0
  117.8809  104.0000  106.8344 H   0  0  0  0  0  0  0  0  0  0  0  0
  119.0054  105.3252  107.1715 H   0  0  0  0  0  0  0  0  0  0  0  0
  120.3536  103.2938  107.0269 H   0  0  0  0  0  0  0  0  0  0  0  0
  119.5221  102.7375  105.5642 H   0  0  0  0  0  0  0  0  0  0  0  0
  117.6707  104.5829  104.5084 H   0  0  0  0  0  0  0  0  0  0  0  0
  117.8285  106.1894  105.2836 H   0  0  0  0  0  0  0  0  0  0  0  0
  121.3724  103.7624  104.5372 H   0  0  0  0  0  0  0  0  0  0  0  0
  122.4588  104.4751  106.6707 H   0  0  0  0  0  0  0  0  0  0  0  0
  121.3853  105.8932  106.7127 H   0  0  0  0  0  0  0  0  0  0  0  0
  124.3672  105.9333  106.5978 H   0  0  0  0  0  0  0  0  0  0  0  0
  123.2691  107.3373  106.6499 H   0  0  0  0  0  0  0  0  0  0  0  0
  124.1131  108.1027  104.4376 H   0  0  0  0  0  0  0  0  0  0  0  0
  125.2447  106.7269  104.3700 H   0  0  0  0  0  0  0  0  0  0  0  0
  123.3000  105.2424  104.6004 H   0  0  0  0  0  0  0  0  0  0  0  0
  126.2037  108.6271  105.1454 H   0  0  0  0  0  0  0  0  0  0  0  0
  1  2  1  0  0  0  0
  1  3  1  0  0  0  0
  2  4  1  0  0  0  0
  3 12  1  0  0  0  0
  4  5  1  0  0  0  0
  4 12  1  0  0  0  0
  5  8  1  0  0  0  0
  6  7  1  0  0  0  0
  6  8  1  0  0  0  0
  7 11  1  0  0  0  0
  9 12  2  0  0  0  0
 10 12  2  0  0  0  0
  1 13  1  0  0  0  0
  1 14  1  0  0  0  0
  2 15  1  0  0  0  0
  2 16  1  0  0  0  0
  3 17  1  0  0  0  0
  3 18  1  0  0  0  0
  4 19  1  0  0  0  0
  5 20  1  0  0  0  0
  5 21  1  0  0  0  0
  6 22  1  0  0  0  0
  6 23  1  0  0  0  0
  7 24  1  0  0  0  0
  7 25  1  0  0  0  0
  8 26  1  0  0  0  0
 11 27  1  0  0  0  0
M  END
> <FRED Chemgauss4 score>
-6.107332

$$$$
C87400800	P136736128
  -OEChem-05182014473D

 31 31  0     1  0  0  0  0  0999 V2000
  125.7934  106.7463  106.4012 C   0  0  0  0  0  0  0  0  0  0  0  0
  123.7487  105.5499  106.8159 C   0  0  0  0  0  0  0  0  0  0  0  0
  125.0947  107.5146  105.4841 C   0  0  0  0  0  0  0  0  0  0  0  0
  125.1003  105.7472  107.0756 C   0  0  0  0  0  0  0  0  0  0  0  0
  123.1414  106.3719  105.8804 C   0  0  0  0  0  0  0  0  0  0  0  0
  125.7474  105.4553  109.5022 C   0  0  0  0  0  0  0  0  0  0  0  0
  121.2121  106.4481  104.3208 C   0  0  0  0  0  0  0  0  0  0  0  0
  120.9051  105.6334  106.6640 C   0  0  0  0  0  0  0  0  0  0  0  0
  120.3244  104.3028  106.2213 C   0  0  0  0  0  0  0  0  0  0  0  0
  125.8039  104.8924  108.0740 C   0  0  2  0  0  0  0  0  0  0  0  0
  123.7818  107.3526  105.2053 N   0  0  0  0  0  0  0  0  0  0  0  0
  127.1861  104.6412  107.7019 N   0  0  0  0  0  0  0  0  0  0  0  0
  121.7640  106.1574  105.6253 N   0  0  0  0  0  0  0  0  0  0  0  0
  121.3828  103.3960  105.9394 O   0  0  0  0  0  0  0  0  0  0  0  0
  126.8480  106.9249  106.5813 H   0  0  0  0  0  0  0  0  0  0  0  0
  123.1922  104.7736  107.3326 H   0  0  0  0  0  0  0  0  0  0  0  0
  125.5898  108.3061  104.9315 H   0  0  0  0  0  0  0  0  0  0  0  0
  126.1907  106.4564  109.5410 H   0  0  0  0  0  0  0  0  0  0  0  0
  124.7144  105.5276  109.8608 H   0  0  0  0  0  0  0  0  0  0  0  0
  126.2896  104.8179  110.2096 H   0  0  0  0  0  0  0  0  0  0  0  0
  120.1423  106.2238  104.3070 H   0  0  0  0  0  0  0  0  0  0  0  0
  121.7084  105.8433  103.5571 H   0  0  0  0  0  0  0  0  0  0  0  0
  121.3533  107.5047  104.0776 H   0  0  0  0  0  0  0  0  0  0  0  0
  120.1154  106.3661  106.8581 H   0  0  0  0  0  0  0  0  0  0  0  0
  121.5050  105.5046  107.5700 H   0  0  0  0  0  0  0  0  0  0  0  0
  119.7400  104.4351  105.3055 H   0  0  0  0  0  0  0  0  0  0  0  0
  119.6832  103.8664  106.9940 H   0  0  0  0  0  0  0  0  0  0  0  0
  125.3431  103.8891  108.1104 H   0  0  0  0  0  0  0  0  0  0  0  0
  127.4048  104.5262  106.7327 H   0  0  0  0  0  0  0  0  0  0  0  0
  127.8345  104.3900  108.4210 H   0  0  0  0  0  0  0  0  0  0  0  0
  120.9701  102.5626  105.6615 H   0  0  0  0  0  0  0  0  0  0  0  0
  1  3  2  0  0  0  0
  1  4  1  0  0  0  0
  2  4  2  0  0  0  0
  2  5  1  0  0  0  0
  3 11  1  0  0  0  0
  4 10  1  0  0  0  0
  5 11  2  0  0  0  0
  5 13  1  0  0  0  0
  6 10  1  0  0  0  0
  7 13  1  0  0  0  0
  8  9  1  0  0  0  0
  8 13  1  0  0  0  0
  9 14  1  0  0  0  0
 10 12  1  0  0  0  0
  1 15  1  0  0  0  0
  2 16  1  0  0  0  0
  3 17  1  0  0  0  0
  6 18  1  0  0  0  0
  6 19  1  0  0  0  0
  6 20  1  0  0  0  0
  7 21  1  0  0  0  0
  7 22  1  0  0  0  0
  7 23  1  0  0  0  0
  8 24  1  0  0  0  0
  8 25  1  0  0  0  0
  9 26  1  0  0  0  0
  9 27  1  0  0  0  0
 10 28  1  0  0  0  0
 12 29  1  0  0  0  0
 12 30  1  0  0  0  0
 14 31  1  0  0  0  0
M  END
> <FRED Chemgauss4 score>
-6.106470

$$$$
C87688032	P137156844
  -OEChem-05182014473D

 24 25  0     1  0  0  0  0  0999 V2000
  124.3757  107.2358  105.8159 C   0  0  0  0  0  0  0  0  0  0  0  0
  122.2860  106.8321  105.8453 C   0  0  0  0  0  0  0  0  0  0  0  0
  124.1849  106.3614  106.8597 C   0  0  0  0  0  0  0  0  0  0  0  0
  120.9225  105.7474  108.6116 C   0  0  0  0  0  0  0  0  0  0  0  0
  122.2042  105.4186  109.3108 C   0  0  0  0  0  0  0  0  0  0  0  0
  122.0913  105.2112  107.8186 C   0  0  0  0  0  0  0  0  0  0  0  0
  125.1576  105.7437  107.8476 C   0  0  1  0  0  0  0  0  0  0  0  0
  125.1329  104.2165  107.7980 C   0  0  0  0  0  0  0  0  0  0  0  0
  123.1897  107.5251  105.1887 N   0  0  0  0  0  0  0  0  0  0  0  0
  122.8414  106.1123  106.8664 N   0  0  0  0  0  0  0  0  0  0  0  0
  126.5278  106.2188  107.6382 N   0  0  0  0  0  0  0  0  0  0  0  0
  125.5017  103.7574  106.5774 F   0  0  0  0  0  0  0  0  0  0  0  0
  126.0200  103.7109  108.6927 F   0  0  0  0  0  0  0  0  0  0  0  0
  125.3058  107.6733  105.4826 H   0  0  0  0  0  0  0  0  0  0  0  0
  121.2261  106.8143  105.6308 H   0  0  0  0  0  0  0  0  0  0  0  0
  120.0770  105.0893  108.7705 H   0  0  0  0  0  0  0  0  0  0  0  0
  120.6623  106.7935  108.5038 H   0  0  0  0  0  0  0  0  0  0  0  0
  122.8056  106.2432  109.6738 H   0  0  0  0  0  0  0  0  0  0  0  0
  122.2245  104.5376  109.9405 H   0  0  0  0  0  0  0  0  0  0  0  0
  122.0378  104.2114  107.4459 H   0  0  0  0  0  0  0  0  0  0  0  0
  124.8583  106.0450  108.8595 H   0  0  0  0  0  0  0  0  0  0  0  0
  124.1441  103.8111  108.0347 H   0  0  0  0  0  0  0  0  0  0  0  0
  127.2720  105.6558  107.9823 H   0  0  0  0  0  0  0  0  0  0  0  0
  126.6527  107.1628  107.3506 H   0  0  0  0  0  0  0  0  0  0  0  0
  1  3  2  0  0  0  0
  1  9  1  0  0  0  0
  2  9  2  0  0  0  0
  2 10  1  0  0  0  0
  3  7  1  0  0  0  0
  3 10  1  0  0  0  0
  4  5  1  0  0  0  0
  4  6  1  0  0  0  0
  5  6  1  0  0  0  0
  6 10  1  0  0  0  0
  7  8  1  0  0  0  0
  7 11  1  0  0  0  0
  8 12  1  0  0  0  0
  8 13  1  0  0  0  0
  1 14  1  0  0  0  0
  2 15  1  0  0  0  0
  4 16  1  0  0  0  0
  4 17  1  0  0  0  0
  5 18  1  0  0  0  0
  5 19  1  0  0  0  0
  6 20  1  0  0  0  0
  7 21  1  0  0  0  0
  8 22  1  0  0  0  0
 11 23  1  0  0  0  0
 11 24  1  0  0  0  0
M  END
> <FRED Chemgauss4 score>
-6.103959

$$$$
C05517273	P08195376
  -OEChem-05182014473D

 21 21  0     1  0  0  0  0  0999 V2000
  125.7809  105.4142  107.5560 C   0  0  0  0  0  0  0  0  0  0  0  0
  124.1235  107.0062  106.4985 C   0  0  0  0  0  0  0  0  0  0  0  0
  123.4812  105.2920  108.2038 C   0  0  0  0  0  0  0  0  0  0  0  0
  124.2837  104.2782  108.9995 C   0  0  0  0  0  0  0  0  0  0  0  0
  124.3819  105.6278  107.0094 C   0  0  2  0  0  0  0  0  0  0  0  0
  125.6362  104.6582  108.7137 N   0  0  0  0  0  0  0  0  0  0  0  0
  126.7129  104.1458  109.3983 N   0  0  0  0  0  0  0  0  0  0  0  0
  124.1924  109.3013  107.1233 N   0  0  0  0  0  0  0  0  0  0  0  0
  124.3595  107.9730  107.4570 N   0  0  0  0  0  0  0  0  0  0  0  0
  126.8120  105.8169  107.0384 O   0  0  0  0  0  0  0  0  0  0  0  0
  123.7682  107.2084  105.3396 O   0  0  0  0  0  0  0  0  0  0  0  0
  122.5622  104.8199  107.8375 H   0  0  0  0  0  0  0  0  0  0  0  0
  123.1978  106.1577  108.8075 H   0  0  0  0  0  0  0  0  0  0  0  0
  124.1098  104.3835  110.0748 H   0  0  0  0  0  0  0  0  0  0  0  0
  124.0881  103.2499  108.6850 H   0  0  0  0  0  0  0  0  0  0  0  0
  124.1981  104.9127  106.1889 H   0  0  0  0  0  0  0  0  0  0  0  0
  127.4929  103.9051  108.7605 H   0  0  0  0  0  0  0  0  0  0  0  0
  126.4809  103.2447  109.8529 H   0  0  0  0  0  0  0  0  0  0  0  0
  123.8560  109.7764  107.9597 H   0  0  0  0  0  0  0  0  0  0  0  0
  123.4286  109.3434  106.4499 H   0  0  0  0  0  0  0  0  0  0  0  0
  124.6515  107.7099  108.3930 H   0  0  0  0  0  0  0  0  0  0  0  0
  1  5  1  0  0  0  0
  1  6  1  0  0  0  0
  1 10  2  0  0  0  0
  2  5  1  0  0  0  0
  2  9  1  0  0  0  0
  2 11  2  0  0  0  0
  3  4  1  0  0  0  0
  3  5  1  0  0  0  0
  4  6  1  0  0  0  0
  6  7  1  0  0  0  0
  8  9  1  0  0  0  0
  3 12  1  0  0  0  0
  3 13  1  0  0  0  0
  4 14  1  0  0  0  0
  4 15  1  0  0  0  0
  5 16  1  0  0  0  0
  7 17  1  0  0  0  0
  7 18  1  0  0  0  0
  8 19  1  0  0  0  0
  8 20  1  0  0  0  0
  9 21  1  0  0  0  0
M  END
> <FRED Chemgauss4 score>
-6.103606

$$$$
C62780094	P96346646
  -OEChem-05182014473D

 25 26  0     1  0  0  0  0  0999 V2000
  118.8280  105.0625  105.5480 C   0  0  0  0  0  0  0  0  0  0  0  0
  120.1783  103.8750  106.8135 C   0  0  0  0  0  0  0  0  0  0  0  0
  120.1651  104.9644  105.9771 C   0  0  0  0  0  0  0  0  0  0  0  0
  121.3225  105.8145  105.6340 C   0  0  0  0  0  0  0  0  0  0  0  0
  123.2611  106.6189  105.5305 C   0  0  0  0  0  0  0  0  0  0  0  0
  124.4431  105.7644  108.1881 C   0  0  0  0  0  0  0  0  0  0  0  0
  124.9876  106.9161  107.3520 C   0  0  0  0  0  0  0  0  0  0  0  0
  124.7396  106.7207  105.8464 C   0  0  2  0  0  0  0  0  0  0  0  0
  118.0483  104.1112  106.0687 N   0  0  0  0  0  0  0  0  0  0  0  0
  121.2414  106.8449  104.8251 N   0  0  0  0  0  0  0  0  0  0  0  0
  122.5167  107.3740  104.7569 N   0  0  0  0  0  0  0  0  0  0  0  0
  118.8982  103.4049  106.8335 N   0  0  0  0  0  0  0  0  0  0  0  0
  125.3562  107.7744  105.0717 N   0  0  0  0  0  0  0  0  0  0  0  0
  122.5747  105.6046  106.1246 O   0  0  0  0  0  0  0  0  0  0  0  0
  118.3852  105.7860  104.8778 H   0  0  0  0  0  0  0  0  0  0  0  0
  120.9629  103.3992  107.3852 H   0  0  0  0  0  0  0  0  0  0  0  0
  124.8747  104.8102  107.8696 H   0  0  0  0  0  0  0  0  0  0  0  0
  124.6945  105.9140  109.2430 H   0  0  0  0  0  0  0  0  0  0  0  0
  123.3538  105.6940  108.1098 H   0  0  0  0  0  0  0  0  0  0  0  0
  124.5310  107.8501  107.7029 H   0  0  0  0  0  0  0  0  0  0  0  0
  126.0655  106.9997  107.5409 H   0  0  0  0  0  0  0  0  0  0  0  0
  125.2371  105.7958  105.5292 H   0  0  0  0  0  0  0  0  0  0  0  0
  118.5360  102.6100  107.3450 H   0  0  0  0  0  0  0  0  0  0  0  0
  125.0224  107.9491  104.1413 H   0  0  0  0  0  0  0  0  0  0  0  0
  126.2232  108.1660  105.3922 H   0  0  0  0  0  0  0  0  0  0  0  0
  1  3  1  0  0  0  0
  1  9  2  0  0  0  0
  2  3  2  0  0  0  0
  2 12  1  0  0  0  0
  3  4  1  0  0  0  0
  4 10  2  0  0  0  0
  4 14  1  0  0  0  0
  5  8  1  0  0  0  0
  5 11  2  0  0  0  0
  5 14  1  0  0  0  0
  6  7  1  0  0  0  0
  7  8  1  0  0  0  0
  8 13  1  0  0  0  0
  9 12  1  0  0  0  0
 10 11  1  0  0  0  0
  1 15  1  0  0  0  0
  2 16  1  0  0  0  0
  6 17  1  0  0  0  0
  6 18  1  0  0  0  0
  6 19  1  0  0  0  0
  7 20  1  0  0  0  0
  7 21  1  0  0  0  0
  8 22  1  0  0  0  0
 12 23  1  0  0  0  0
 13 24  1  0  0  0  0
 13 25  1  0  0  0  0
M  END
> <FRED Chemgauss4 score>
-6.102606

$$$$
C82450205	P128859289
  -OEChem-05182014473D

 21 21  0     1  0  0  0  0  0999 V2000
  124.5096  106.9303  105.9213 C   0  0  0  0  0  0  0  0  0  0  0  0
  123.1700  107.0353  106.0599 C   0  0  0  0  0  0  0  0  0  0  0  0
  125.4162  107.3340  107.0197 C   0  0  0  0  0  0  0  0  0  0  0  0
  123.3875  107.8748  108.1909 C   0  0  0  0  0  0  0  0  0  0  0  0
  121.3101  108.5134  109.3934 C   0  0  0  0  0  0  0  0  0  0  0  0
  122.8172  108.4069  109.4741 C   0  0  2  0  0  0  0  0  0  0  0  0
  122.5984  107.5208  107.2263 N   0  0  0  0  0  0  0  0  0  0  0  0
  124.7594  107.8020  108.1351 N   0  0  0  0  0  0  0  0  0  0  0  0
  122.3760  106.6444  105.0046 N   0  0  0  0  0  0  0  0  0  0  0  0
  123.4418  109.6857  109.6452 N   0  0  0  0  0  0  0  0  0  0  0  0
  126.6338  107.2428  106.9057 O   0  0  0  0  0  0  0  0  0  0  0  0
  124.9704  106.5521  105.0145 H   0  0  0  0  0  0  0  0  0  0  0  0
  120.9929  109.1654  108.5713 H   0  0  0  0  0  0  0  0  0  0  0  0
  120.8638  107.5276  109.2249 H   0  0  0  0  0  0  0  0  0  0  0  0
  120.8964  108.9250  110.3200 H   0  0  0  0  0  0  0  0  0  0  0  0
  123.1301  107.7575  110.2930 H   0  0  0  0  0  0  0  0  0  0  0  0
  125.3167  108.0978  108.9312 H   0  0  0  0  0  0  0  0  0  0  0  0
  122.8228  106.3030  104.1891 H   0  0  0  0  0  0  0  0  0  0  0  0
  121.3940  106.7223  105.1086 H   0  0  0  0  0  0  0  0  0  0  0  0
  124.3861  109.8246  109.3153 H   0  0  0  0  0  0  0  0  0  0  0  0
  123.0215  110.3639  110.2644 H   0  0  0  0  0  0  0  0  0  0  0  0
  1  2  2  0  0  0  0
  1  3  1  0  0  0  0
  2  7  1  0  0  0  0
  2  9  1  0  0  0  0
  3  8  1  0  0  0  0
  3 11  2  0  0  0  0
  4  6  1  0  0  0  0
  4  7  2  0  0  0  0
  4  8  1  0  0  0  0
  5  6  1  0  0  0  0
  6 10  1  0  0  0  0
  1 12  1  0  0  0  0
  5 13  1  0  0  0  0
  5 14  1  0  0  0  0
  5 15  1  0  0  0  0
  6 16  1  0  0  0  0
  8 17  1  0  0  0  0
  9 18  1  0  0  0  0
  9 19  1  0  0  0  0
 10 20  1  0  0  0  0
 10 21  1  0  0  0  0
M  END
> <FRED Chemgauss4 score>
-6.096568

$$$$
C84991573	P133024479
  -OEChem-05182014473D

 28 28  0     1  0  0  0  0  0999 V2000
  118.6303  104.4806  105.9819 C   0  0  0  0  0  0  0  0  0  0  0  0
  119.9549  103.8407  106.3143 C   0  0  0  0  0  0  0  0  0  0  0  0
  118.7359  105.8095  106.6994 C   0  0  0  0  0  0  0  0  0  0  0  0
  120.8903  105.0362  106.2605 C   0  0  2  0  0  0  0  0  0  0  0  0
  122.1328  104.8710  107.1138 C   0  0  0  0  0  0  0  0  0  0  0  0
  123.0567  106.0873  106.9982 C   0  0  0  0  0  0  0  0  0  0  0  0
  124.7763  107.2212  105.5429 C   0  0  0  0  0  0  0  0  0  0  0  0
  123.5525  106.3039  105.5632 C   0  0  2  0  0  0  0  0  0  0  0  0
  124.4460  108.5121  106.1046 N   0  0  0  0  0  0  0  0  0  0  0  0
  120.1269  106.1631  106.7230 O   0  0  0  0  0  0  0  0  0  0  0  0
  122.5011  106.9078  104.8108 O   0  0  0  0  0  0  0  0  0  0  0  0
  118.5571  104.6440  104.9001 H   0  0  0  0  0  0  0  0  0  0  0  0
  117.7650  103.8922  106.2979 H   0  0  0  0  0  0  0  0  0  0  0  0
  119.9148  103.4166  107.3250 H   0  0  0  0  0  0  0  0  0  0  0  0
  120.2400  103.0460  105.6195 H   0  0  0  0  0  0  0  0  0  0  0  0
  118.1628  106.5996  106.2062 H   0  0  0  0  0  0  0  0  0  0  0  0
  118.3962  105.7271  107.7373 H   0  0  0  0  0  0  0  0  0  0  0  0
  121.1778  105.2453  105.2227 H   0  0  0  0  0  0  0  0  0  0  0  0
  121.8340  104.7302  108.1590 H   0  0  0  0  0  0  0  0  0  0  0  0
  122.6601  103.9626  106.8011 H   0  0  0  0  0  0  0  0  0  0  0  0
  122.5086  106.9764  107.3353 H   0  0  0  0  0  0  0  0  0  0  0  0
  123.9150  105.9547  107.6679 H   0  0  0  0  0  0  0  0  0  0  0  0
  125.5970  106.7878  106.1243 H   0  0  0  0  0  0  0  0  0  0  0  0
  125.1244  107.3735  104.5160 H   0  0  0  0  0  0  0  0  0  0  0  0
  123.7859  105.3360  105.1031 H   0  0  0  0  0  0  0  0  0  0  0  0
  124.9874  109.3115  105.8301 H   0  0  0  0  0  0  0  0  0  0  0  0
  123.8305  108.5513  106.8965 H   0  0  0  0  0  0  0  0  0  0  0  0
  122.2997  107.7495  105.2473 H   0  0  0  0  0  0  0  0  0  0  0  0
  1  2  1  0  0  0  0
  1  3  1  0  0  0  0
  2  4  1  0  0  0  0
  3 10  1  0  0  0  0
  4  5  1  0  0  0  0
  4 10  1  0  0  0  0
  5  6  1  0  0  0  0
  6  8  1  0  0  0  0
  7  8  1  0  0  0  0
  7  9  1  0  0  0  0
  8 11  1  0  0  0  0
  1 12  1  0  0  0  0
  1 13  1  0  0  0  0
  2 14  1  0  0  0  0
  2 15  1  0  0  0  0
  3 16  1  0  0  0  0
  3 17  1  0  0  0  0
  4 18  1  0  0  0  0
  5 19  1  0  0  0  0
  5 20  1  0  0  0  0
  6 21  1  0  0  0  0
  6 22  1  0  0  0  0
  7 23  1  0  0  0  0
  7 24  1  0  0  0  0
  8 25  1  0  0  0  0
  9 26  1  0  0  0  0
  9 27  1  0  0  0  0
 11 28  1  0  0  0  0
M  END
> <FRED Chemgauss4 score>
-6.095132

$$$$
C86007953	P134727430
  -OEChem-05182014473D

 33 33  0     1  0  0  0  0  0999 V2000
  119.6023  106.0489  105.2792 C   0  0  0  0  0  0  0  0  0  0  0  0
  121.2204  104.7588  106.5100 C   0  0  0  0  0  0  0  0  0  0  0  0
  120.7482  106.8327  104.6469 C   0  0  0  0  0  0  0  0  0  0  0  0
  122.3381  105.5707  105.8446 C   0  0  2  0  0  0  0  0  0  0  0  0
  117.8070  103.8041  105.3108 C   0  0  0  0  0  0  0  0  0  0  0  0
  123.5374  105.7149  106.7716 C   0  0  0  0  0  0  0  0  0  0  0  0
  118.9731  103.9242  106.2319 C   0  0  0  0  0  0  0  0  0  0  0  0
  124.5611  107.0349  104.8812 C   0  0  0  0  0  0  0  0  0  0  0  0
  124.4359  106.9014  106.3991 C   0  0  1  0  0  0  0  0  0  0  0  0
  120.0540  104.6922  105.6169 N   0  0  1  0  0  0  0  0  0  0  0  0
  123.8743  108.1295  106.9292 N   0  0  0  0  0  0  0  0  0  0  0  0
  121.8645  106.8864  105.5356 O   0  0  0  0  0  0  0  0  0  0  0  0
  125.7172  107.8038  104.5687 O   0  0  0  0  0  0  0  0  0  0  0  0
  119.2568  106.5708  106.1811 H   0  0  0  0  0  0  0  0  0  0  0  0
  118.7673  106.0061  104.5705 H   0  0  0  0  0  0  0  0  0  0  0  0
  121.5869  103.7474  106.7228 H   0  0  0  0  0  0  0  0  0  0  0  0
  120.9375  105.2234  107.4642 H   0  0  0  0  0  0  0  0  0  0  0  0
  121.0610  106.3935  103.6916 H   0  0  0  0  0  0  0  0  0  0  0  0
  120.4310  107.8616  104.4494 H   0  0  0  0  0  0  0  0  0  0  0  0
  122.6683  105.0856  104.9168 H   0  0  0  0  0  0  0  0  0  0  0  0
  117.4072  104.7915  105.0557 H   0  0  0  0  0  0  0  0  0  0  0  0
  118.0886  103.2800  104.3911 H   0  0  0  0  0  0  0  0  0  0  0  0
  117.0079  103.2311  105.7962 H   0  0  0  0  0  0  0  0  0  0  0  0
  124.1214  104.7873  106.7248 H   0  0  0  0  0  0  0  0  0  0  0  0
  123.1803  105.8158  107.8045 H   0  0  0  0  0  0  0  0  0  0  0  0
  119.3673  102.9348  106.4825 H   0  0  0  0  0  0  0  0  0  0  0  0
  118.6864  104.4339  107.1565 H   0  0  0  0  0  0  0  0  0  0  0  0
  124.6526  106.0567  104.3965 H   0  0  0  0  0  0  0  0  0  0  0  0
  123.6924  107.5556  104.4650 H   0  0  0  0  0  0  0  0  0  0  0  0
  125.4328  106.7662  106.8349 H   0  0  0  0  0  0  0  0  0  0  0  0
  124.1250  108.9967  106.4956 H   0  0  0  0  0  0  0  0  0  0  0  0
  123.4235  108.1028  107.8232 H   0  0  0  0  0  0  0  0  0  0  0  0
  125.7584  107.8635  103.6011 H   0  0  0  0  0  0  0  0  0  0  0  0
  1  3  1  0  0  0  0
  1 10  1  0  0  0  0
  2  4  1  0  0  0  0
  2 10  1  0  0  0  0
  3 12  1  0  0  0  0
  4  6  1  0  0  0  0
  4 12  1  0  0  0  0
  5  7  1  0  0  0  0
  6  9  1  0  0  0  0
  7 10  1  0  0  0  0
  8  9  1  0  0  0  0
  8 13  1  0  0  0  0
  9 11  1  0  0  0  0
  1 14  1  0  0  0  0
  1 15  1  0  0  0  0
  2 16  1  0  0  0  0
  2 17  1  0  0  0  0
  3 18  1  0  0  0  0
  3 19  1  0  0  0  0
  4 20  1  0  0  0  0
  5 21  1  0  0  0  0
  5 22  1  0  0  0  0
  5 23  1  0  0  0  0
  6 24  1  0  0  0  0
  6 25  1  0  0  0  0
  7 26  1  0  0  0  0
  7 27  1  0  0  0  0
  8 28  1  0  0  0  0
  8 29  1  0  0  0  0
  9 30  1  0  0  0  0
 11 31  1  0  0  0  0
 11 32  1  0  0  0  0
 13 33  1  0  0  0  0
M  END
> <FRED Chemgauss4 score>
-6.091555

$$$$
C90311277	P141184880
  -OEChem-05182014473D

 41 42  0     1  0  0  0  0  0999 V2000
  120.9683  106.1552  105.2088 C   0  0  0  0  0  0  0  0  0  0  0  0
  120.0154  106.5405  106.1817 C   0  0  0  0  0  0  0  0  0  0  0  0
  120.2614  105.5292  104.2086 C   0  0  0  0  0  0  0  0  0  0  0  0
  118.7940  106.1226  105.7067 C   0  0  0  0  0  0  0  0  0  0  0  0
  122.4401  106.3573  105.2182 C   0  0  0  0  0  0  0  0  0  0  0  0
  125.1668  105.7969  108.5079 C   0  0  0  0  0  0  0  0  0  0  0  0
  124.9567  106.9491  107.5073 C   0  0  2  0  0  0  0  0  0  0  0  0
  124.5600  105.9049  106.4377 C   0  0  1  0  0  0  0  0  0  0  0  0
  125.2067  104.8043  107.3228 C   0  0  2  0  0  0  0  0  0  0  0  0
  120.2733  107.2470  107.4509 C   0  0  0  0  0  0  0  0  0  0  0  0
  120.6470  104.9047  102.9339 C   0  0  0  0  0  0  0  0  0  0  0  0
  117.4225  106.2114  106.2296 C   0  0  0  0  0  0  0  0  0  0  0  0
  124.7343  103.0775  105.1853 C   0  0  0  0  0  0  0  0  0  0  0  0
  124.9177  102.5877  106.6060 C   0  0  0  0  0  0  0  0  0  0  0  0
  126.2634  107.5045  107.1532 N   0  0  0  0  0  0  0  0  0  0  0  0
  123.1113  105.7752  106.2737 N   0  0  0  0  0  0  0  0  0  0  0  0
  122.9598  107.0257  104.3285 O   0  0  0  0  0  0  0  0  0  0  0  0
  118.9353  105.5053  104.5044 O   0  0  0  0  0  0  0  0  0  0  0  0
  124.4635  103.5851  107.4991 O   0  0  0  0  0  0  0  0  0  0  0  0
  126.1078  105.8144  109.0856 H   0  0  0  0  0  0  0  0  0  0  0  0
  124.3421  105.6483  109.2226 H   0  0  0  0  0  0  0  0  0  0  0  0
  124.1932  107.6805  107.7845 H   0  0  0  0  0  0  0  0  0  0  0  0
  125.0504  106.0051  105.4644 H   0  0  0  0  0  0  0  0  0  0  0  0
  126.2371  104.5515  107.0105 H   0  0  0  0  0  0  0  0  0  0  0  0
  120.2201  108.3400  107.3160 H   0  0  0  0  0  0  0  0  0  0  0  0
  119.5463  106.9709  108.2342 H   0  0  0  0  0  0  0  0  0  0  0  0
  121.2692  107.0087  107.8630 H   0  0  0  0  0  0  0  0  0  0  0  0
  120.8740  103.8319  103.0638 H   0  0  0  0  0  0  0  0  0  0  0  0
  119.8514  104.9843  102.1707 H   0  0  0  0  0  0  0  0  0  0  0  0
  121.5397  105.3801  102.4877 H   0  0  0  0  0  0  0  0  0  0  0  0
  116.9234  107.1383  105.8961 H   0  0  0  0  0  0  0  0  0  0  0  0
  116.7939  105.3622  105.9043 H   0  0  0  0  0  0  0  0  0  0  0  0
  117.3936  106.1998  107.3348 H   0  0  0  0  0  0  0  0  0  0  0  0
  123.6804  103.2801  104.9755 H   0  0  0  0  0  0  0  0  0  0  0  0
  125.3110  103.9925  105.0150 H   0  0  0  0  0  0  0  0  0  0  0  0
  125.1001  102.3330  104.4704 H   0  0  0  0  0  0  0  0  0  0  0  0
  125.9738  102.3870  106.8093 H   0  0  0  0  0  0  0  0  0  0  0  0
  124.3403  101.6739  106.7747 H   0  0  0  0  0  0  0  0  0  0  0  0
  126.8998  107.7231  107.8911 H   0  0  0  0  0  0  0  0  0  0  0  0
  126.3997  107.8343  106.2204 H   0  0  0  0  0  0  0  0  0  0  0  0
  122.6171  105.2901  107.0082 H   0  0  0  0  0  0  0  0  0  0  0  0
  1  2  1  0  0  0  0
  1  3  2  0  0  0  0
  1  5  1  0  0  0  0
  2  4  2  0  0  0  0
  2 10  1  0  0  0  0
  3 11  1  0  0  0  0
  3 18  1  0  0  0  0
  4 12  1  0  0  0  0
  4 18  1  0  0  0  0
  5 16  1  0  0  0  0
  5 17  2  0  0  0  0
  6  7  1  0  0  0  0
  6  9  1  0  0  0  0
  7  8  1  0  0  0  0
  7 15  1  0  0  0  0
  8  9  1  0  0  0  0
  8 16  1  0  0  0  0
  9 19  1  0  0  0  0
 13 14  1  0  0  0  0
 14 19  1  0  0  0  0
  6 20  1  0  0  0  0
  6 21  1  0  0  0  0
  7 22  1  0  0  0  0
  8 23  1  0  0  0  0
  9 24  1  0  0  0  0
 10 25  1  0  0  0  0
 10 26  1  0  0  0  0
 10 27  1  0  0  0  0
 11 28  1  0  0  0  0
 11 29  1  0  0  0  0
 11 30  1  0  0  0  0
 12 31  1  0  0  0  0
 12 32  1  0  0  0  0
 12 33  1  0  0  0  0
 13 34  1  0  0  0  0
 13 35  1  0  0  0  0
 13 36  1  0  0  0  0
 14 37  1  0  0  0  0
 14 38  1  0  0  0  0
 15 39  1  0  0  0  0
 15 40  1  0  0  0  0
 16 41  1  0  0  0  0
M  END
> <FRED Chemgauss4 score>
-6.091530

$$$$
C34538857	P89695694
  -OEChem-05182014473D

 17 17  0     1  0  0  0  0  0999 V2000
  125.0094  106.3176  107.8838 C   0  0  0  0  0  0  0  0  0  0  0  0
  124.1739  108.2492  106.8238 C   0  0  1  0  0  0  0  0  0  0  0  0
  123.1332  107.1354  106.7070 C   0  0  2  0  0  0  0  0  0  0  0  0
  123.2441  104.6371  107.1816 C   0  0  0  0  0  0  0  0  0  0  0  0
  125.1645  107.7062  107.7196 N   0  0  0  0  0  0  0  0  0  0  0  0
  123.8327  105.9599  107.1990 N   0  0  0  0  0  0  0  0  0  0  0  0
  125.7594  105.5819  108.5115 O   0  0  0  0  0  0  0  0  0  0  0  0
  124.7975  108.5100  105.5772 O   0  0  0  0  0  0  0  0  0  0  0  0
  122.6756  106.9349  105.3843 O   0  0  0  0  0  0  0  0  0  0  0  0
  123.7787  109.1465  107.2522 H   0  0  0  0  0  0  0  0  0  0  0  0
  122.2490  107.3456  107.3663 H   0  0  0  0  0  0  0  0  0  0  0  0
  122.5362  104.5300  108.0076 H   0  0  0  0  0  0  0  0  0  0  0  0
  124.0222  103.8758  107.2840 H   0  0  0  0  0  0  0  0  0  0  0  0
  122.7137  104.4718  106.2399 H   0  0  0  0  0  0  0  0  0  0  0  0
  125.8869  108.2592  108.1769 H   0  0  0  0  0  0  0  0  0  0  0  0
  125.4445  109.2239  105.7198 H   0  0  0  0  0  0  0  0  0  0  0  0
  122.2764  107.7716  105.0947 H   0  0  0  0  0  0  0  0  0  0  0  0
  1  5  1  0  0  0  0
  1  6  1  0  0  0  0
  1  7  2  0  0  0  0
  2  3  1  0  0  0  0
  2  5  1  0  0  0  0
  2  8  1  0  0  0  0
  3  6  1  0  0  0  0
  3  9  1  0  0  0  0
  4  6  1  0  0  0  0
  2 10  1  0  0  0  0
  3 11  1  0  0  0  0
  4 12  1  0  0  0  0
  4 13  1  0  0  0  0
  4 14  1  0  0  0  0
  5 15  1  0  0  0  0
  8 16  1  0  0  0  0
  9 17  1  0  0  0  0
M  END
> <FRED Chemgauss4 score>
-6.090666

$$$$
C47822425	P71595812
  -OEChem-05182014473D

 37 36  0     0  0  0  0  0  0999 V2000
  119.3776  105.0307  103.8571 C   0  0  0  0  0  0  0  0  0  0  0  0
  124.7480  106.3309  106.4378 C   0  0  0  0  0  0  0  0  0  0  0  0
  121.3168  107.5532  107.9915 C   0  0  0  0  0  0  0  0  0  0  0  0
  120.2279  105.4975  102.7225 C   0  0  0  0  0  0  0  0  0  0  0  0
  124.3111  105.7377  105.1396 C   0  0  0  0  0  0  0  0  0  0  0  0
  118.2852  106.0497  106.8344 C   0  0  0  0  0  0  0  0  0  0  0  0
  119.2342  104.9608  106.3385 C   0  0  0  0  0  0  0  0  0  0  0  0
  118.9765  107.3758  107.1439 C   0  0  0  0  0  0  0  0  0  0  0  0
  124.2766  106.3419  108.8792 C   0  0  0  0  0  0  0  0  0  0  0  0
  123.4744  107.5822  109.2355 C   0  0  0  0  0  0  0  0  0  0  0  0
  119.8921  105.3188  105.1118 N   0  0  0  0  0  0  0  0  0  0  0  0
  124.0211  105.8979  107.5352 N   0  0  0  0  0  0  0  0  0  0  0  0
  119.9659  107.2539  108.1793 N   0  0  0  0  0  0  0  0  0  0  0  0
  122.0519  107.3476  109.1563 N   0  0  0  0  0  0  0  0  0  0  0  0
  118.3244  104.4494  103.6236 O   0  0  0  0  0  0  0  0  0  0  0  0
  125.6801  107.1263  106.4554 O   0  0  0  0  0  0  0  0  0  0  0  0
  121.7964  107.9494  106.9301 O   0  0  0  0  0  0  0  0  0  0  0  0
  120.9602  104.7377  102.4055 H   0  0  0  0  0  0  0  0  0  0  0  0
  119.6373  105.7265  101.8209 H   0  0  0  0  0  0  0  0  0  0  0  0
  120.8196  106.4057  102.9195 H   0  0  0  0  0  0  0  0  0  0  0  0
  123.5328  106.3393  104.6431 H   0  0  0  0  0  0  0  0  0  0  0  0
  125.1345  105.6682  104.4107 H   0  0  0  0  0  0  0  0  0  0  0  0
  123.8940  104.7199  105.2031 H   0  0  0  0  0  0  0  0  0  0  0  0
  117.7773  105.6867  107.7364 H   0  0  0  0  0  0  0  0  0  0  0  0
  117.5108  106.2274  106.0782 H   0  0  0  0  0  0  0  0  0  0  0  0
  120.0074  104.7348  107.0792 H   0  0  0  0  0  0  0  0  0  0  0  0
  118.6750  104.0405  106.1421 H   0  0  0  0  0  0  0  0  0  0  0  0
  118.2404  108.1071  107.4926 H   0  0  0  0  0  0  0  0  0  0  0  0
  119.4687  107.7879  106.2576 H   0  0  0  0  0  0  0  0  0  0  0  0
  124.0422  105.5086  109.5490 H   0  0  0  0  0  0  0  0  0  0  0  0
  125.3480  106.5543  108.9489 H   0  0  0  0  0  0  0  0  0  0  0  0
  123.6922  107.8922  110.2622 H   0  0  0  0  0  0  0  0  0  0  0  0
  123.7085  108.4149  108.5645 H   0  0  0  0  0  0  0  0  0  0  0  0
  120.7834  105.8102  105.1672 H   0  0  0  0  0  0  0  0  0  0  0  0
  123.2666  105.2306  107.3821 H   0  0  0  0  0  0  0  0  0  0  0  0
  119.6659  106.9323  109.0982 H   0  0  0  0  0  0  0  0  0  0  0  0
  121.5628  107.0631  109.9992 H   0  0  0  0  0  0  0  0  0  0  0  0
  1  4  1  0  0  0  0
  1 11  1  0  0  0  0
  1 15  2  0  0  0  0
  2  5  1  0  0  0  0
  2 12  1  0  0  0  0
  2 16  2  0  0  0  0
  3 13  1  0  0  0  0
  3 14  1  0  0  0  0
  3 17  2  0  0  0  0
  6  7  1  0  0  0  0
  6  8  1  0  0  0  0
  7 11  1  0  0  0  0
  8 13  1  0  0  0  0
  9 10  1  0  0  0  0
  9 12  1  0  0  0  0
 10 14  1  0  0  0  0
  4 18  1  0  0  0  0
  4 19  1  0  0  0  0
  4 20  1  0  0  0  0
  5 21  1  0  0  0  0
  5 22  1  0  0  0  0
  5 23  1  0  0  0  0
  6 24  1  0  0  0  0
  6 25  1  0  0  0  0
  7 26  1  0  0  0  0
  7 27  1  0  0  0  0
  8 28  1  0  0  0  0
  8 29  1  0  0  0  0
  9 30  1  0  0  0  0
  9 31  1  0  0  0  0
 10 32  1  0  0  0  0
 10 33  1  0  0  0  0
 11 34  1  0  0  0  0
 12 35  1  0  0  0  0
 13 36  1  0  0  0  0
 14 37  1  0  0  0  0
M  END
> <FRED Chemgauss4 score>
-6.087072

$$$$
C50269940	P91555757
  -OEChem-05182014473D

 25 25  0     1  0  0  0  0  0999 V2000
  124.4738  107.1058  105.8474 C   0  0  0  0  0  0  0  0  0  0  0  0
  123.2765  105.3219  106.3155 C   0  0  0  0  0  0  0  0  0  0  0  0
  124.5165  105.8735  106.5266 C   0  0  0  0  0  0  0  0  0  0  0  0
  121.2391  106.0843  105.0718 C   0  0  0  0  0  0  0  0  0  0  0  0
  125.4923  102.9572  106.7486 C   0  0  0  0  0  0  0  0  0  0  0  0
  126.1226  106.1653  108.4893 C   0  0  0  0  0  0  0  0  0  0  0  0
  125.6733  105.2830  107.3141 C   0  0  1  0  0  0  0  0  0  0  0  0
  123.2997  107.3245  105.2493 N   0  0  0  0  0  0  0  0  0  0  0  0
  122.5932  106.2221  105.5520 N   0  0  0  0  0  0  0  0  0  0  0  0
  126.9412  107.2677  108.0567 N   0  0  0  0  0  0  0  0  0  0  0  0
  125.3390  103.9411  107.8063 N   0  0  0  0  0  0  0  0  0  0  0  0
  125.2483  107.8548  105.7611 H   0  0  0  0  0  0  0  0  0  0  0  0
  122.8336  104.3881  106.6344 H   0  0  0  0  0  0  0  0  0  0  0  0
  120.5700  106.5151  105.8213 H   0  0  0  0  0  0  0  0  0  0  0  0
  121.1354  106.6107  104.1189 H   0  0  0  0  0  0  0  0  0  0  0  0
  121.0151  105.0245  104.9217 H   0  0  0  0  0  0  0  0  0  0  0  0
  124.8268  103.1952  105.9148 H   0  0  0  0  0  0  0  0  0  0  0  0
  125.2459  101.9595  107.1219 H   0  0  0  0  0  0  0  0  0  0  0  0
  126.5234  102.9506  106.3851 H   0  0  0  0  0  0  0  0  0  0  0  0
  125.2550  106.6043  108.9949 H   0  0  0  0  0  0  0  0  0  0  0  0
  126.6949  105.6070  109.2379 H   0  0  0  0  0  0  0  0  0  0  0  0
  126.5284  105.1673  106.6353 H   0  0  0  0  0  0  0  0  0  0  0  0
  127.5834  107.6865  108.7093 H   0  0  0  0  0  0  0  0  0  0  0  0
  126.7206  107.7309  107.1903 H   0  0  0  0  0  0  0  0  0  0  0  0
  125.9598  103.7146  108.5780 H   0  0  0  0  0  0  0  0  0  0  0  0
  1  3  1  0  0  0  0
  1  8  2  0  0  0  0
  2  3  2  0  0  0  0
  2  9  1  0  0  0  0
  3  7  1  0  0  0  0
  4  9  1  0  0  0  0
  5 11  1  0  0  0  0
  6  7  1  0  0  0  0
  6 10  1  0  0  0  0
  7 11  1  0  0  0  0
  8  9  1  0  0  0  0
  1 12  1  0  0  0  0
  2 13  1  0  0  0  0
  4 14  1  0  0  0  0
  4 15  1  0  0  0  0
  4 16  1  0  0  0  0
  5 17  1  0  0  0  0
  5 18  1  0  0  0  0
  5 19  1  0  0  0  0
  6 20  1  0  0  0  0
  6 21  1  0  0  0  0
  7 22  1  0  0  0  0
 10 23  1  0  0  0  0
 10 24  1  0  0  0  0
 11 25  1  0  0  0  0
M  END
> <FRED Chemgauss4 score>
-6.085789

$$$$
C87440555	P136788019
  -OEChem-05182014473D

 22 22  0     0  0  0  0  0  0999 V2000
  123.8362  107.0188  105.6867 C   0  0  0  0  0  0  0  0  0  0  0  0
  122.3965  106.6541  105.7253 C   0  0  0  0  0  0  0  0  0  0  0  0
  120.1986  104.5636  105.6466 C   0  0  0  0  0  0  0  0  0  0  0  0
  120.6616  105.3171  106.8908 C   0  0  0  0  0  0  0  0  0  0  0  0
  118.7670  104.0584  105.7762 C   0  0  0  0  0  0  0  0  0  0  0  0
  124.4671  107.6328  106.7057 N   0  5  0  0  0  0  0  0  0  0  0  0
  124.6320  106.7659  104.6303 N   0  0  0  0  0  0  0  0  0  0  0  0
  125.7403  107.7737  106.2589 N   0  0  0  0  0  0  0  0  0  0  0  0
  125.8394  107.2530  105.0120 N   0  0  0  0  0  0  0  0  0  0  0  0
  122.0190  105.7837  106.7365 N   0  0  0  0  0  0  0  0  0  0  0  0
  118.4091  103.2994  104.5528 N   0  3  0  0  0  0  0  0  0  0  0  0
  121.6388  107.1111  104.8735 O   0  0  0  0  0  0  0  0  0  0  0  0
  120.8741  103.7219  105.4476 H   0  0  0  0  0  0  0  0  0  0  0  0
  120.2687  105.2389  104.7847 H   0  0  0  0  0  0  0  0  0  0  0  0
  120.0113  106.1819  107.0580 H   0  0  0  0  0  0  0  0  0  0  0  0
  120.5920  104.6760  107.7759 H   0  0  0  0  0  0  0  0  0  0  0  0
  118.6424  103.3721  106.6185 H   0  0  0  0  0  0  0  0  0  0  0  0
  118.0493  104.8797  105.8604 H   0  0  0  0  0  0  0  0  0  0  0  0
  122.7157  105.3981  107.3668 H   0  0  0  0  0  0  0  0  0  0  0  0
  117.5132  102.8145  104.6708 H   0  0  0  0  0  0  0  0  0  0  0  0
  119.1233  102.5957  104.3362 H   0  0  0  0  0  0  0  0  0  0  0  0
  118.3260  103.9249  103.7441 H   0  0  0  0  0  0  0  0  0  0  0  0
  1  2  1  0  0  0  0
  1  6  1  0  0  0  0
  1  7  2  0  0  0  0
  2 10  1  0  0  0  0
  2 12  2  0  0  0  0
  3  4  1  0  0  0  0
  3  5  1  0  0  0  0
  4 10  1  0  0  0  0
  5 11  1  0  0  0  0
  6  8  1  0  0  0  0
  7  9  1  0  0  0  0
  8  9  2  0  0  0  0
  3 13  1  0  0  0  0
  3 14  1  0  0  0  0
  4 15  1  0  0  0  0
  4 16  1  0  0  0  0
  5 17  1  0  0  0  0
  5 18  1  0  0  0  0
 10 19  1  0  0  0  0
 11 20  1  0  0  0  0
 11 21  1  0  0  0  0
 11 22  1  0  0  0  0
M  CHG  2   6  -1  11   1
M  END
> <FRED Chemgauss4 score>
-6.084874

$$$$
C82909345	P129612485
  -OEChem-05182014473D

 30 31  0     0  0  0  0  0  0999 V2000
  121.5584  106.2018  104.8831 C   0  0  0  0  0  0  0  0  0  0  0  0
  123.1813  106.1657  106.3233 C   0  0  0  0  0  0  0  0  0  0  0  0
  125.2404  106.6914  107.7958 C   0  0  0  0  0  0  0  0  0  0  0  0
  124.8190  104.3461  107.0241 C   0  0  0  0  0  0  0  0  0  0  0  0
  126.3215  106.1216  108.7095 C   0  0  0  0  0  0  0  0  0  0  0  0
  125.9282  103.9145  107.9794 C   0  0  0  0  0  0  0  0  0  0  0  0
  124.1195  105.6700  107.4468 C   0  0  0  0  0  0  0  0  0  0  0  0
  121.7017  104.1288  106.2809 C   0  0  0  0  0  0  0  0  0  0  0  0
  123.2414  105.4334  108.6983 C   0  0  0  0  0  0  0  0  0  0  0  0
  122.2177  107.3320  104.7633 N   0  0  0  0  0  0  0  0  0  0  0  0
  123.2501  107.3091  105.6796 N   0  0  0  0  0  0  0  0  0  0  0  0
  122.1308  105.4371  105.8539 N   0  0  0  0  0  0  0  0  0  0  0  0
  122.2810  106.4761  108.8094 N   0  0  0  0  0  0  0  0  0  0  0  0
  126.8927  104.9480  108.1416 O   0  0  0  0  0  0  0  0  0  0  0  0
  120.6923  105.8973  104.3130 H   0  0  0  0  0  0  0  0  0  0  0  0
  124.7831  107.5579  108.3023 H   0  0  0  0  0  0  0  0  0  0  0  0
  125.7078  107.0780  106.8757 H   0  0  0  0  0  0  0  0  0  0  0  0
  125.2342  104.4408  106.0050 H   0  0  0  0  0  0  0  0  0  0  0  0
  124.0633  103.5408  106.9778 H   0  0  0  0  0  0  0  0  0  0  0  0
  127.1123  106.8528  108.9104 H   0  0  0  0  0  0  0  0  0  0  0  0
  125.8816  105.8439  109.6724 H   0  0  0  0  0  0  0  0  0  0  0  0
  125.4991  103.7064  108.9677 H   0  0  0  0  0  0  0  0  0  0  0  0
  126.4259  102.9932  107.6472 H   0  0  0  0  0  0  0  0  0  0  0  0
  122.2235  103.3868  105.6707 H   0  0  0  0  0  0  0  0  0  0  0  0
  121.9445  103.9931  107.3385 H   0  0  0  0  0  0  0  0  0  0  0  0
  120.6197  104.0420  106.1479 H   0  0  0  0  0  0  0  0  0  0  0  0
  123.8811  105.4346  109.5684 H   0  0  0  0  0  0  0  0  0  0  0  0
  122.7367  104.4851  108.5916 H   0  0  0  0  0  0  0  0  0  0  0  0
  122.5261  107.4230  108.5362 H   0  0  0  0  0  0  0  0  0  0  0  0
  121.4301  106.3272  109.3435 H   0  0  0  0  0  0  0  0  0  0  0  0
  1 10  2  0  0  0  0
  1 12  1  0  0  0  0
  2  7  1  0  0  0  0
  2 11  2  0  0  0  0
  2 12  1  0  0  0  0
  3  5  1  0  0  0  0
  3  7  1  0  0  0  0
  4  6  1  0  0  0  0
  4  7  1  0  0  0  0
  5 14  1  0  0  0  0
  6 14  1  0  0  0  0
  7  9  1  0  0  0  0
  8 12  1  0  0  0  0
  9 13  1  0  0  0  0
 10 11  1  0  0  0  0
  1 15  1  0  0  0  0
  3 16  1  0  0  0  0
  3 17  1  0  0  0  0
  4 18  1  0  0  0  0
  4 19  1  0  0  0  0
  5 20  1  0  0  0  0
  5 21  1  0  0  0  0
  6 22  1  0  0  0  0
  6 23  1  0  0  0  0
  8 24  1  0  0  0  0
  8 25  1  0  0  0  0
  8 26  1  0  0  0  0
  9 27  1  0  0  0  0
  9 28  1  0  0  0  0
 13 29  1  0  0  0  0
 13 30  1  0  0  0  0
M  END
> <FRED Chemgauss4 score>
-6.084212

$$$$
C19260305	P28485389
  -OEChem-05182014473D

 25 25  0     1  0  0  0  0  0999 V2000
  120.6316  105.8418  105.0919 C   0  0  0  0  0  0  0  0  0  0  0  0
  119.4983  104.8898  104.7890 C   0  0  0  0  0  0  0  0  0  0  0  0
  119.3900  104.0559  106.0600 C   0  0  0  0  0  0  0  0  0  0  0  0
  120.8042  104.0368  106.6045 C   0  0  0  0  0  0  0  0  0  0  0  0
  122.5735  105.8327  106.7039 C   0  0  0  0  0  0  0  0  0  0  0  0
  124.8606  106.7648  106.0743 C   0  0  0  0  0  0  0  0  0  0  0  0
  123.3933  106.6105  105.6733 C   0  0  2  0  0  0  0  0  0  0  0  0
  121.3438  105.2997  106.1592 N   0  0  0  0  0  0  0  0  0  0  0  0
  125.5763  107.5024  105.0566 N   0  0  0  0  0  0  0  0  0  0  0  0
  120.8705  106.8614  104.4625 O   0  0  0  0  0  0  0  0  0  0  0  0
  122.8269  107.9095  105.5007 O   0  0  0  0  0  0  0  0  0  0  0  0
  118.5742  105.4334  104.5788 H   0  0  0  0  0  0  0  0  0  0  0  0
  119.7770  104.2735  103.9286 H   0  0  0  0  0  0  0  0  0  0  0  0
  118.7256  104.5622  106.7715 H   0  0  0  0  0  0  0  0  0  0  0  0
  118.9893  103.0543  105.8811 H   0  0  0  0  0  0  0  0  0  0  0  0
  120.8267  103.9690  107.6957 H   0  0  0  0  0  0  0  0  0  0  0  0
  121.4017  103.2313  106.1655 H   0  0  0  0  0  0  0  0  0  0  0  0
  123.1474  104.9904  107.1028 H   0  0  0  0  0  0  0  0  0  0  0  0
  122.2876  106.4836  107.5364 H   0  0  0  0  0  0  0  0  0  0  0  0
  125.3424  105.7886  106.1913 H   0  0  0  0  0  0  0  0  0  0  0  0
  124.9438  107.3088  107.0209 H   0  0  0  0  0  0  0  0  0  0  0  0
  123.3239  106.0953  104.7074 H   0  0  0  0  0  0  0  0  0  0  0  0
  125.3528  107.3362  104.0925 H   0  0  0  0  0  0  0  0  0  0  0  0
  126.4064  108.0029  105.3169 H   0  0  0  0  0  0  0  0  0  0  0  0
  121.9187  107.7733  105.1915 H   0  0  0  0  0  0  0  0  0  0  0  0
  1  2  1  0  0  0  0
  1  8  1  0  0  0  0
  1 10  2  0  0  0  0
  2  3  1  0  0  0  0
  3  4  1  0  0  0  0
  4  8  1  0  0  0  0
  5  7  1  0  0  0  0
  5  8  1  0  0  0  0
  6  7  1  0  0  0  0
  6  9  1  0  0  0  0
  7 11  1  0  0  0  0
  2 12  1  0  0  0  0
  2 13  1  0  0  0  0
  3 14  1  0  0  0  0
  3 15  1  0  0  0  0
  4 16  1  0  0  0  0
  4 17  1  0  0  0  0
  5 18  1  0  0  0  0
  5 19  1  0  0  0  0
  6 20  1  0  0  0  0
  6 21  1  0  0  0  0
  7 22  1  0  0  0  0
  9 23  1  0  0  0  0
  9 24  1  0  0  0  0
 11 25  1  0  0  0  0
M  END
> <FRED Chemgauss4 score>
-6.078413

$$$$
C37207947	P55328418
  -OEChem-05182014473D

 28 27  0     0  0  0  0  0  0999 V2000
  121.5762  106.8937  106.1031 C   0  0  0  0  0  0  0  0  0  0  0  0
  117.8753  103.9534  105.1758 C   0  0  0  0  0  0  0  0  0  0  0  0
  123.9788  107.4716  106.3417 C   0  0  0  0  0  0  0  0  0  0  0  0
  116.3295  104.4047  103.2552 C   0  0  0  0  0  0  0  0  0  0  0  0
  115.8802  105.4414  105.4457 C   0  0  0  0  0  0  0  0  0  0  0  0
  120.5579  105.9757  106.7483 C   0  0  0  0  0  0  0  0  0  0  0  0
  118.5761  104.6989  106.2979 C   0  0  0  0  0  0  0  0  0  0  0  0
  125.0712  107.1060  107.1093 N   0  0  0  0  0  0  0  0  0  0  0  0
  122.8340  106.7504  106.6950 N   0  0  0  0  0  0  0  0  0  0  0  0
  119.5496  105.6019  105.7540 N   0  0  0  0  0  0  0  0  0  0  0  0
  116.7391  104.5759  104.6470 N   0  0  0  0  0  0  0  0  0  0  0  0
  121.3094  107.6737  105.1925 O   0  0  0  0  0  0  0  0  0  0  0  0
  118.3045  102.8685  104.7741 O   0  0  0  0  0  0  0  0  0  0  0  0
  124.0359  108.3297  105.4631 O   0  0  0  0  0  0  0  0  0  0  0  0
  115.6551  103.5492  103.1646 H   0  0  0  0  0  0  0  0  0  0  0  0
  117.2041  104.2319  102.6223 H   0  0  0  0  0  0  0  0  0  0  0  0
  115.8118  105.3000  102.9007 H   0  0  0  0  0  0  0  0  0  0  0  0
  116.2278  106.4759  105.3842 H   0  0  0  0  0  0  0  0  0  0  0  0
  115.8952  105.1267  106.4927 H   0  0  0  0  0  0  0  0  0  0  0  0
  114.8508  105.3937  105.0802 H   0  0  0  0  0  0  0  0  0  0  0  0
  121.0574  105.0748  107.1187 H   0  0  0  0  0  0  0  0  0  0  0  0
  120.0914  106.4959  107.5905 H   0  0  0  0  0  0  0  0  0  0  0  0
  117.8561  105.2926  106.8670 H   0  0  0  0  0  0  0  0  0  0  0  0
  119.1046  103.9980  106.9492 H   0  0  0  0  0  0  0  0  0  0  0  0
  124.9583  106.3905  107.8196 H   0  0  0  0  0  0  0  0  0  0  0  0
  125.9815  107.5345  106.9804 H   0  0  0  0  0  0  0  0  0  0  0  0
  122.9240  106.0670  107.4422 H   0  0  0  0  0  0  0  0  0  0  0  0
  119.0941  106.4600  105.4210 H   0  0  0  0  0  0  0  0  0  0  0  0
  1  6  1  0  0  0  0
  1  9  1  0  0  0  0
  1 12  2  0  0  0  0
  2  7  1  0  0  0  0
  2 11  1  0  0  0  0
  2 13  2  0  0  0  0
  3  8  1  0  0  0  0
  3  9  1  0  0  0  0
  3 14  2  0  0  0  0
  4 11  1  0  0  0  0
  5 11  1  0  0  0  0
  6 10  1  0  0  0  0
  7 10  1  0  0  0  0
  4 15  1  0  0  0  0
  4 16  1  0  0  0  0
  4 17  1  0  0  0  0
  5 18  1  0  0  0  0
  5 19  1  0  0  0  0
  5 20  1  0  0  0  0
  6 21  1  0  0  0  0
  6 22  1  0  0  0  0
  7 23  1  0  0  0  0
  7 24  1  0  0  0  0
  8 25  1  0  0  0  0
  8 26  1  0  0  0  0
  9 27  1  0  0  0  0
 10 28  1  0  0  0  0
M  END
> <FRED Chemgauss4 score>
-6.076278

$$$$
C42030400	P63621419
  -OEChem-05182014473D

 32 32  0     1  0  0  0  0  0999 V2000
  121.6642  105.6985  106.3467 C   0  0  0  0  0  0  0  0  0  0  0  0
  123.4343  106.8150  105.7731 C   0  0  0  0  0  0  0  0  0  0  0  0
  120.8170  104.6407  106.9256 C   0  0  0  0  0  0  0  0  0  0  0  0
  124.7781  103.7535  109.1785 C   0  0  0  0  0  0  0  0  0  0  0  0
  126.7013  108.7821  106.5504 C   0  0  0  0  0  0  0  0  0  0  0  0
  123.8877  104.8118  108.5482 C   0  0  0  0  0  0  0  0  0  0  0  0
  123.8573  104.6791  107.0272 C   0  0  0  0  0  0  0  0  0  0  0  0
  124.8993  107.1973  105.6123 C   0  0  2  0  0  0  0  0  0  0  0  0
  125.4032  108.0240  106.8205 C   0  0  1  0  0  0  0  0  0  0  0  0
  121.2626  106.7739  105.7075 N   0  0  0  0  0  0  0  0  0  0  0  0
  122.3887  107.4843  105.3426 N   0  0  0  0  0  0  0  0  0  0  0  0
  123.0245  105.6838  106.4112 N   0  0  0  0  0  0  0  0  0  0  0  0
  125.1035  107.9036  104.3427 N   0  0  0  0  0  0  0  0  0  0  0  0
  125.6495  107.1418  107.9210 O   0  0  0  0  0  0  0  0  0  0  0  0
  120.6229  103.8386  106.1934 H   0  0  0  0  0  0  0  0  0  0  0  0
  121.2802  104.1759  107.8138 H   0  0  0  0  0  0  0  0  0  0  0  0
  119.8391  105.0283  107.2622 H   0  0  0  0  0  0  0  0  0  0  0  0
  125.8000  103.8201  108.7919 H   0  0  0  0  0  0  0  0  0  0  0  0
  124.3946  102.7531  108.9549 H   0  0  0  0  0  0  0  0  0  0  0  0
  124.8137  103.8684  110.2666 H   0  0  0  0  0  0  0  0  0  0  0  0
  127.5011  108.1161  106.2149 H   0  0  0  0  0  0  0  0  0  0  0  0
  127.0381  109.3141  107.4469 H   0  0  0  0  0  0  0  0  0  0  0  0
  126.5440  109.5413  105.7760 H   0  0  0  0  0  0  0  0  0  0  0  0
  122.8735  104.7193  108.9547 H   0  0  0  0  0  0  0  0  0  0  0  0
  124.2517  105.8065  108.8324 H   0  0  0  0  0  0  0  0  0  0  0  0
  123.4730  103.6974  106.7257 H   0  0  0  0  0  0  0  0  0  0  0  0
  124.8641  104.7758  106.6036 H   0  0  0  0  0  0  0  0  0  0  0  0
  125.4883  106.2714  105.5686 H   0  0  0  0  0  0  0  0  0  0  0  0
  124.6439  108.7416  107.1517 H   0  0  0  0  0  0  0  0  0  0  0  0
  124.5450  107.6313  103.5672 H   0  0  0  0  0  0  0  0  0  0  0  0
  125.9150  108.4705  104.2546 H   0  0  0  0  0  0  0  0  0  0  0  0
  125.9044  107.7048  108.6659 H   0  0  0  0  0  0  0  0  0  0  0  0
  1  3  1  0  0  0  0
  1 10  2  0  0  0  0
  1 12  1  0  0  0  0
  2  8  1  0  0  0  0
  2 11  2  0  0  0  0
  2 12  1  0  0  0  0
  4  6  1  0  0  0  0
  5  9  1  0  0  0  0
  6  7  1  0  0  0  0
  7 12  1  0  0  0  0
  8  9  1  0  0  0  0
  8 13  1  0  0  0  0
  9 14  1  0  0  0  0
 10 11  1  0  0  0  0
  3 15  1  0  0  0  0
  3 16  1  0  0  0  0
  3 17  1  0  0  0  0
  4 18  1  0  0  0  0
  4 19  1  0  0  0  0
  4 20  1  0  0  0  0
  5 21  1  0  0  0  0
  5 22  1  0  0  0  0
  5 23  1  0  0  0  0
  6 24  1  0  0  0  0
  6 25  1  0  0  0  0
  7 26  1  0  0  0  0
  7 27  1  0  0  0  0
  8 28  1  0  0  0  0
  9 29  1  0  0  0  0
 13 30  1  0  0  0  0
 13 31  1  0  0  0  0
 14 32  1  0  0  0  0
M  END
> <FRED Chemgauss4 score>
-6.073847

$$$$
C86400076	P135284226
  -OEChem-05182014473D

 27 28  0     1  0  0  0  0  0999 V2000
  123.7878  106.9771  105.9517 C   0  0  0  0  0  0  0  0  0  0  0  0
  119.8360  105.2860  103.5788 C   0  0  0  0  0  0  0  0  0  0  0  0
  118.7710  104.2039  103.7792 C   0  0  0  0  0  0  0  0  0  0  0  0
  120.6557  103.8540  105.2949 C   0  0  0  0  0  0  0  0  0  0  0  0
  120.5969  105.3274  104.9000 C   0  0  1  0  0  0  0  0  0  0  0  0
  119.2635  103.3360  104.9424 C   0  0  1  0  0  0  0  0  0  0  0  0
  122.4198  106.3683  106.0620 C   0  0  0  0  0  0  0  0  0  0  0  0
  124.8628  106.4949  106.6039 N   0  5  0  0  0  0  0  0  0  0  0  0
  124.0542  108.0561  105.1915 N   0  0  0  0  0  0  0  0  0  0  0  0
  125.8675  107.3255  106.2281 N   0  0  0  0  0  0  0  0  0  0  0  0
  125.3818  108.2634  105.3795 N   0  0  0  0  0  0  0  0  0  0  0  0
  121.9139  105.9257  104.7686 N   0  0  0  0  0  0  0  0  0  0  0  0
  118.3575  103.5254  106.1088 N   0  3  0  0  0  0  0  0  0  0  0  0
  120.4955  104.9934  102.7515 H   0  0  0  0  0  0  0  0  0  0  0  0
  119.3938  106.2540  103.3213 H   0  0  0  0  0  0  0  0  0  0  0  0
  117.7926  104.6563  103.9792 H   0  0  0  0  0  0  0  0  0  0  0  0
  118.6713  103.6087  102.8646 H   0  0  0  0  0  0  0  0  0  0  0  0
  121.4012  103.3226  104.6889 H   0  0  0  0  0  0  0  0  0  0  0  0
  120.9218  103.7137  106.3483 H   0  0  0  0  0  0  0  0  0  0  0  0
  120.0244  105.8932  105.6388 H   0  0  0  0  0  0  0  0  0  0  0  0
  119.2523  102.2661  104.7151 H   0  0  0  0  0  0  0  0  0  0  0  0
  122.4356  105.5021  106.7324 H   0  0  0  0  0  0  0  0  0  0  0  0
  121.7025  107.0857  106.4743 H   0  0  0  0  0  0  0  0  0  0  0  0
  121.8602  106.7272  104.1391 H   0  0  0  0  0  0  0  0  0  0  0  0
  118.5525  104.4144  106.5773 H   0  0  0  0  0  0  0  0  0  0  0  0
  118.4823  102.7704  106.7890 H   0  0  0  0  0  0  0  0  0  0  0  0
  117.3786  103.5287  105.8093 H   0  0  0  0  0  0  0  0  0  0  0  0
  1  7  1  0  0  0  0
  1  8  1  0  0  0  0
  1  9  2  0  0  0  0
  2  3  1  0  0  0  0
  2  5  1  0  0  0  0
  3  6  1  0  0  0  0
  4  5  1  0  0  0  0
  4  6  1  0  0  0  0
  5 12  1  0  0  0  0
  6 13  1  0  0  0  0
  7 12  1  0  0  0  0
  8 10  1  0  0  0  0
  9 11  1  0  0  0  0
 10 11  2  0  0  0  0
  2 14  1  0  0  0  0
  2 15  1  0  0  0  0
  3 16  1  0  0  0  0
  3 17  1  0  0  0  0
  4 18  1  0  0  0  0
  4 19  1  0  0  0  0
  5 20  1  0  0  0  0
  6 21  1  0  0  0  0
  7 22  1  0  0  0  0
  7 23  1  0  0  0  0
 12 24  1  0  0  0  0
 13 25  1  0  0  0  0
 13 26  1  0  0  0  0
 13 27  1  0  0  0  0
M  CHG  2   8  -1  13   1
M  END
> <FRED Chemgauss4 score>
-6.072390

$$$$
C93975550	P147291564
  -OEChem-05182014473D

 36 37  0     0  0  0  0  0  0999 V2000
  118.3160  104.7910  103.9451 C   0  0  0  0  0  0  0  0  0  0  0  0
  117.2785  104.7162  103.3447 C   0  0  0  0  0  0  0  0  0  0  0  0
  120.4114  105.9511  104.6063 C   0  0  0  0  0  0  0  0  0  0  0  0
  121.5279  104.5361  106.0737 C   0  0  0  0  0  0  0  0  0  0  0  0
  119.5463  104.8801  104.6579 C   0  0  0  0  0  0  0  0  0  0  0  0
  121.5593  105.7516  105.4264 C   0  0  0  0  0  0  0  0  0  0  0  0
  122.6785  106.7147  105.5911 C   0  0  0  0  0  0  0  0  0  0  0  0
  126.0423  105.5737  107.3993 C   0  0  0  0  0  0  0  0  0  0  0  0
  125.4250  102.2865  106.7717 C   0  0  0  0  0  0  0  0  0  0  0  0
  125.4713  101.8822  108.2152 C   0  0  0  0  0  0  0  0  0  0  0  0
  126.2000  103.1163  107.7583 C   0  0  0  0  0  0  0  0  0  0  0  0
  116.0164  104.6239  102.6117 C   0  0  0  0  0  0  0  0  0  0  0  0
  125.4464  106.8182  108.0325 C   0  0  0  0  0  0  0  0  0  0  0  0
  124.4632  107.5272  107.1112 C   0  0  0  0  0  0  0  0  0  0  0  0
  123.3685  106.6435  106.7925 N   0  0  0  0  0  0  0  0  0  0  0  0
  125.7538  104.4366  108.1395 N   0  0  0  0  0  0  0  0  0  0  0  0
  122.9176  107.5162  104.6917 O   0  0  0  0  0  0  0  0  0  0  0  0
  126.6942  105.5953  106.3588 O   0  0  0  0  0  0  0  0  0  0  0  0
  114.9364  104.9510  103.4746 O   0  0  0  0  0  0  0  0  0  0  0  0
  120.1188  103.6411  105.6921 S   0  0  0  0  0  0  0  0  0  0  0  0
  120.2331  106.8381  104.0097 H   0  0  0  0  0  0  0  0  0  0  0  0
  122.2616  104.1247  106.7535 H   0  0  0  0  0  0  0  0  0  0  0  0
  125.9750  101.6813  106.0614 H   0  0  0  0  0  0  0  0  0  0  0  0
  124.4960  102.6929  106.3910 H   0  0  0  0  0  0  0  0  0  0  0  0
  124.5738  102.0166  108.8061 H   0  0  0  0  0  0  0  0  0  0  0  0
  126.0524  101.0056  108.4739 H   0  0  0  0  0  0  0  0  0  0  0  0
  127.2813  103.0507  107.7050 H   0  0  0  0  0  0  0  0  0  0  0  0
  116.0079  105.3188  101.7665 H   0  0  0  0  0  0  0  0  0  0  0  0
  115.8624  103.6092  102.2325 H   0  0  0  0  0  0  0  0  0  0  0  0
  124.9450  106.5256  108.9635 H   0  0  0  0  0  0  0  0  0  0  0  0
  126.2664  107.4962  108.3004 H   0  0  0  0  0  0  0  0  0  0  0  0
  124.9591  107.8377  106.1851 H   0  0  0  0  0  0  0  0  0  0  0  0
  124.0711  108.4313  107.5894 H   0  0  0  0  0  0  0  0  0  0  0  0
  123.0708  105.9940  107.5149 H   0  0  0  0  0  0  0  0  0  0  0  0
  125.2040  104.5367  108.9877 H   0  0  0  0  0  0  0  0  0  0  0  0
  114.1239  104.8767  102.9481 H   0  0  0  0  0  0  0  0  0  0  0  0
  1  2  3  0  0  0  0
  1  5  1  0  0  0  0
  2 12  1  0  0  0  0
  3  5  2  0  0  0  0
  3  6  1  0  0  0  0
  4  6  2  0  0  0  0
  4 20  1  0  0  0  0
  5 20  1  0  0  0  0
  6  7  1  0  0  0  0
  7 15  1  0  0  0  0
  7 17  2  0  0  0  0
  8 13  1  0  0  0  0
  8 16  1  0  0  0  0
  8 18  2  0  0  0  0
  9 10  1  0  0  0  0
  9 11  1  0  0  0  0
 10 11  1  0  0  0  0
 11 16  1  0  0  0  0
 12 19  1  0  0  0  0
 13 14  1  0  0  0  0
 14 15  1  0  0  0  0
  3 21  1  0  0  0  0
  4 22  1  0  0  0  0
  9 23  1  0  0  0  0
  9 24  1  0  0  0  0
 10 25  1  0  0  0  0
 10 26  1  0  0  0  0
 11 27  1  0  0  0  0
 12 28  1  0  0  0  0
 12 29  1  0  0  0  0
 13 30  1  0  0  0  0
 13 31  1  0  0  0  0
 14 32  1  0  0  0  0
 14 33  1  0  0  0  0
 15 34  1  0  0  0  0
 16 35  1  0  0  0  0
 19 36  1  0  0  0  0
M  END
> <FRED Chemgauss4 score>
-6.070946

$$$$
C82987577	P129755020
  -OEChem-05182014473D

 27 27  0     1  0  0  0  0  0999 V2000
  121.4322  105.8698  105.0771 C   0  0  0  0  0  0  0  0  0  0  0  0
  122.6543  104.8641  106.6036 C   0  0  0  0  0  0  0  0  0  0  0  0
  121.4056  104.8359  106.0322 C   0  0  0  0  0  0  0  0  0  0  0  0
  120.2911  103.9293  106.3507 C   0  0  0  0  0  0  0  0  0  0  0  0
  124.3572  106.7764  108.7456 C   0  0  0  0  0  0  0  0  0  0  0  0
  124.9383  107.7867  105.8345 C   0  0  0  0  0  0  0  0  0  0  0  0
  124.7627  106.3125  106.2580 C   0  0  1  0  0  0  0  0  0  0  0  0
  125.2014  106.0092  107.7210 C   0  0  1  0  0  0  0  0  0  0  0  0
  122.6047  106.5083  105.0410 N   0  0  0  0  0  0  0  0  0  0  0  0
  123.3266  105.8741  105.9806 N   0  0  0  0  0  0  0  0  0  0  0  0
  126.6030  106.3887  107.9337 N   0  0  0  0  0  0  0  0  0  0  0  0
  123.8686  108.5932  106.3083 O   0  0  0  0  0  0  0  0  0  0  0  0
  120.6470  106.1869  104.4055 H   0  0  0  0  0  0  0  0  0  0  0  0
  123.1099  104.2672  107.3821 H   0  0  0  0  0  0  0  0  0  0  0  0
  120.3241  103.0180  105.7286 H   0  0  0  0  0  0  0  0  0  0  0  0
  120.3016  103.6090  107.4083 H   0  0  0  0  0  0  0  0  0  0  0  0
  119.3063  104.4047  106.1903 H   0  0  0  0  0  0  0  0  0  0  0  0
  124.4118  107.8584  108.5802 H   0  0  0  0  0  0  0  0  0  0  0  0
  123.3046  106.4798  108.6995 H   0  0  0  0  0  0  0  0  0  0  0  0
  124.6997  106.5748  109.7673 H   0  0  0  0  0  0  0  0  0  0  0  0
  124.9587  107.8672  104.7423 H   0  0  0  0  0  0  0  0  0  0  0  0
  125.8801  108.1996  106.2138 H   0  0  0  0  0  0  0  0  0  0  0  0
  125.4135  105.7269  105.5917 H   0  0  0  0  0  0  0  0  0  0  0  0
  125.1079  104.9383  107.9357 H   0  0  0  0  0  0  0  0  0  0  0  0
  127.2427  106.2283  107.1906 H   0  0  0  0  0  0  0  0  0  0  0  0
  126.8898  106.5942  108.8625 H   0  0  0  0  0  0  0  0  0  0  0  0
  124.0453  109.4990  106.0065 H   0  0  0  0  0  0  0  0  0  0  0  0
  1  3  1  0  0  0  0
  1  9  2  0  0  0  0
  2  3  2  0  0  0  0
  2 10  1  0  0  0  0
  3  4  1  0  0  0  0
  5  8  1  0  0  0  0
  6  7  1  0  0  0  0
  6 12  1  0  0  0  0
  7  8  1  0  0  0  0
  7 10  1  0  0  0  0
  8 11  1  0  0  0  0
  9 10  1  0  0  0  0
  1 13  1  0  0  0  0
  2 14  1  0  0  0  0
  4 15  1  0  0  0  0
  4 16  1  0  0  0  0
  4 17  1  0  0  0  0
  5 18  1  0  0  0  0
  5 19  1  0  0  0  0
  5 20  1  0  0  0  0
  6 21  1  0  0  0  0
  6 22  1  0  0  0  0
  7 23  1  0  0  0  0
  8 24  1  0  0  0  0
 11 25  1  0  0  0  0
 11 26  1  0  0  0  0
 12 27  1  0  0  0  0
M  END
> <FRED Chemgauss4 score>
-6.070023

$$$$
C02539687	P23071667
  -OEChem-05182014473D

 20 20  0     1  0  0  0  0  0999 V2000
  122.9362  106.6060  106.0076 C   0  0  0  0  0  0  0  0  0  0  0  0
  123.2768  105.3962  106.4659 C   0  0  0  0  0  0  0  0  0  0  0  0
  123.7334  107.8285  106.3374 C   0  0  1  0  0  0  0  0  0  0  0  0
  124.7558  107.5418  107.4438 C   0  0  2  0  0  0  0  0  0  0  0  0
  125.3774  106.1461  107.2530 C   0  0  1  0  0  0  0  0  0  0  0  0
  126.3617  105.7849  108.3608 C   0  0  0  0  0  0  0  0  0  0  0  0
  124.3855  105.1035  107.2137 O   0  0  0  0  0  0  0  0  0  0  0  0
  124.3985  108.2430  105.1487 O   0  0  0  0  0  0  0  0  0  0  0  0
  124.0849  107.6239  108.7008 O   0  0  0  0  0  0  0  0  0  0  0  0
  127.4118  106.7348  108.3583 O   0  0  0  0  0  0  0  0  0  0  0  0
  122.0379  106.7199  105.4088 H   0  0  0  0  0  0  0  0  0  0  0  0
  122.6826  104.5093  106.2969 H   0  0  0  0  0  0  0  0  0  0  0  0
  123.0485  108.6271  106.6449 H   0  0  0  0  0  0  0  0  0  0  0  0
  125.5433  108.3049  107.4348 H   0  0  0  0  0  0  0  0  0  0  0  0
  125.9194  106.1202  106.2978 H   0  0  0  0  0  0  0  0  0  0  0  0
  126.7742  104.7917  108.1830 H   0  0  0  0  0  0  0  0  0  0  0  0
  125.8587  105.8066  109.3277 H   0  0  0  0  0  0  0  0  0  0  0  0
  123.7069  108.4309  104.4948 H   0  0  0  0  0  0  0  0  0  0  0  0
  123.7330  108.5246  108.7655 H   0  0  0  0  0  0  0  0  0  0  0  0
  128.0247  106.4846  109.0706 H   0  0  0  0  0  0  0  0  0  0  0  0
  1  2  2  0  0  0  0
  1  3  1  0  0  0  0
  2  7  1  0  0  0  0
  3  4  1  0  0  0  0
  3  8  1  0  0  0  0
  4  5  1  0  0  0  0
  4  9  1  0  0  0  0
  5  6  1  0  0  0  0
  5  7  1  0  0  0  0
  6 10  1  0  0  0  0
  1 11  1  0  0  0  0
  2 12  1  0  0  0  0
  3 13  1  0  0  0  0
  4 14  1  0  0  0  0
  5 15  1  0  0  0  0
  6 16  1  0  0  0  0
  6 17  1  0  0  0  0
  8 18  1  0  0  0  0
  9 19  1  0  0  0  0
 10 20  1  0  0  0  0
M  END
> <FRED Chemgauss4 score>
-6.069874

$$$$
C79926186	P124866785
  -OEChem-05182014473D

 40 41  0     1  0  0  0  0  0999 V2000
  116.4466  105.0109  104.0513 C   0  0  0  0  0  0  0  0  0  0  0  0
  117.3915  103.1967  105.3369 C   0  0  0  0  0  0  0  0  0  0  0  0
  117.6059  105.0666  103.2777 C   0  0  0  0  0  0  0  0  0  0  0  0
  118.5508  103.2523  104.5633 C   0  0  0  0  0  0  0  0  0  0  0  0
  116.3394  104.0760  105.0809 C   0  0  0  0  0  0  0  0  0  0  0  0
  118.6581  104.1873  103.5337 C   0  0  0  0  0  0  0  0  0  0  0  0
  124.2176  104.5349  108.4539 C   0  0  0  0  0  0  0  0  0  0  0  0
  125.3647  104.0719  107.5899 C   0  0  0  0  0  0  0  0  0  0  0  0
  126.0179  105.3811  107.1544 C   0  0  0  0  0  0  0  0  0  0  0  0
  124.8684  106.3811  107.1308 C   0  0  1  0  0  0  0  0  0  0  0  0
  124.1698  106.4421  105.7789 C   0  0  0  0  0  0  0  0  0  0  0  0
  120.6478  105.9622  102.8982 C   0  0  0  0  0  0  0  0  0  0  0  0
  121.5621  106.0044  104.1084 C   0  0  0  0  0  0  0  0  0  0  0  0
  123.9860  105.8727  108.1519 N   0  0  0  0  0  0  0  0  0  0  0  0
  115.1674  104.0196  105.8637 N   0  0  0  0  0  0  0  0  0  0  0  0
  123.1024  107.3858  105.8254 N   0  0  0  0  0  0  0  0  0  0  0  0
  123.5980  103.8358  109.2406 O   0  0  0  0  0  0  0  0  0  0  0  0
  122.9567  108.0784  103.3311 O   0  0  0  0  0  0  0  0  0  0  0  0
  120.9443  108.4411  104.8060 O   0  0  0  0  0  0  0  0  0  0  0  0
  120.1270  104.2590  102.5549 S   0  0  0  0  0  0  0  0  0  0  0  0
  122.1111  107.6642  104.4335 S   0  0  0  0  0  0  0  0  0  0  0  0
  115.6323  105.7004  103.8431 H   0  0  0  0  0  0  0  0  0  0  0  0
  117.3181  102.4638  106.1361 H   0  0  0  0  0  0  0  0  0  0  0  0
  117.6707  105.8027  102.4802 H   0  0  0  0  0  0  0  0  0  0  0  0
  119.3609  102.5595  104.7782 H   0  0  0  0  0  0  0  0  0  0  0  0
  126.0540  103.4432  108.1586 H   0  0  0  0  0  0  0  0  0  0  0  0
  124.9653  103.5161  106.7362 H   0  0  0  0  0  0  0  0  0  0  0  0
  126.7495  105.6833  107.9152 H   0  0  0  0  0  0  0  0  0  0  0  0
  126.5483  105.2938  106.2015 H   0  0  0  0  0  0  0  0  0  0  0  0
  125.2054  107.3809  107.4227 H   0  0  0  0  0  0  0  0  0  0  0  0
  123.7694  105.4628  105.5459 H   0  0  0  0  0  0  0  0  0  0  0  0
  124.8827  106.7485  105.0235 H   0  0  0  0  0  0  0  0  0  0  0  0
  121.1591  106.3564  102.0139 H   0  0  0  0  0  0  0  0  0  0  0  0
  119.7565  106.5759  103.0642 H   0  0  0  0  0  0  0  0  0  0  0  0
  122.4650  105.4037  103.9581 H   0  0  0  0  0  0  0  0  0  0  0  0
  121.0536  105.6635  105.0158 H   0  0  0  0  0  0  0  0  0  0  0  0
  123.2514  106.4232  108.5854 H   0  0  0  0  0  0  0  0  0  0  0  0
  114.4398  104.6860  105.7014 H   0  0  0  0  0  0  0  0  0  0  0  0
  115.1223  103.3768  106.6284 H   0  0  0  0  0  0  0  0  0  0  0  0
  122.5837  107.4578  106.7342 H   0  0  0  0  0  0  0  0  0  0  0  0
  1  3  1  0  0  0  0
  1  5  2  0  0  0  0
  2  4  2  0  0  0  0
  2  5  1  0  0  0  0
  3  6  2  0  0  0  0
  4  6  1  0  0  0  0
  5 15  1  0  0  0  0
  6 20  1  0  0  0  0
  7  8  1  0  0  0  0
  7 14  1  0  0  0  0
  7 17  2  0  0  0  0
  8  9  1  0  0  0  0
  9 10  1  0  0  0  0
 10 11  1  0  0  0  0
 10 14  1  0  0  0  0
 11 16  1  0  0  0  0
 12 13  1  0  0  0  0
 12 20  1  0  0  0  0
 13 21  1  0  0  0  0
 16 21  1  0  0  0  0
 18 21  2  0  0  0  0
 19 21  2  0  0  0  0
  1 22  1  0  0  0  0
  2 23  1  0  0  0  0
  3 24  1  0  0  0  0
  4 25  1  0  0  0  0
  8 26  1  0  0  0  0
  8 27  1  0  0  0  0
  9 28  1  0  0  0  0
  9 29  1  0  0  0  0
 10 30  1  0  0  0  0
 11 31  1  0  0  0  0
 11 32  1  0  0  0  0
 12 33  1  0  0  0  0
 12 34  1  0  0  0  0
 13 35  1  0  0  0  0
 13 36  1  0  0  0  0
 14 37  1  0  0  0  0
 15 38  1  0  0  0  0
 15 39  1  0  0  0  0
 16 40  1  0  0  0  0
M  END
> <FRED Chemgauss4 score>
-6.066514

$$$$
C87395652	P136731630
  -OEChem-05182014473D

 26 27  0     1  0  0  0  0  0999 V2000
  120.9604  107.8962  107.5149 C   0  0  0  0  0  0  0  0  0  0  0  0
  121.4425  108.7117  108.5114 C   0  0  0  0  0  0  0  0  0  0  0  0
  125.6185  104.1210  108.3784 C   0  0  0  0  0  0  0  0  0  0  0  0
  124.3574  104.4165  107.9048 C   0  0  0  0  0  0  0  0  0  0  0  0
  122.9827  108.3020  106.9894 C   0  0  0  0  0  0  0  0  0  0  0  0
  125.2973  106.3716  107.5821 C   0  0  0  0  0  0  0  0  0  0  0  0
  123.2161  103.4816  107.8498 C   0  0  0  0  0  0  0  0  0  0  0  0
  125.4876  107.8192  107.1904 C   0  0  0  0  0  0  0  0  0  0  0  0
  124.3410  108.3678  106.3121 C   0  0  1  0  0  0  0  0  0  0  0  0
  121.9242  107.6446  106.5707 N   0  0  0  0  0  0  0  0  0  0  0  0
  124.1712  105.7067  107.4482 N   0  0  0  0  0  0  0  0  0  0  0  0
  122.7392  108.9629  108.1613 N   0  0  0  0  0  0  0  0  0  0  0  0
  124.3220  107.6538  105.0282 N   0  0  0  0  0  0  0  0  0  0  0  0
  126.6207  105.5068  108.2498 S   0  0  0  0  0  0  0  0  0  0  0  0
  119.9690  107.4762  107.4301 H   0  0  0  0  0  0  0  0  0  0  0  0
  120.9981  109.1228  109.4061 H   0  0  0  0  0  0  0  0  0  0  0  0
  125.9905  103.1891  108.7804 H   0  0  0  0  0  0  0  0  0  0  0  0
  122.6236  103.5233  108.7784 H   0  0  0  0  0  0  0  0  0  0  0  0
  122.5379  103.7059  107.0090 H   0  0  0  0  0  0  0  0  0  0  0  0
  123.5434  102.4376  107.7074 H   0  0  0  0  0  0  0  0  0  0  0  0
  126.4406  107.8936  106.6479 H   0  0  0  0  0  0  0  0  0  0  0  0
  125.6190  108.4311  108.0927 H   0  0  0  0  0  0  0  0  0  0  0  0
  124.5575  109.4174  106.0751 H   0  0  0  0  0  0  0  0  0  0  0  0
  123.3963  109.5356  108.6745 H   0  0  0  0  0  0  0  0  0  0  0  0
  125.1924  107.3587  104.6529 H   0  0  0  0  0  0  0  0  0  0  0  0
  123.4809  107.6774  104.5011 H   0  0  0  0  0  0  0  0  0  0  0  0
  1  2  2  0  0  0  0
  1 10  1  0  0  0  0
  2 12  1  0  0  0  0
  3  4  2  0  0  0  0
  3 14  1  0  0  0  0
  4  7  1  0  0  0  0
  4 11  1  0  0  0  0
  5  9  1  0  0  0  0
  5 10  2  0  0  0  0
  5 12  1  0  0  0  0
  6  8  1  0  0  0  0
  6 11  2  0  0  0  0
  6 14  1  0  0  0  0
  8  9  1  0  0  0  0
  9 13  1  0  0  0  0
  1 15  1  0  0  0  0
  2 16  1  0  0  0  0
  3 17  1  0  0  0  0
  7 18  1  0  0  0  0
  7 19  1  0  0  0  0
  7 20  1  0  0  0  0
  8 21  1  0  0  0  0
  8 22  1  0  0  0  0
  9 23  1  0  0  0  0
 12 24  1  0  0  0  0
 13 25  1  0  0  0  0
 13 26  1  0  0  0  0
M  END
> <FRED Chemgauss4 score>
-6.066041

$$$$
C49714843	P74276194
  -OEChem-05182014473D

 24 24  0     1  0  0  0  0  0999 V2000
  119.5511  104.8874  101.6148 C   0  0  0  0  0  0  0  0  0  0  0  0
  119.4219  103.5565  101.9352 C   0  0  0  0  0  0  0  0  0  0  0  0
  120.8891  104.5605  103.2376 C   0  0  0  0  0  0  0  0  0  0  0  0
  123.7462  105.1097  106.1991 C   0  0  0  0  0  0  0  0  0  0  0  0
  121.9045  104.7011  104.3345 C   0  0  0  0  0  0  0  0  0  0  0  0
  123.3896  107.6004  106.1334 C   0  0  0  0  0  0  0  0  0  0  0  0
  122.7346  106.2289  105.9890 C   0  0  1  0  0  0  0  0  0  0  0  0
  120.4661  105.5066  102.4290 N   0  0  0  0  0  0  0  0  0  0  0  0
  120.2855  103.3619  102.9762 N   0  0  0  0  0  0  0  0  0  0  0  0
  122.1631  106.0991  104.6633 N   0  0  0  0  0  0  0  0  0  0  0  0
  124.4007  107.7466  105.1427 O   0  0  0  0  0  0  0  0  0  0  0  0
  119.0329  105.4307  100.8384 H   0  0  0  0  0  0  0  0  0  0  0  0
  118.8161  102.7576  101.5332 H   0  0  0  0  0  0  0  0  0  0  0  0
  124.5680  105.1860  105.4797 H   0  0  0  0  0  0  0  0  0  0  0  0
  123.2813  104.1241  106.0831 H   0  0  0  0  0  0  0  0  0  0  0  0
  124.1737  105.1556  107.2068 H   0  0  0  0  0  0  0  0  0  0  0  0
  121.5612  104.1983  105.2452 H   0  0  0  0  0  0  0  0  0  0  0  0
  122.8572  104.2426  104.0492 H   0  0  0  0  0  0  0  0  0  0  0  0
  122.6544  108.3974  105.9807 H   0  0  0  0  0  0  0  0  0  0  0  0
  123.8486  107.7284  107.1199 H   0  0  0  0  0  0  0  0  0  0  0  0
  121.9231  106.1317  106.7191 H   0  0  0  0  0  0  0  0  0  0  0  0
  120.4454  102.4908  103.4648 H   0  0  0  0  0  0  0  0  0  0  0  0
  122.8083  106.4874  103.9724 H   0  0  0  0  0  0  0  0  0  0  0  0
  124.7893  108.6267  105.2693 H   0  0  0  0  0  0  0  0  0  0  0  0
  1  2  2  0  0  0  0
  1  8  1  0  0  0  0
  2  9  1  0  0  0  0
  3  5  1  0  0  0  0
  3  8  2  0  0  0  0
  3  9  1  0  0  0  0
  4  7  1  0  0  0  0
  5 10  1  0  0  0  0
  6  7  1  0  0  0  0
  6 11  1  0  0  0  0
  7 10  1  0  0  0  0
  1 12  1  0  0  0  0
  2 13  1  0  0  0  0
  4 14  1  0  0  0  0
  4 15  1  0  0  0  0
  4 16  1  0  0  0  0
  5 17  1  0  0  0  0
  5 18  1  0  0  0  0
  6 19  1  0  0  0  0
  6 20  1  0  0  0  0
  7 21  1  0  0  0  0
  9 22  1  0  0  0  0
 10 23  1  0  0  0  0
 11 24  1  0  0  0  0
M  END
> <FRED Chemgauss4 score>
-6.061690

$$$$
C51123437	P76554058
  -OEChem-05182014473D

 35 36  0     1  0  0  0  0  0999 V2000
  123.9808  105.4632  107.9145 C   0  0  0  0  0  0  0  0  0  0  0  0
  116.1888  104.6754  104.4682 C   0  0  0  0  0  0  0  0  0  0  0  0
  126.3265  105.5890  107.5425 C   0  0  0  0  0  0  0  0  0  0  0  0
  116.9402  104.8520  105.6060 C   0  0  0  0  0  0  0  0  0  0  0  0
  118.1338  103.9601  103.9824 C   0  0  0  0  0  0  0  0  0  0  0  0
  123.7861  106.1659  106.7306 C   0  0  0  0  0  0  0  0  0  0  0  0
  125.2721  105.1653  108.3352 C   0  0  0  0  0  0  0  0  0  0  0  0
  124.9070  106.5451  106.0098 C   0  0  0  0  0  0  0  0  0  0  0  0
  122.4027  106.4789  106.2884 C   0  0  0  0  0  0  0  0  0  0  0  0
  119.3156  106.5875  107.3201 C   0  0  0  0  0  0  0  0  0  0  0  0
  119.3529  104.3577  106.1556 C   0  0  0  0  0  0  0  0  0  0  0  0
  120.0396  105.7228  106.2932 C   0  0  2  0  0  0  0  0  0  0  0  0
  116.9375  104.1195  103.4612 N   0  0  0  0  0  0  0  0  0  0  0  0
  126.1767  106.2737  106.3865 N   0  0  0  0  0  0  0  0  0  0  0  0
  118.1836  104.3888  105.2797 N   0  0  0  0  0  0  0  0  0  0  0  0
  125.7440  107.9474  104.2055 N   0  0  0  0  0  0  0  0  0  0  0  0
  124.7168  107.2611  104.8016 N   0  0  0  0  0  0  0  0  0  0  0  0
  121.4269  105.5704  106.6672 N   0  0  0  0  0  0  0  0  0  0  0  0
  122.2019  107.4846  105.6126 O   0  0  0  0  0  0  0  0  0  0  0  0
  125.5787  104.2162  109.9329 Br  0  0  0  0  0  0  0  0  0  0  0  0
  123.1237  105.1497  108.5064 H   0  0  0  0  0  0  0  0  0  0  0  0
  115.1468  104.9202  104.3229 H   0  0  0  0  0  0  0  0  0  0  0  0
  127.3587  105.3885  107.8140 H   0  0  0  0  0  0  0  0  0  0  0  0
  116.7059  105.2521  106.5827 H   0  0  0  0  0  0  0  0  0  0  0  0
  118.9934  103.5441  103.4748 H   0  0  0  0  0  0  0  0  0  0  0  0
  119.2979  106.0954  108.2988 H   0  0  0  0  0  0  0  0  0  0  0  0
  118.2802  106.7727  107.0159 H   0  0  0  0  0  0  0  0  0  0  0  0
  119.8137  107.5551  107.4472 H   0  0  0  0  0  0  0  0  0  0  0  0
  119.0306  103.9746  107.1320 H   0  0  0  0  0  0  0  0  0  0  0  0
  120.0418  103.6164  105.7314 H   0  0  0  0  0  0  0  0  0  0  0  0
  120.0366  106.2468  105.3303 H   0  0  0  0  0  0  0  0  0  0  0  0
  125.3859  108.8524  103.9039 H   0  0  0  0  0  0  0  0  0  0  0  0
  126.0127  107.4539  103.3552 H   0  0  0  0  0  0  0  0  0  0  0  0
  123.8744  107.0829  104.2797 H   0  0  0  0  0  0  0  0  0  0  0  0
  121.6790  104.7275  107.1733 H   0  0  0  0  0  0  0  0  0  0  0  0
  1  6  1  0  0  0  0
  1  7  2  0  0  0  0
  2  4  2  0  0  0  0
  2 13  1  0  0  0  0
  3  7  1  0  0  0  0
  3 14  2  0  0  0  0
  4 15  1  0  0  0  0
  5 13  2  0  0  0  0
  5 15  1  0  0  0  0
  6  8  2  0  0  0  0
  6  9  1  0  0  0  0
  7 20  1  0  0  0  0
  8 14  1  0  0  0  0
  8 17  1  0  0  0  0
  9 18  1  0  0  0  0
  9 19  2  0  0  0  0
 10 12  1  0  0  0  0
 11 12  1  0  0  0  0
 11 15  1  0  0  0  0
 12 18  1  0  0  0  0
 16 17  1  0  0  0  0
  1 21  1  0  0  0  0
  2 22  1  0  0  0  0
  3 23  1  0  0  0  0
  4 24  1  0  0  0  0
  5 25  1  0  0  0  0
 10 26  1  0  0  0  0
 10 27  1  0  0  0  0
 10 28  1  0  0  0  0
 11 29  1  0  0  0  0
 11 30  1  0  0  0  0
 12 31  1  0  0  0  0
 16 32  1  0  0  0  0
 16 33  1  0  0  0  0
 17 34  1  0  0  0  0
 18 35  1  0  0  0  0
M  END
> <FRED Chemgauss4 score>
-6.056437

$$$$
C80739801	P126048467
  -OEChem-05182014473D

 33 34  0     1  0  0  0  0  0999 V2000
  118.2749  103.5568  106.2090 C   0  0  0  0  0  0  0  0  0  0  0  0
  118.7980  103.9950  104.2235 C   0  0  0  0  0  0  0  0  0  0  0  0
  121.2246  104.9406  103.2533 C   0  0  0  0  0  0  0  0  0  0  0  0
  121.1088  104.7277  104.5741 C   0  0  0  0  0  0  0  0  0  0  0  0
  120.0179  104.6433  102.4249 C   0  0  0  0  0  0  0  0  0  0  0  0
  120.1346  104.8770  100.9391 C   0  0  0  0  0  0  0  0  0  0  0  0
  124.6006  108.9786  107.1087 C   0  0  0  0  0  0  0  0  0  0  0  0
  123.2114  105.7988  105.1730 C   0  0  0  0  0  0  0  0  0  0  0  0
  123.2356  107.0185  106.1091 C   0  0  1  0  0  0  0  0  0  0  0  0
  124.5879  107.7647  106.1861 C   0  0  1  0  0  0  0  0  0  0  0  0
  117.7843  103.5584  104.9436 N   0  0  0  0  0  0  0  0  0  0  0  0
  119.5334  103.9636  106.3443 N   0  0  0  0  0  0  0  0  0  0  0  0
  118.8829  104.2005  102.8794 N   0  0  0  0  0  0  0  0  0  0  0  0
  119.8861  104.2513  105.0639 N   0  0  0  0  0  0  0  0  0  0  0  0
  122.1886  107.9513  105.6788 N   0  0  0  0  0  0  0  0  0  0  0  0
  122.0838  104.9403  105.4523 N   0  0  0  0  0  0  0  0  0  0  0  0
  124.9876  108.2026  104.8878 O   0  0  0  0  0  0  0  0  0  0  0  0
  117.6960  103.2484  107.0665 H   0  0  0  0  0  0  0  0  0  0  0  0
  122.1292  105.3067  102.7852 H   0  0  0  0  0  0  0  0  0  0  0  0
  120.4862  103.9674  100.4639 H   0  0  0  0  0  0  0  0  0  0  0  0
  120.8372  105.6845  100.7610 H   0  0  0  0  0  0  0  0  0  0  0  0
  119.1607  105.1491  100.5456 H   0  0  0  0  0  0  0  0  0  0  0  0
  123.8471  109.7181  106.8234 H   0  0  0  0  0  0  0  0  0  0  0  0
  124.3989  108.6660  108.1397 H   0  0  0  0  0  0  0  0  0  0  0  0
  125.5843  109.4590  107.1264 H   0  0  0  0  0  0  0  0  0  0  0  0
  124.1366  105.2173  105.2415 H   0  0  0  0  0  0  0  0  0  0  0  0
  123.1258  106.1326  104.1317 H   0  0  0  0  0  0  0  0  0  0  0  0
  122.9850  106.6696  107.1198 H   0  0  0  0  0  0  0  0  0  0  0  0
  125.3637  107.0681  106.5282 H   0  0  0  0  0  0  0  0  0  0  0  0
  122.2619  108.8974  105.9744 H   0  0  0  0  0  0  0  0  0  0  0  0
  121.3579  107.5672  105.2910 H   0  0  0  0  0  0  0  0  0  0  0  0
  122.0193  104.4719  106.3559 H   0  0  0  0  0  0  0  0  0  0  0  0
  125.8787  108.5710  104.9850 H   0  0  0  0  0  0  0  0  0  0  0  0
  1 11  1  0  0  0  0
  1 12  2  0  0  0  0
  2 11  2  0  0  0  0
  2 13  1  0  0  0  0
  2 14  1  0  0  0  0
  3  4  2  0  0  0  0
  3  5  1  0  0  0  0
  4 14  1  0  0  0  0
  4 16  1  0  0  0  0
  5  6  1  0  0  0  0
  5 13  2  0  0  0  0
  7 10  1  0  0  0  0
  8  9  1  0  0  0  0
  8 16  1  0  0  0  0
  9 10  1  0  0  0  0
  9 15  1  0  0  0  0
 10 17  1  0  0  0  0
 12 14  1  0  0  0  0
  1 18  1  0  0  0  0
  3 19  1  0  0  0  0
  6 20  1  0  0  0  0
  6 21  1  0  0  0  0
  6 22  1  0  0  0  0
  7 23  1  0  0  0  0
  7 24  1  0  0  0  0
  7 25  1  0  0  0  0
  8 26  1  0  0  0  0
  8 27  1  0  0  0  0
  9 28  1  0  0  0  0
 10 29  1  0  0  0  0
 15 30  1  0  0  0  0
 15 31  1  0  0  0  0
 16 32  1  0  0  0  0
 17 33  1  0  0  0  0
M  END
> <FRED Chemgauss4 score>
-6.052517

$$$$
C82680771	P129217506
  -OEChem-05182014473D

 24 23  0     1  0  0  0  0  0999 V2000
  124.3502  108.0255  107.1784 C   0  0  0  0  0  0  0  0  0  0  0  0
  123.6257  106.1429  105.6747 C   0  0  0  0  0  0  0  0  0  0  0  0
  121.4356  105.9229  104.7178 C   0  0  0  0  0  0  0  0  0  0  0  0
  124.7083  107.1797  105.9638 C   0  0  1  0  0  0  0  0  0  0  0  0
  120.6925  104.9854  105.6739 C   0  0  1  0  0  0  0  0  0  0  0  0
  119.3829  104.4556  105.1190 C   0  0  0  0  0  0  0  0  0  0  0  0
  122.3680  106.8059  105.4137 N   0  0  0  0  0  0  0  0  0  0  0  0
  124.8318  108.0375  104.8310 O   0  0  0  0  0  0  0  0  0  0  0  0
  121.5265  103.8586  105.9451 O   0  0  0  0  0  0  0  0  0  0  0  0
  118.4917  105.4482  104.9101 F   0  0  0  0  0  0  0  0  0  0  0  0
  118.8160  103.5595  105.9549 F   0  0  0  0  0  0  0  0  0  0  0  0
  119.5817  103.8411  103.9306 F   0  0  0  0  0  0  0  0  0  0  0  0
  123.3864  108.5262  107.0445 H   0  0  0  0  0  0  0  0  0  0  0  0
  124.3053  107.4112  108.0846 H   0  0  0  0  0  0  0  0  0  0  0  0
  125.1163  108.7885  107.3536 H   0  0  0  0  0  0  0  0  0  0  0  0
  123.8897  105.5383  104.8003 H   0  0  0  0  0  0  0  0  0  0  0  0
  123.4948  105.4715  106.5296 H   0  0  0  0  0  0  0  0  0  0  0  0
  121.9768  105.3377  103.9652 H   0  0  0  0  0  0  0  0  0  0  0  0
  120.7106  106.5302  104.1628 H   0  0  0  0  0  0  0  0  0  0  0  0
  125.6760  106.6906  106.1245 H   0  0  0  0  0  0  0  0  0  0  0  0
  120.5027  105.4888  106.6291 H   0  0  0  0  0  0  0  0  0  0  0  0
  121.9426  107.1021  106.2961 H   0  0  0  0  0  0  0  0  0  0  0  0
  125.5363  108.6698  105.0403 H   0  0  0  0  0  0  0  0  0  0  0  0
  121.6956  103.4318  105.0917 H   0  0  0  0  0  0  0  0  0  0  0  0
  1  4  1  0  0  0  0
  2  4  1  0  0  0  0
  2  7  1  0  0  0  0
  3  5  1  0  0  0  0
  3  7  1  0  0  0  0
  4  8  1  0  0  0  0
  5  6  1  0  0  0  0
  5  9  1  0  0  0  0
  6 10  1  0  0  0  0
  6 11  1  0  0  0  0
  6 12  1  0  0  0  0
  1 13  1  0  0  0  0
  1 14  1  0  0  0  0
  1 15  1  0  0  0  0
  2 16  1  0  0  0  0
  2 17  1  0  0  0  0
  3 18  1  0  0  0  0
  3 19  1  0  0  0  0
  4 20  1  0  0  0  0
  5 21  1  0  0  0  0
  7 22  1  0  0  0  0
  8 23  1  0  0  0  0
  9 24  1  0  0  0  0
M  END
> <FRED Chemgauss4 score>
-6.052377

$$$$
C44197910	P66763191
  -OEChem-05182014473D

 21 21  0     1  0  0  0  0  0999 V2000
  120.7042  105.4710  104.6945 C   0  0  0  0  0  0  0  0  0  0  0  0
  119.8922  104.0359  106.3326 C   0  0  0  0  0  0  0  0  0  0  0  0
  119.6382  104.6232  105.1127 C   0  0  0  0  0  0  0  0  0  0  0  0
  121.7325  105.4996  105.6110 C   0  0  0  0  0  0  0  0  0  0  0  0
  123.9352  106.0654  106.7719 C   0  0  0  0  0  0  0  0  0  0  0  0
  125.2555  106.8240  106.6836 C   0  0  0  0  0  0  0  0  0  0  0  0
  123.0342  106.2704  105.5436 C   0  0  2  0  0  0  0  0  0  0  0  0
  122.7731  107.6796  105.3422 N   0  0  0  0  0  0  0  0  0  0  0  0
  126.0175  106.5514  107.8526 O   0  0  0  0  0  0  0  0  0  0  0  0
  121.4108  104.5069  106.9687 S   0  0  0  0  0  0  0  0  0  0  0  0
  118.0841  104.3664  104.0824 Br  0  0  0  0  0  0  0  0  0  0  0  0
  120.7214  106.0340  103.7691 H   0  0  0  0  0  0  0  0  0  0  0  0
  119.2636  103.3520  106.8861 H   0  0  0  0  0  0  0  0  0  0  0  0
  123.4029  106.3972  107.6741 H   0  0  0  0  0  0  0  0  0  0  0  0
  124.1378  105.0001  106.9444 H   0  0  0  0  0  0  0  0  0  0  0  0
  125.8403  106.5091  105.8142 H   0  0  0  0  0  0  0  0  0  0  0  0
  125.0818  107.9032  106.6266 H   0  0  0  0  0  0  0  0  0  0  0  0
  123.5965  105.9586  104.6544 H   0  0  0  0  0  0  0  0  0  0  0  0
  121.9868  107.9489  104.7805 H   0  0  0  0  0  0  0  0  0  0  0  0
  123.4848  108.3419  105.5900 H   0  0  0  0  0  0  0  0  0  0  0  0
  126.8481  107.0464  107.7666 H   0  0  0  0  0  0  0  0  0  0  0  0
  1  3  1  0  0  0  0
  1  4  2  0  0  0  0
  2  3  2  0  0  0  0
  2 10  1  0  0  0  0
  3 11  1  0  0  0  0
  4  7  1  0  0  0  0
  4 10  1  0  0  0  0
  5  6  1  0  0  0  0
  5  7  1  0  0  0  0
  6  9  1  0  0  0  0
  7  8  1  0  0  0  0
  1 12  1  0  0  0  0
  2 13  1  0  0  0  0
  5 14  1  0  0  0  0
  5 15  1  0  0  0  0
  6 16  1  0  0  0  0
  6 17  1  0  0  0  0
  7 18  1  0  0  0  0
  8 19  1  0  0  0  0
  8 20  1  0  0  0  0
  9 21  1  0  0  0  0
M  END
> <FRED Chemgauss4 score>
-6.051980

$$$$
C87121096	P136358264
  -OEChem-05182014473D

 33 33  0     1  0  0  0  0  0999 V2000
  120.4827  104.1206  106.7287 C   0  0  0  0  0  0  0  0  0  0  0  0
  121.3608  105.3270  107.0710 C   0  0  0  0  0  0  0  0  0  0  0  0
  120.3066  103.8963  105.2259 C   0  0  0  0  0  0  0  0  0  0  0  0
  121.7173  105.9187  104.6357 C   0  0  0  0  0  0  0  0  0  0  0  0
  122.3980  105.6028  105.9803 C   0  0  1  0  0  0  0  0  0  0  0  0
  120.3709  105.2069  104.4504 C   0  0  1  0  0  0  0  0  0  0  0  0
  118.2601  104.8386  102.6834 C   0  0  0  0  0  0  0  0  0  0  0  0
  124.3334  107.0434  105.2706 C   0  0  0  0  0  0  0  0  0  0  0  0
  123.3443  106.7302  106.3876 C   0  0  1  0  0  0  0  0  0  0  0  0
  125.4776  107.7391  105.8149 N   0  0  0  0  0  0  0  0  0  0  0  0
  120.5618  103.6400  102.3705 O   0  0  0  0  0  0  0  0  0  0  0  0
  120.4279  106.1348  102.0105 O   0  0  0  0  0  0  0  0  0  0  0  0
  122.5686  107.8947  106.6553 O   0  0  0  0  0  0  0  0  0  0  0  0
  120.0325  104.9407  102.7319 S   0  0  0  0  0  0  0  0  0  0  0  0
  120.9109  103.2155  107.1932 H   0  0  0  0  0  0  0  0  0  0  0  0
  119.4909  104.2509  107.1948 H   0  0  0  0  0  0  0  0  0  0  0  0
  120.7195  106.2067  107.2124 H   0  0  0  0  0  0  0  0  0  0  0  0
  121.8621  105.1441  108.0291 H   0  0  0  0  0  0  0  0  0  0  0  0
  121.0650  103.1975  104.8724 H   0  0  0  0  0  0  0  0  0  0  0  0
  119.3317  103.4342  105.0580 H   0  0  0  0  0  0  0  0  0  0  0  0
  121.5449  107.0018  104.5704 H   0  0  0  0  0  0  0  0  0  0  0  0
  122.3951  105.6622  103.8114 H   0  0  0  0  0  0  0  0  0  0  0  0
  123.0116  104.6929  105.8515 H   0  0  0  0  0  0  0  0  0  0  0  0
  119.5727  105.8643  104.7840 H   0  0  0  0  0  0  0  0  0  0  0  0
  117.9528  104.6729  101.6496 H   0  0  0  0  0  0  0  0  0  0  0  0
  117.9457  104.0055  103.3139 H   0  0  0  0  0  0  0  0  0  0  0  0
  117.8507  105.7779  103.0582 H   0  0  0  0  0  0  0  0  0  0  0  0
  124.6812  106.1236  104.7880 H   0  0  0  0  0  0  0  0  0  0  0  0
  123.8706  107.6778  104.5076 H   0  0  0  0  0  0  0  0  0  0  0  0
  123.8705  106.4518  107.3057 H   0  0  0  0  0  0  0  0  0  0  0  0
  126.0185  108.3291  105.2089 H   0  0  0  0  0  0  0  0  0  0  0  0
  125.8263  107.4658  106.7160 H   0  0  0  0  0  0  0  0  0  0  0  0
  123.1936  108.5911  106.9105 H   0  0  0  0  0  0  0  0  0  0  0  0
  1  2  1  0  0  0  0
  1  3  1  0  0  0  0
  2  5  1  0  0  0  0
  3  6  1  0  0  0  0
  4  5  1  0  0  0  0
  4  6  1  0  0  0  0
  5  9  1  0  0  0  0
  6 14  1  0  0  0  0
  7 14  1  0  0  0  0
  8  9  1  0  0  0  0
  8 10  1  0  0  0  0
  9 13  1  0  0  0  0
 11 14  2  0  0  0  0
 12 14  2  0  0  0  0
  1 15  1  0  0  0  0
  1 16  1  0  0  0  0
  2 17  1  0  0  0  0
  2 18  1  0  0  0  0
  3 19  1  0  0  0  0
  3 20  1  0  0  0  0
  4 21  1  0  0  0  0
  4 22  1  0  0  0  0
  5 23  1  0  0  0  0
  6 24  1  0  0  0  0
  7 25  1  0  0  0  0
  7 26  1  0  0  0  0
  7 27  1  0  0  0  0
  8 28  1  0  0  0  0
  8 29  1  0  0  0  0
  9 30  1  0  0  0  0
 10 31  1  0  0  0  0
 10 32  1  0  0  0  0
 13 33  1  0  0  0  0
M  END
> <FRED Chemgauss4 score>
-6.049651

$$$$
C51840091	P77649079
  -OEChem-05182014473D

 32 32  0     1  0  0  0  0  0999 V2000
  120.3182  104.2941  107.0922 C   0  0  0  0  0  0  0  0  0  0  0  0
  119.0012  105.9640  106.1261 C   0  0  0  0  0  0  0  0  0  0  0  0
  120.1443  105.6370  106.8266 C   0  0  0  0  0  0  0  0  0  0  0  0
  118.3737  103.7812  106.0325 C   0  0  0  0  0  0  0  0  0  0  0  0
  124.7525  105.0895  108.1800 C   0  0  0  0  0  0  0  0  0  0  0  0
  122.4365  106.6432  104.8522 C   0  0  0  0  0  0  0  0  0  0  0  0
  123.9878  106.9985  106.7304 C   0  0  0  0  0  0  0  0  0  0  0  0
  124.9479  105.8183  106.8573 C   0  0  1  0  0  0  0  0  0  0  0  0
  119.4496  103.3355  106.7087 N   0  0  0  0  0  0  0  0  0  0  0  0
  118.0911  105.0583  105.7118 N   0  0  0  0  0  0  0  0  0  0  0  0
  116.4656  103.0870  104.6910 N   0  0  0  0  0  0  0  0  0  0  0  0
  117.4427  102.8050  105.6156 N   0  0  0  0  0  0  0  0  0  0  0  0
  122.6817  106.5280  106.3278 N   0  0  1  0  0  0  0  0  0  0  0  0
  120.7686  108.1570  106.9962 O   0  0  0  0  0  0  0  0  0  0  0  0
  121.6330  106.5783  108.7411 O   0  0  0  0  0  0  0  0  0  0  0  0
  126.2853  106.3109  106.8012 O   0  0  0  0  0  0  0  0  0  0  0  0
  121.3120  106.8597  107.3540 S   0  0  0  0  0  0  0  0  0  0  0  0
  121.1839  103.9329  107.6382 H   0  0  0  0  0  0  0  0  0  0  0  0
  118.7714  106.9924  105.8664 H   0  0  0  0  0  0  0  0  0  0  0  0
  124.8848  105.7656  109.0302 H   0  0  0  0  0  0  0  0  0  0  0  0
  123.7540  104.6422  108.2374 H   0  0  0  0  0  0  0  0  0  0  0  0
  125.4709  104.2680  108.2748 H   0  0  0  0  0  0  0  0  0  0  0  0
  121.4372  106.2740  104.6074 H   0  0  0  0  0  0  0  0  0  0  0  0
  123.1742  106.0550  104.2994 H   0  0  0  0  0  0  0  0  0  0  0  0
  122.5131  107.6872  104.5366 H   0  0  0  0  0  0  0  0  0  0  0  0
  123.8900  107.5248  107.6861 H   0  0  0  0  0  0  0  0  0  0  0  0
  124.3477  107.7111  105.9811 H   0  0  0  0  0  0  0  0  0  0  0  0
  124.8100  105.1192  106.0244 H   0  0  0  0  0  0  0  0  0  0  0  0
  115.5912  102.6777  105.0167 H   0  0  0  0  0  0  0  0  0  0  0  0
  116.6940  102.6067  103.8216 H   0  0  0  0  0  0  0  0  0  0  0  0
  117.6335  101.8407  105.8447 H   0  0  0  0  0  0  0  0  0  0  0  0
  126.8662  105.5375  106.8666 H   0  0  0  0  0  0  0  0  0  0  0  0
  1  3  1  0  0  0  0
  1  9  2  0  0  0  0
  2  3  2  0  0  0  0
  2 10  1  0  0  0  0
  3 17  1  0  0  0  0
  4  9  1  0  0  0  0
  4 10  2  0  0  0  0
  4 12  1  0  0  0  0
  5  8  1  0  0  0  0
  6 13  1  0  0  0  0
  7  8  1  0  0  0  0
  7 13  1  0  0  0  0
  8 16  1  0  0  0  0
 11 12  1  0  0  0  0
 13 17  1  0  0  0  0
 14 17  2  0  0  0  0
 15 17  2  0  0  0  0
  1 18  1  0  0  0  0
  2 19  1  0  0  0  0
  5 20  1  0  0  0  0
  5 21  1  0  0  0  0
  5 22  1  0  0  0  0
  6 23  1  0  0  0  0
  6 24  1  0  0  0  0
  6 25  1  0  0  0  0
  7 26  1  0  0  0  0
  7 27  1  0  0  0  0
  8 28  1  0  0  0  0
 11 29  1  0  0  0  0
 11 30  1  0  0  0  0
 12 31  1  0  0  0  0
 16 32  1  0  0  0  0
M  END
> <FRED Chemgauss4 score>
-6.049161

$$$$
C00162133	P05572005
  -OEChem-05182014473D

 28 28  0     1  0  0  0  0  0999 V2000
  120.9230  104.2794  106.2723 C   0  0  0  0  0  0  0  0  0  0  0  0
  122.7670  106.4177  105.7292 C   0  0  0  0  0  0  0  0  0  0  0  0
  120.9507  104.9382  104.8998 C   0  0  1  0  0  0  0  0  0  0  0  0
  123.2425  105.1560  106.4364 C   0  0  1  0  0  0  0  0  0  0  0  0
  119.5609  105.0484  104.2941 C   0  0  0  0  0  0  0  0  0  0  0  0
  124.2873  105.4591  107.4982 C   0  0  0  0  0  0  0  0  0  0  0  0
  119.0915  103.7235  103.7151 C   0  0  0  0  0  0  0  0  0  0  0  0
  125.6574  105.7053  106.8870 C   0  0  0  0  0  0  0  0  0  0  0  0
  121.5562  106.2503  105.0747 N   0  0  0  0  0  0  0  0  0  0  0  0
  122.0645  104.5298  107.0184 N   0  0  0  0  0  0  0  0  0  0  0  0
  120.0359  103.5115  106.6369 O   0  0  0  0  0  0  0  0  0  0  0  0
  123.4396  107.4427  105.6479 O   0  0  0  0  0  0  0  0  0  0  0  0
  120.0078  103.3131  102.7096 O   0  0  0  0  0  0  0  0  0  0  0  0
  126.5843  105.9666  107.9317 O   0  0  0  0  0  0  0  0  0  0  0  0
  121.6030  104.3486  104.2452 H   0  0  0  0  0  0  0  0  0  0  0  0
  123.6541  104.4716  105.6855 H   0  0  0  0  0  0  0  0  0  0  0  0
  119.5580  105.8154  103.5113 H   0  0  0  0  0  0  0  0  0  0  0  0
  118.8511  105.3909  105.0556 H   0  0  0  0  0  0  0  0  0  0  0  0
  124.3442  104.6275  108.2096 H   0  0  0  0  0  0  0  0  0  0  0  0
  123.9800  106.3350  108.0808 H   0  0  0  0  0  0  0  0  0  0  0  0
  119.0534  102.9497  104.4885 H   0  0  0  0  0  0  0  0  0  0  0  0
  118.0997  103.8235  103.2627 H   0  0  0  0  0  0  0  0  0  0  0  0
  126.0002  104.8285  106.3283 H   0  0  0  0  0  0  0  0  0  0  0  0
  125.6367  106.5695  106.2154 H   0  0  0  0  0  0  0  0  0  0  0  0
  121.0777  107.0671  104.7065 H   0  0  0  0  0  0  0  0  0  0  0  0
  122.0791  104.2686  107.9998 H   0  0  0  0  0  0  0  0  0  0  0  0
  119.6815  102.4677  102.3609 H   0  0  0  0  0  0  0  0  0  0  0  0
  127.4459  106.1190  107.5107 H   0  0  0  0  0  0  0  0  0  0  0  0
  1  3  1  0  0  0  0
  1 10  1  0  0  0  0
  1 11  2  0  0  0  0
  2  4  1  0  0  0  0
  2  9  1  0  0  0  0
  2 12  2  0  0  0  0
  3  5  1  0  0  0  0
  3  9  1  0  0  0  0
  4  6  1  0  0  0  0
  4 10  1  0  0  0  0
  5  7  1  0  0  0  0
  6  8  1  0  0  0  0
  7 13  1  0  0  0  0
  8 14  1  0  0  0  0
  3 15  1  0  0  0  0
  4 16  1  0  0  0  0
  5 17  1  0  0  0  0
  5 18  1  0  0  0  0
  6 19  1  0  0  0  0
  6 20  1  0  0  0  0
  7 21  1  0  0  0  0
  7 22  1  0  0  0  0
  8 23  1  0  0  0  0
  8 24  1  0  0  0  0
  9 25  1  0  0  0  0
 10 26  1  0  0  0  0
 13 27  1  0  0  0  0
 14 28  1  0  0  0  0
M  END
> <FRED Chemgauss4 score>
-6.044504

$$$$
C80262826	P125353148
  -OEChem-05182014473D

 34 35  0     1  0  0  0  0  0999 V2000
  121.3376  105.0777  107.4628 C   0  0  0  0  0  0  0  0  0  0  0  0
  122.5963  105.0177  108.0608 C   0  0  0  0  0  0  0  0  0  0  0  0
  123.5744  106.0457  106.1053 C   0  0  0  0  0  0  0  0  0  0  0  0
  117.4842  105.0468  102.1282 C   0  0  0  0  0  0  0  0  0  0  0  0
  116.2625  104.9428  102.7596 C   0  0  0  0  0  0  0  0  0  0  0  0
  121.1973  105.6217  106.1860 C   0  0  0  0  0  0  0  0  0  0  0  0
  122.3157  106.1057  105.5073 C   0  0  0  0  0  0  0  0  0  0  0  0
  123.7147  105.5017  107.3821 C   0  0  0  0  0  0  0  0  0  0  0  0
  118.1981  104.7030  104.1732 C   0  0  0  0  0  0  0  0  0  0  0  0
  120.0375  103.2883  105.1802 C   0  0  0  0  0  0  0  0  0  0  0  0
  125.4334  106.9663  109.0114 C   0  0  0  0  0  0  0  0  0  0  0  0
  119.1290  104.5042  105.3499 C   0  0  1  0  0  0  0  0  0  0  0  0
  118.5953  104.9100  102.9373 N   0  0  0  0  0  0  0  0  0  0  0  0
  122.1959  106.6606  104.2135 N   0  0  0  0  0  0  0  0  0  0  0  0
  119.9133  105.6724  105.5989 N   0  0  0  0  0  0  0  0  0  0  0  0
  125.2700  104.3514  109.1119 O   0  0  0  0  0  0  0  0  0  0  0  0
  126.3087  105.4376  107.0902 O   0  0  0  0  0  0  0  0  0  0  0  0
  116.5024  104.6603  104.4341 S   0  0  0  0  0  0  0  0  0  0  0  0
  125.2900  105.4274  108.1313 S   0  0  0  0  0  0  0  0  0  0  0  0
  120.4733  104.6972  108.0012 H   0  0  0  0  0  0  0  0  0  0  0  0
  122.6943  104.5912  109.0554 H   0  0  0  0  0  0  0  0  0  0  0  0
  124.4471  106.4229  105.5768 H   0  0  0  0  0  0  0  0  0  0  0  0
  117.6216  105.2232  101.0698 H   0  0  0  0  0  0  0  0  0  0  0  0
  115.2731  105.0146  102.3306 H   0  0  0  0  0  0  0  0  0  0  0  0
  120.6606  103.3833  104.2841 H   0  0  0  0  0  0  0  0  0  0  0  0
  120.7015  103.1814  106.0454 H   0  0  0  0  0  0  0  0  0  0  0  0
  119.4654  102.3574  105.0968 H   0  0  0  0  0  0  0  0  0  0  0  0
  126.4041  106.9893  109.5091 H   0  0  0  0  0  0  0  0  0  0  0  0
  125.3530  107.7830  108.2924 H   0  0  0  0  0  0  0  0  0  0  0  0
  124.6267  107.0205  109.7439 H   0  0  0  0  0  0  0  0  0  0  0  0
  118.5329  104.3525  106.2582 H   0  0  0  0  0  0  0  0  0  0  0  0
  123.0066  107.0417  103.7719 H   0  0  0  0  0  0  0  0  0  0  0  0
  121.2888  106.7467  103.8046 H   0  0  0  0  0  0  0  0  0  0  0  0
  119.5630  106.5785  105.3556 H   0  0  0  0  0  0  0  0  0  0  0  0
  1  2  2  0  0  0  0
  1  6  1  0  0  0  0
  2  8  1  0  0  0  0
  3  7  1  0  0  0  0
  3  8  2  0  0  0  0
  4  5  2  0  0  0  0
  4 13  1  0  0  0  0
  5 18  1  0  0  0  0
  6  7  2  0  0  0  0
  6 15  1  0  0  0  0
  7 14  1  0  0  0  0
  8 19  1  0  0  0  0
  9 12  1  0  0  0  0
  9 13  2  0  0  0  0
  9 18  1  0  0  0  0
 10 12  1  0  0  0  0
 11 19  1  0  0  0  0
 12 15  1  0  0  0  0
 16 19  2  0  0  0  0
 17 19  2  0  0  0  0
  1 20  1  0  0  0  0
  2 21  1  0  0  0  0
  3 22  1  0  0  0  0
  4 23  1  0  0  0  0
  5 24  1  0  0  0  0
 10 25  1  0  0  0  0
 10 26  1  0  0  0  0
 10 27  1  0  0  0  0
 11 28  1  0  0  0  0
 11 29  1  0  0  0  0
 11 30  1  0  0  0  0
 12 31  1  0  0  0  0
 14 32  1  0  0  0  0
 14 33  1  0  0  0  0
 15 34  1  0  0  0  0
M  END
> <FRED Chemgauss4 score>
-6.043709

$$$$
C39058911	P151021703
  -OEChem-05182014473D

 21 21  0     1  0  0  0  0  0999 V2000
  123.4770  106.5557  105.6678 C   0  0  0  0  0  0  0  0  0  0  0  0
  124.9130  107.0335  105.7684 C   0  0  2  0  0  0  0  0  0  0  0  0
  125.3715  106.4442  107.1122 C   0  0  1  0  0  0  0  0  0  0  0  0
  124.5932  105.1276  107.1818 C   0  0  1  0  0  0  0  0  0  0  0  0
  124.3881  104.6100  108.5953 C   0  0  0  0  0  0  0  0  0  0  0  0
  123.3514  105.4668  106.5297 N   0  0  0  0  0  0  0  0  0  0  0  0
  124.9345  108.4868  105.7356 N   0  0  0  0  0  0  0  0  0  0  0  0
  126.8112  106.2422  107.1716 N   0  0  0  0  0  0  0  0  0  0  0  0
  122.6091  107.0174  104.9423 O   0  0  0  0  0  0  0  0  0  0  0  0
  125.6571  104.3826  109.1813 O   0  0  0  0  0  0  0  0  0  0  0  0
  125.5043  106.6273  104.9211 H   0  0  0  0  0  0  0  0  0  0  0  0
  125.0954  107.1170  107.9636 H   0  0  0  0  0  0  0  0  0  0  0  0
  125.0794  104.3338  106.5827 H   0  0  0  0  0  0  0  0  0  0  0  0
  123.8296  103.6740  108.5721 H   0  0  0  0  0  0  0  0  0  0  0  0
  123.8452  105.3472  109.1874 H   0  0  0  0  0  0  0  0  0  0  0  0
  122.4778  104.9918  106.6996 H   0  0  0  0  0  0  0  0  0  0  0  0
  124.2835  108.9550  105.1409 H   0  0  0  0  0  0  0  0  0  0  0  0
  125.7169  108.9564  106.1405 H   0  0  0  0  0  0  0  0  0  0  0  0
  127.1526  105.5411  107.7860 H   0  0  0  0  0  0  0  0  0  0  0  0
  127.3904  106.9362  106.7609 H   0  0  0  0  0  0  0  0  0  0  0  0
  125.5001  104.0528  110.0825 H   0  0  0  0  0  0  0  0  0  0  0  0
  1  2  1  0  0  0  0
  1  6  1  0  0  0  0
  1  9  2  0  0  0  0
  2  3  1  0  0  0  0
  2  7  1  0  0  0  0
  3  4  1  0  0  0  0
  3  8  1  0  0  0  0
  4  5  1  0  0  0  0
  4  6  1  0  0  0  0
  5 10  1  0  0  0  0
  2 11  1  0  0  0  0
  3 12  1  0  0  0  0
  4 13  1  0  0  0  0
  5 14  1  0  0  0  0
  5 15  1  0  0  0  0
  6 16  1  0  0  0  0
  7 17  1  0  0  0  0
  7 18  1  0  0  0  0
  8 19  1  0  0  0  0
  8 20  1  0  0  0  0
 10 21  1  0  0  0  0
M  END
> <FRED Chemgauss4 score>
-6.040027

$$$$
C88023610	P137670459
  -OEChem-05182014473D

 29 29  0     0  0  0  0  0  0999 V2000
  123.2013  107.1923  106.4062 C   0  0  0  0  0  0  0  0  0  0  0  0
  122.4896  108.0030  107.4211 C   0  0  0  0  0  0  0  0  0  0  0  0
  126.3518  105.5713  107.2325 C   0  0  0  0  0  0  0  0  0  0  0  0
  124.6910  105.3566  109.1108 C   0  0  0  0  0  0  0  0  0  0  0  0
  125.1935  105.6430  106.2398 C   0  0  0  0  0  0  0  0  0  0  0  0
  123.5582  105.4298  108.0908 C   0  0  0  0  0  0  0  0  0  0  0  0
  125.9918  104.7966  108.5120 C   0  0  0  0  0  0  0  0  0  0  0  0
  125.8974  103.2882  108.2615 C   0  0  0  0  0  0  0  0  0  0  0  0
  123.9786  106.1487  106.8889 N   0  0  0  0  0  0  0  0  0  0  0  0
  122.8323  109.3895  109.3124 N   0  0  0  0  0  0  0  0  0  0  0  0
  123.3553  108.6004  108.3074 N   0  0  0  0  0  0  0  0  0  0  0  0
  123.0282  107.5330  105.2433 O   0  0  0  0  0  0  0  0  0  0  0  0
  121.2689  108.0811  107.4042 O   0  0  0  0  0  0  0  0  0  0  0  0
  127.0307  105.0049  109.4739 O   0  0  0  0  0  0  0  0  0  0  0  0
  127.2127  105.0901  106.7416 H   0  0  0  0  0  0  0  0  0  0  0  0
  126.6571  106.5985  107.4847 H   0  0  0  0  0  0  0  0  0  0  0  0
  124.8609  106.3658  109.5157 H   0  0  0  0  0  0  0  0  0  0  0  0
  124.3721  104.7217  109.9526 H   0  0  0  0  0  0  0  0  0  0  0  0
  125.4287  106.3271  105.4151 H   0  0  0  0  0  0  0  0  0  0  0  0
  125.0306  104.6549  105.8002 H   0  0  0  0  0  0  0  0  0  0  0  0
  123.2232  104.4182  107.8348 H   0  0  0  0  0  0  0  0  0  0  0  0
  122.6927  105.9617  108.5053 H   0  0  0  0  0  0  0  0  0  0  0  0
  125.6417  102.7773  109.1876 H   0  0  0  0  0  0  0  0  0  0  0  0
  126.8534  102.9155  107.8993 H   0  0  0  0  0  0  0  0  0  0  0  0
  125.1292  103.0867  107.5175 H   0  0  0  0  0  0  0  0  0  0  0  0
  123.4395  109.2766  110.1232 H   0  0  0  0  0  0  0  0  0  0  0  0
  121.9358  108.9806  109.5730 H   0  0  0  0  0  0  0  0  0  0  0  0
  124.3639  108.4914  108.2639 H   0  0  0  0  0  0  0  0  0  0  0  0
  127.8444  104.6678  109.0715 H   0  0  0  0  0  0  0  0  0  0  0  0
  1  2  1  0  0  0  0
  1  9  1  0  0  0  0
  1 12  2  0  0  0  0
  2 11  1  0  0  0  0
  2 13  2  0  0  0  0
  3  5  1  0  0  0  0
  3  7  1  0  0  0  0
  4  6  1  0  0  0  0
  4  7  1  0  0  0  0
  5  9  1  0  0  0  0
  6  9  1  0  0  0  0
  7  8  1  0  0  0  0
  7 14  1  0  0  0  0
 10 11  1  0  0  0  0
  3 15  1  0  0  0  0
  3 16  1  0  0  0  0
  4 17  1  0  0  0  0
  4 18  1  0  0  0  0
  5 19  1  0  0  0  0
  5 20  1  0  0  0  0
  6 21  1  0  0  0  0
  6 22  1  0  0  0  0
  8 23  1  0  0  0  0
  8 24  1  0  0  0  0
  8 25  1  0  0  0  0
 10 26  1  0  0  0  0
 10 27  1  0  0  0  0
 11 28  1  0  0  0  0
 14 29  1  0  0  0  0
M  END
> <FRED Chemgauss4 score>
-6.039911

$$$$
C83812008	P131108696
  -OEChem-05182014473D

 18 18  0     1  0  0  0  0  0999 V2000
  123.3994  106.8029  106.0209 C   0  0  0  0  0  0  0  0  0  0  0  0
  121.6389  106.5139  104.9738 C   0  0  0  0  0  0  0  0  0  0  0  0
  125.4633  106.0392  107.2710 C   0  0  0  0  0  0  0  0  0  0  0  0
  124.7370  107.2088  106.6015 C   0  0  1  0  0  0  0  0  0  0  0  0
  122.7649  107.2845  104.9821 N   0  0  0  0  0  0  0  0  0  0  0  0
  121.5546  105.5979  105.9431 N   0  0  0  0  0  0  0  0  0  0  0  0
  120.7117  106.7314  104.0059 N   0  0  0  0  0  0  0  0  0  0  0  0
  125.5729  107.8169  105.5884 N   0  0  0  0  0  0  0  0  0  0  0  0
  122.7463  105.7926  106.6527 O   0  0  0  0  0  0  0  0  0  0  0  0
  126.6912  106.5035  107.8227 O   0  0  0  0  0  0  0  0  0  0  0  0
  124.8665  105.6263  108.0917 H   0  0  0  0  0  0  0  0  0  0  0  0
  125.6874  105.2356  106.5611 H   0  0  0  0  0  0  0  0  0  0  0  0
  124.5858  107.9964  107.3505 H   0  0  0  0  0  0  0  0  0  0  0  0
  120.8160  107.4856  103.3173 H   0  0  0  0  0  0  0  0  0  0  0  0
  119.8257  106.2134  103.9805 H   0  0  0  0  0  0  0  0  0  0  0  0
  126.5655  107.8381  105.7314 H   0  0  0  0  0  0  0  0  0  0  0  0
  125.1390  108.3763  104.8776 H   0  0  0  0  0  0  0  0  0  0  0  0
  127.1178  105.7360  108.2351 H   0  0  0  0  0  0  0  0  0  0  0  0
  1  4  1  0  0  0  0
  1  5  2  0  0  0  0
  1  9  1  0  0  0  0
  2  5  1  0  0  0  0
  2  6  2  0  0  0  0
  2  7  1  0  0  0  0
  3  4  1  0  0  0  0
  3 10  1  0  0  0  0
  4  8  1  0  0  0  0
  6  9  1  0  0  0  0
  3 11  1  0  0  0  0
  3 12  1  0  0  0  0
  4 13  1  0  0  0  0
  7 14  1  0  0  0  0
  7 15  1  0  0  0  0
  8 16  1  0  0  0  0
  8 17  1  0  0  0  0
 10 18  1  0  0  0  0
M  END
> <FRED Chemgauss4 score>
-6.038435

$$$$
C00895050	P05571510
  -OEChem-05182014473D

 20 20  0     1  0  0  0  0  0999 V2000
  125.4541  106.4937  106.6728 C   0  0  2  0  0  0  0  0  0  0  0  0
  124.6957  106.8248  105.4066 C   0  0  1  0  0  0  0  0  0  0  0  0
  124.3485  105.9472  107.5657 C   0  0  2  0  0  0  0  0  0  0  0  0
  123.3808  107.3544  105.9517 C   0  0  2  0  0  0  0  0  0  0  0  0
  124.1125  104.4537  107.3852 C   0  0  0  0  0  0  0  0  0  0  0  0
  123.1432  106.6423  107.1773 O   0  0  0  0  0  0  0  0  0  0  0  0
  125.9595  107.6849  107.2743 O   0  0  0  0  0  0  0  0  0  0  0  0
  125.3505  107.7830  104.6000 O   0  0  0  0  0  0  0  0  0  0  0  0
  122.3503  107.1280  105.0015 O   0  0  0  0  0  0  0  0  0  0  0  0
  123.0775  104.0444  108.2641 O   0  0  0  0  0  0  0  0  0  0  0  0
  126.2368  105.8038  106.5088 H   0  0  0  0  0  0  0  0  0  0  0  0
  124.5563  105.8966  104.7732 H   0  0  0  0  0  0  0  0  0  0  0  0
  124.5367  106.1533  108.6166 H   0  0  0  0  0  0  0  0  0  0  0  0
  123.4306  108.4346  106.1775 H   0  0  0  0  0  0  0  0  0  0  0  0
  125.0211  103.8951  107.6213 H   0  0  0  0  0  0  0  0  0  0  0  0
  123.8119  104.2387  106.3572 H   0  0  0  0  0  0  0  0  0  0  0  0
  126.4371  107.4218  108.0810 H   0  0  0  0  0  0  0  0  0  0  0  0
  126.2122  107.4047  104.3650 H   0  0  0  0  0  0  0  0  0  0  0  0
  121.5324  107.4796  105.3881 H   0  0  0  0  0  0  0  0  0  0  0  0
  122.9499  103.0909  108.1268 H   0  0  0  0  0  0  0  0  0  0  0  0
  1  2  1  0  0  0  0
  1  3  1  0  0  0  0
  1  7  1  0  0  0  0
  2  4  1  0  0  0  0
  2  8  1  0  0  0  0
  3  5  1  0  0  0  0
  3  6  1  0  0  0  0
  4  6  1  0  0  0  0
  4  9  1  0  0  0  0
  5 10  1  0  0  0  0
  1 11  1  0  0  0  0
  2 12  1  0  0  0  0
  3 13  1  0  0  0  0
  4 14  1  0  0  0  0
  5 15  1  0  0  0  0
  5 16  1  0  0  0  0
  7 17  1  0  0  0  0
  8 18  1  0  0  0  0
  9 19  1  0  0  0  0
 10 20  1  0  0  0  0
M  END
> <FRED Chemgauss4 score>
-6.038416

$$$$
C05783668	P151021902
  -OEChem-05182014473D

 15 15  0     1  0  0  0  0  0999 V2000
  122.5614  106.3665  105.3459 C   0  0  0  0  0  0  0  0  0  0  0  0
  123.9064  106.9512  105.7587 C   0  0  0  0  0  0  0  0  0  0  0  0
  124.3970  104.9897  106.9301 C   0  0  0  0  0  0  0  0  0  0  0  0
  122.0201  105.3514  106.3075 C   0  0  2  0  0  0  0  0  0  0  0  0
  124.7043  106.2692  106.5179 N   0  0  0  0  0  0  0  0  0  0  0  0
  123.1202  104.5075  106.6912 N   0  0  0  0  0  0  0  0  0  0  0  0
  120.9436  104.5384  105.6990 N   0  3  0  0  0  0  0  0  0  0  0  0
  123.9930  108.0926  105.2793 O   0  5  0  0  0  0  0  0  0  0  0  0
  121.9344  106.8010  104.3900 O   0  0  0  0  0  0  0  0  0  0  0  0
  125.2347  104.2683  107.4741 O   0  0  0  0  0  0  0  0  0  0  0  0
  121.6088  105.8459  107.1926 H   0  0  0  0  0  0  0  0  0  0  0  0
  122.9530  103.5105  106.7917 H   0  0  0  0  0  0  0  0  0  0  0  0
  120.0196  104.8380  106.0321 H   0  0  0  0  0  0  0  0  0  0  0  0
  121.0535  103.5444  105.9330 H   0  0  0  0  0  0  0  0  0  0  0  0
  120.9498  104.6218  104.6755 H   0  0  0  0  0  0  0  0  0  0  0  0
  1  2  1  0  0  0  0
  1  4  1  0  0  0  0
  1  9  2  0  0  0  0
  2  5  2  0  0  0  0
  2  8  1  0  0  0  0
  3  5  1  0  0  0  0
  3  6  1  0  0  0  0
  3 10  2  0  0  0  0
  4  6  1  0  0  0  0
  4  7  1  0  0  0  0
  4 11  1  0  0  0  0
  6 12  1  0  0  0  0
  7 13  1  0  0  0  0
  7 14  1  0  0  0  0
  7 15  1  0  0  0  0
M  CHG  2   7   1   8  -1
M  END
> <FRED Chemgauss4 score>
-6.035740

$$$$
C97344605	P154171042
  -OEChem-05182014473D

 40 42  0     1  0  0  0  0  0999 V2000
  120.0146  106.0299  104.3606 C   0  0  0  0  0  0  0  0  0  0  0  0
  120.2709  108.3423  108.6101 C   0  0  0  0  0  0  0  0  0  0  0  0
  119.3745  106.5955  105.4596 C   0  0  0  0  0  0  0  0  0  0  0  0
  119.5041  107.7648  107.6085 C   0  0  0  0  0  0  0  0  0  0  0  0
  121.4018  106.0539  104.2877 C   0  0  0  0  0  0  0  0  0  0  0  0
  124.1498  104.5940  106.5741 C   0  0  0  0  0  0  0  0  0  0  0  0
  125.2390  106.6746  107.1413 C   0  0  0  0  0  0  0  0  0  0  0  0
  124.8147  103.9598  107.6234 C   0  0  0  0  0  0  0  0  0  0  0  0
  125.9039  106.0404  108.1908 C   0  0  0  0  0  0  0  0  0  0  0  0
  121.6423  108.3218  108.4559 C   0  0  0  0  0  0  0  0  0  0  0  0
  120.1227  107.1882  106.4909 C   0  0  0  0  0  0  0  0  0  0  0  0
  124.3619  105.9514  106.3330 C   0  0  0  0  0  0  0  0  0  0  0  0
  122.1454  106.6432  105.3132 C   0  0  0  0  0  0  0  0  0  0  0  0
  121.5314  107.2163  106.4235 C   0  0  0  0  0  0  0  0  0  0  0  0
  125.6918  104.6830  108.4318 C   0  0  0  0  0  0  0  0  0  0  0  0
  126.1482  102.6329  109.7543 C   0  0  0  0  0  0  0  0  0  0  0  0
  127.2868  104.7822  110.3308 C   0  0  0  0  0  0  0  0  0  0  0  0
  123.6378  106.6437  105.1889 C   0  0  1  0  0  0  0  0  0  0  0  0
  122.2782  107.7760  107.3940 N   0  0  0  0  0  0  0  0  0  0  0  0
  124.1490  108.0161  105.0337 N   0  0  0  0  0  0  0  0  0  0  0  0
  126.3629  104.0425  109.4940 N   0  0  0  0  0  0  0  0  0  0  0  0
  119.4330  105.5727  103.5659 H   0  0  0  0  0  0  0  0  0  0  0  0
  119.8092  108.7912  109.4815 H   0  0  0  0  0  0  0  0  0  0  0  0
  118.2880  106.5714  105.5066 H   0  0  0  0  0  0  0  0  0  0  0  0
  118.4207  107.7652  107.7049 H   0  0  0  0  0  0  0  0  0  0  0  0
  121.9002  105.6112  103.4292 H   0  0  0  0  0  0  0  0  0  0  0  0
  123.4691  104.0227  105.9487 H   0  0  0  0  0  0  0  0  0  0  0  0
  125.4118  107.7320  106.9600 H   0  0  0  0  0  0  0  0  0  0  0  0
  124.6433  102.9013  107.8017 H   0  0  0  0  0  0  0  0  0  0  0  0
  126.5856  106.6135  108.8139 H   0  0  0  0  0  0  0  0  0  0  0  0
  122.2928  108.7578  109.2069 H   0  0  0  0  0  0  0  0  0  0  0  0
  126.7483  102.3132  110.6102 H   0  0  0  0  0  0  0  0  0  0  0  0
  126.4352  102.0395  108.8820 H   0  0  0  0  0  0  0  0  0  0  0  0
  125.0937  102.4454  109.9742 H   0  0  0  0  0  0  0  0  0  0  0  0
  127.7085  104.1257  111.0964 H   0  0  0  0  0  0  0  0  0  0  0  0
  126.7704  105.6107  110.8233 H   0  0  0  0  0  0  0  0  0  0  0  0
  128.1027  105.1875  109.7264 H   0  0  0  0  0  0  0  0  0  0  0  0
  123.9200  106.1457  104.2459 H   0  0  0  0  0  0  0  0  0  0  0  0
  123.5834  108.6606  104.5366 H   0  0  0  0  0  0  0  0  0  0  0  0
  125.1037  108.1747  105.2482 H   0  0  0  0  0  0  0  0  0  0  0  0
  1  3  1  0  0  0  0
  1  5  2  0  0  0  0
  2  4  2  0  0  0  0
  2 10  1  0  0  0  0
  3 11  2  0  0  0  0
  4 11  1  0  0  0  0
  5 13  1  0  0  0  0
  6  8  2  0  0  0  0
  6 12  1  0  0  0  0
  7  9  1  0  0  0  0
  7 12  2  0  0  0  0
  8 15  1  0  0  0  0
  9 15  2  0  0  0  0
 10 19  2  0  0  0  0
 11 14  1  0  0  0  0
 12 18  1  0  0  0  0
 13 14  2  0  0  0  0
 13 18  1  0  0  0  0
 14 19  1  0  0  0  0
 15 21  1  0  0  0  0
 16 21  1  0  0  0  0
 17 21  1  0  0  0  0
 18 20  1  0  0  0  0
  1 22  1  0  0  0  0
  2 23  1  0  0  0  0
  3 24  1  0  0  0  0
  4 25  1  0  0  0  0
  5 26  1  0  0  0  0
  6 27  1  0  0  0  0
  7 28  1  0  0  0  0
  8 29  1  0  0  0  0
  9 30  1  0  0  0  0
 10 31  1  0  0  0  0
 16 32  1  0  0  0  0
 16 33  1  0  0  0  0
 16 34  1  0  0  0  0
 17 35  1  0  0  0  0
 17 36  1  0  0  0  0
 17 37  1  0  0  0  0
 18 38  1  0  0  0  0
 20 39  1  0  0  0  0
 20 40  1  0  0  0  0
M  END
> <FRED Chemgauss4 score>
-6.035000

$$$$
C39094979	P59234636
  -OEChem-05182014473D

 19 19  0     1  0  0  0  0  0999 V2000
  124.4078  107.2315  106.1978 C   0  0  0  0  0  0  0  0  0  0  0  0
  124.4537  105.0023  107.0955 C   0  0  0  0  0  0  0  0  0  0  0  0
  125.3604  106.1790  106.7226 C   0  0  2  0  0  0  0  0  0  0  0  0
  123.2891  105.1280  106.1077 C   0  0  1  0  0  0  0  0  0  0  0  0
  122.0212  104.4675  106.6322 C   0  0  0  0  0  0  0  0  0  0  0  0
  123.2152  106.5571  105.9542 N   0  0  0  0  0  0  0  0  0  0  0  0
  126.1112  106.6514  107.9034 N   0  3  0  0  0  0  0  0  0  0  0  0
  122.3068  107.0973  105.0790 O   0  5  0  0  0  0  0  0  0  0  0  0
  124.6877  108.4057  106.0100 O   0  0  0  0  0  0  0  0  0  0  0  0
  124.9662  104.0387  107.0087 H   0  0  0  0  0  0  0  0  0  0  0  0
  124.0958  105.0991  108.1293 H   0  0  0  0  0  0  0  0  0  0  0  0
  126.0822  105.9130  105.9436 H   0  0  0  0  0  0  0  0  0  0  0  0
  123.5811  104.6866  105.1450 H   0  0  0  0  0  0  0  0  0  0  0  0
  121.7370  104.9100  107.5873 H   0  0  0  0  0  0  0  0  0  0  0  0
  122.1875  103.3993  106.7736 H   0  0  0  0  0  0  0  0  0  0  0  0
  121.2059  104.6071  105.9218 H   0  0  0  0  0  0  0  0  0  0  0  0
  125.7641  106.2139  108.7664 H   0  0  0  0  0  0  0  0  0  0  0  0
  126.0270  107.6699  108.0161 H   0  0  0  0  0  0  0  0  0  0  0  0
  127.1118  106.4293  107.8232 H   0  0  0  0  0  0  0  0  0  0  0  0
  1  3  1  0  0  0  0
  1  6  1  0  0  0  0
  1  9  2  0  0  0  0
  2  3  1  0  0  0  0
  2  4  1  0  0  0  0
  3  7  1  0  0  0  0
  4  5  1  0  0  0  0
  4  6  1  0  0  0  0
  6  8  1  0  0  0  0
  2 10  1  0  0  0  0
  2 11  1  0  0  0  0
  3 12  1  0  0  0  0
  4 13  1  0  0  0  0
  5 14  1  0  0  0  0
  5 15  1  0  0  0  0
  5 16  1  0  0  0  0
  7 17  1  0  0  0  0
  7 18  1  0  0  0  0
  7 19  1  0  0  0  0
M  CHG  2   7   1   8  -1
M  END
> <FRED Chemgauss4 score>
-6.034520

$$$$
C04786584	P06903634
  -OEChem-05182014473D

 16 16  0     1  0  0  0  0  0999 V2000
  124.2555  104.8759  107.4505 C   0  0  0  0  0  0  0  0  0  0  0  0
  123.2367  105.1579  106.3854 C   0  0  0  0  0  0  0  0  0  0  0  0
  125.3417  105.8767  107.7361 C   0  0  0  0  0  0  0  0  0  0  0  0
  123.3696  106.3834  105.5231 C   0  0  0  0  0  0  0  0  0  0  0  0
  125.1654  107.2329  107.0826 C   0  0  2  0  0  0  0  0  0  0  0  0
  124.6909  107.1177  105.6348 C   0  0  2  0  0  0  0  0  0  0  0  0
  124.2083  103.8322  108.0751 O   0  0  0  0  0  0  0  0  0  0  0  0
  122.2973  104.4000  106.2273 O   0  0  0  0  0  0  0  0  0  0  0  0
  126.2543  105.5550  108.4804 O   0  0  0  0  0  0  0  0  0  0  0  0
  122.4452  106.6835  104.7845 O   0  0  0  0  0  0  0  0  0  0  0  0
  126.4251  107.8889  107.1026 O   0  0  0  0  0  0  0  0  0  0  0  0
  124.5053  108.4231  105.1067 O   0  0  0  0  0  0  0  0  0  0  0  0
  124.4629  107.8258  107.6797 H   0  0  0  0  0  0  0  0  0  0  0  0
  125.4362  106.6028  105.0177 H   0  0  0  0  0  0  0  0  0  0  0  0
  126.6836  107.9723  108.0350 H   0  0  0  0  0  0  0  0  0  0  0  0
  124.2334  108.3156  104.1806 H   0  0  0  0  0  0  0  0  0  0  0  0
  1  2  1  0  0  0  0
  1  3  1  0  0  0  0
  1  7  2  0  0  0  0
  2  4  1  0  0  0  0
  2  8  2  0  0  0  0
  3  5  1  0  0  0  0
  3  9  2  0  0  0  0
  4  6  1  0  0  0  0
  4 10  2  0  0  0  0
  5  6  1  0  0  0  0
  5 11  1  0  0  0  0
  6 12  1  0  0  0  0
  5 13  1  0  0  0  0
  6 14  1  0  0  0  0
 11 15  1  0  0  0  0
 12 16  1  0  0  0  0
M  END
> <FRED Chemgauss4 score>
-6.034252

$$$$
C36131303	P53675666
  -OEChem-05182014473D

 33 34  0     1  0  0  0  0  0999 V2000
  119.4964  104.3601  105.8715 C   0  0  0  0  0  0  0  0  0  0  0  0
  119.9387  105.8672  104.0357 C   0  0  0  0  0  0  0  0  0  0  0  0
  120.5351  104.9411  106.5988 C   0  0  0  0  0  0  0  0  0  0  0  0
  120.9774  106.4483  104.7631 C   0  0  0  0  0  0  0  0  0  0  0  0
  119.1982  104.8231  104.5899 C   0  0  0  0  0  0  0  0  0  0  0  0
  121.2756  105.9853  106.0446 C   0  0  0  0  0  0  0  0  0  0  0  0
  125.6440  103.9761  107.3743 C   0  0  0  0  0  0  0  0  0  0  0  0
  125.0689  104.6483  108.5877 C   0  0  0  0  0  0  0  0  0  0  0  0
  124.2624  104.5636  107.3230 C   0  0  0  0  0  0  0  0  0  0  0  0
  124.1785  105.5297  105.0602 C   0  0  0  0  0  0  0  0  0  0  0  0
  124.4092  106.8548  104.3568 C   0  0  0  0  0  0  0  0  0  0  0  0
  118.1479  104.2358  103.8540 N   0  0  0  0  0  0  0  0  0  0  0  0
  123.9552  105.7671  106.5091 N   0  0  1  0  0  0  0  0  0  0  0  0
  122.7654  108.0755  106.4686 O   0  0  0  0  0  0  0  0  0  0  0  0
  122.3073  106.5121  108.3739 O   0  0  0  0  0  0  0  0  0  0  0  0
  125.5304  107.5087  104.9375 O   0  0  0  0  0  0  0  0  0  0  0  0
  122.5950  106.7232  106.9671 S   0  0  0  0  0  0  0  0  0  0  0  0
  118.9260  103.5468  106.3129 H   0  0  0  0  0  0  0  0  0  0  0  0
  119.7140  106.2364  103.0382 H   0  0  0  0  0  0  0  0  0  0  0  0
  120.7586  104.5723  107.5962 H   0  0  0  0  0  0  0  0  0  0  0  0
  121.5478  107.2611  104.3213 H   0  0  0  0  0  0  0  0  0  0  0  0
  126.4412  104.4859  106.8475 H   0  0  0  0  0  0  0  0  0  0  0  0
  125.7332  102.8969  107.3898 H   0  0  0  0  0  0  0  0  0  0  0  0
  124.7711  104.0212  109.4189 H   0  0  0  0  0  0  0  0  0  0  0  0
  125.4801  105.6087  108.8729 H   0  0  0  0  0  0  0  0  0  0  0  0
  123.4316  103.8671  107.3139 H   0  0  0  0  0  0  0  0  0  0  0  0
  123.3006  105.0144  104.6578 H   0  0  0  0  0  0  0  0  0  0  0  0
  125.0546  104.8832  104.9514 H   0  0  0  0  0  0  0  0  0  0  0  0
  123.5368  107.5033  104.4837 H   0  0  0  0  0  0  0  0  0  0  0  0
  124.5978  106.7153  103.2874 H   0  0  0  0  0  0  0  0  0  0  0  0
  117.6554  103.4574  104.2431 H   0  0  0  0  0  0  0  0  0  0  0  0
  117.9753  104.5452  102.9189 H   0  0  0  0  0  0  0  0  0  0  0  0
  125.6424  108.3471  104.4613 H   0  0  0  0  0  0  0  0  0  0  0  0
  1  3  1  0  0  0  0
  1  5  2  0  0  0  0
  2  4  2  0  0  0  0
  2  5  1  0  0  0  0
  3  6  2  0  0  0  0
  4  6  1  0  0  0  0
  5 12  1  0  0  0  0
  6 17  1  0  0  0  0
  7  8  1  0  0  0  0
  7  9  1  0  0  0  0
  8  9  1  0  0  0  0
  9 13  1  0  0  0  0
 10 11  1  0  0  0  0
 10 13  1  0  0  0  0
 11 16  1  0  0  0  0
 13 17  1  0  0  0  0
 14 17  2  0  0  0  0
 15 17  2  0  0  0  0
  1 18  1  0  0  0  0
  2 19  1  0  0  0  0
  3 20  1  0  0  0  0
  4 21  1  0  0  0  0
  7 22  1  0  0  0  0
  7 23  1  0  0  0  0
  8 24  1  0  0  0  0
  8 25  1  0  0  0  0
  9 26  1  0  0  0  0
 10 27  1  0  0  0  0
 10 28  1  0  0  0  0
 11 29  1  0  0  0  0
 11 30  1  0  0  0  0
 12 31  1  0  0  0  0
 12 32  1  0  0  0  0
 16 33  1  0  0  0  0
M  END
> <FRED Chemgauss4 score>
-6.025936

$$$$
C36872229	P120860510
  -OEChem-05182014473D

 24 25  0     1  0  0  0  0  0999 V2000
  125.7860  104.5471  109.1593 C   0  0  0  0  0  0  0  0  0  0  0  0
  124.5017  104.7660  108.6062 C   0  0  0  0  0  0  0  0  0  0  0  0
  123.7049  106.9062  105.6146 C   0  0  0  0  0  0  0  0  0  0  0  0
  126.6835  105.0806  108.2639 C   0  0  0  0  0  0  0  0  0  0  0  0
  123.7238  105.8498  106.4944 C   0  0  0  0  0  0  0  0  0  0  0  0
  124.7060  105.4179  107.4124 C   0  0  0  0  0  0  0  0  0  0  0  0
  121.8371  105.9184  105.3577 C   0  0  0  0  0  0  0  0  0  0  0  0
  119.4454  105.4890  106.0608 C   0  0  0  0  0  0  0  0  0  0  0  0
  120.4543  105.4920  104.9141 C   0  0  1  0  0  0  0  0  0  0  0  0
  122.5276  106.9435  104.9102 N   0  0  0  0  0  0  0  0  0  0  0  0
  122.5205  105.2266  106.3187 N   0  0  0  0  0  0  0  0  0  0  0  0
  119.9704  106.3145  103.8291 N   0  0  0  0  0  0  0  0  0  0  0  0
  126.0333  105.6135  107.1963 O   0  0  0  0  0  0  0  0  0  0  0  0
  126.0269  104.0612  110.0937 H   0  0  0  0  0  0  0  0  0  0  0  0
  123.5499  104.4801  109.0324 H   0  0  0  0  0  0  0  0  0  0  0  0
  124.4770  107.6441  105.4476 H   0  0  0  0  0  0  0  0  0  0  0  0
  127.7607  105.1579  108.2404 H   0  0  0  0  0  0  0  0  0  0  0  0
  119.3519  106.4853  106.5067 H   0  0  0  0  0  0  0  0  0  0  0  0
  118.4562  105.1841  105.7010 H   0  0  0  0  0  0  0  0  0  0  0  0
  119.7289  104.7888  106.8546 H   0  0  0  0  0  0  0  0  0  0  0  0
  120.5045  104.4735  104.5098 H   0  0  0  0  0  0  0  0  0  0  0  0
  122.1946  104.4020  106.8063 H   0  0  0  0  0  0  0  0  0  0  0  0
  118.9812  106.3643  103.6629 H   0  0  0  0  0  0  0  0  0  0  0  0
  120.6259  106.6505  103.1465 H   0  0  0  0  0  0  0  0  0  0  0  0
  1  2  1  0  0  0  0
  1  4  2  0  0  0  0
  2  6  2  0  0  0  0
  3  5  2  0  0  0  0
  3 10  1  0  0  0  0
  4 13  1  0  0  0  0
  5  6  1  0  0  0  0
  5 11  1  0  0  0  0
  6 13  1  0  0  0  0
  7  9  1  0  0  0  0
  7 10  2  0  0  0  0
  7 11  1  0  0  0  0
  8  9  1  0  0  0  0
  9 12  1  0  0  0  0
  1 14  1  0  0  0  0
  2 15  1  0  0  0  0
  3 16  1  0  0  0  0
  4 17  1  0  0  0  0
  8 18  1  0  0  0  0
  8 19  1  0  0  0  0
  8 20  1  0  0  0  0
  9 21  1  0  0  0  0
 11 22  1  0  0  0  0
 12 23  1  0  0  0  0
 12 24  1  0  0  0  0
M  END
> <FRED Chemgauss4 score>
-6.025313

$$$$
C92292923	P144481736
  -OEChem-05182014473D

 43 45  0     0  0  0  0  0  0999 V2000
  119.1647  104.1960  100.2545 C   0  0  0  0  0  0  0  0  0  0  0  0
  118.1479  104.4543  101.1625 C   0  0  0  0  0  0  0  0  0  0  0  0
  117.4369  105.2949  103.3509 C   0  0  0  0  0  0  0  0  0  0  0  0
  119.0844  106.1507  104.8775 C   0  0  0  0  0  0  0  0  0  0  0  0
  120.4530  104.5176  100.6307 C   0  0  0  0  0  0  0  0  0  0  0  0
  118.4436  105.0213  102.4095 C   0  0  0  0  0  0  0  0  0  0  0  0
  117.7585  105.8586  104.5823 C   0  0  0  0  0  0  0  0  0  0  0  0
  119.7919  105.3151  102.7025 C   0  0  0  0  0  0  0  0  0  0  0  0
  120.0851  105.8786  103.9413 C   0  0  0  0  0  0  0  0  0  0  0  0
  126.5093  105.5933  108.9325 C   0  0  0  0  0  0  0  0  0  0  0  0
  125.8296  105.3112  107.7661 C   0  0  0  0  0  0  0  0  0  0  0  0
  126.2367  103.4367  109.2231 C   0  0  0  0  0  0  0  0  0  0  0  0
  121.8652  106.7502  105.4632 C   0  0  0  0  0  0  0  0  0  0  0  0
  123.3524  106.9389  105.4664 C   0  0  0  0  0  0  0  0  0  0  0  0
  116.6867  106.1472  105.5773 C   0  0  0  0  0  0  0  0  0  0  0  0
  126.9953  106.9228  109.3553 C   0  0  0  0  0  0  0  0  0  0  0  0
  126.2913  102.0889  109.8302 C   0  0  0  0  0  0  0  0  0  0  0  0
  125.4093  106.2202  106.6475 C   0  0  0  0  0  0  0  0  0  0  0  0
  120.7807  105.0657  101.8233 N   0  0  0  0  0  0  0  0  0  0  0  0
  126.7433  104.5197  109.7694 N   0  0  0  0  0  0  0  0  0  0  0  0
  121.4074  106.1892  104.2799 N   0  0  0  0  0  0  0  0  0  0  0  0
  123.9777  106.2166  106.4572 N   0  0  0  0  0  0  0  0  0  0  0  0
  121.2672  107.0867  106.4715 O   0  0  0  0  0  0  0  0  0  0  0  0
  123.8385  107.6687  104.6173 O   0  0  0  0  0  0  0  0  0  0  0  0
  125.4653  103.6365  107.7032 S   0  0  0  0  0  0  0  0  0  0  0  0
  118.9544  103.7583   99.2858 H   0  0  0  0  0  0  0  0  0  0  0  0
  117.1230  104.2106  100.8919 H   0  0  0  0  0  0  0  0  0  0  0  0
  116.3977  105.0668  103.1209 H   0  0  0  0  0  0  0  0  0  0  0  0
  119.3409  106.5902  105.8390 H   0  0  0  0  0  0  0  0  0  0  0  0
  121.2886  104.3393   99.9619 H   0  0  0  0  0  0  0  0  0  0  0  0
  116.5294  105.2812  106.2323 H   0  0  0  0  0  0  0  0  0  0  0  0
  116.9442  107.0127  106.2018 H   0  0  0  0  0  0  0  0  0  0  0  0
  115.7360  106.3854  105.0820 H   0  0  0  0  0  0  0  0  0  0  0  0
  126.2323  107.4536  109.9470 H   0  0  0  0  0  0  0  0  0  0  0  0
  127.9083  106.8520  109.9701 H   0  0  0  0  0  0  0  0  0  0  0  0
  127.2559  107.5600  108.4935 H   0  0  0  0  0  0  0  0  0  0  0  0
  125.4119  101.9079  110.4678 H   0  0  0  0  0  0  0  0  0  0  0  0
  126.3235  101.2953  109.0660 H   0  0  0  0  0  0  0  0  0  0  0  0
  127.1922  101.9544  110.4510 H   0  0  0  0  0  0  0  0  0  0  0  0
  125.7200  107.2510  106.8502 H   0  0  0  0  0  0  0  0  0  0  0  0
  125.8735  105.9205  105.7020 H   0  0  0  0  0  0  0  0  0  0  0  0
  122.1180  105.9782  103.5733 H   0  0  0  0  0  0  0  0  0  0  0  0
  123.4180  105.6518  107.0895 H   0  0  0  0  0  0  0  0  0  0  0  0
  1  2  2  0  0  0  0
  1  5  1  0  0  0  0
  2  6  1  0  0  0  0
  3  6  2  0  0  0  0
  3  7  1  0  0  0  0
  4  7  2  0  0  0  0
  4  9  1  0  0  0  0
  5 19  2  0  0  0  0
  6  8  1  0  0  0  0
  7 15  1  0  0  0  0
  8  9  2  0  0  0  0
  8 19  1  0  0  0  0
  9 21  1  0  0  0  0
 10 11  2  0  0  0  0
 10 16  1  0  0  0  0
 10 20  1  0  0  0  0
 11 18  1  0  0  0  0
 11 25  1  0  0  0  0
 12 17  1  0  0  0  0
 12 20  2  0  0  0  0
 12 25  1  0  0  0  0
 13 14  1  0  0  0  0
 13 21  1  0  0  0  0
 13 23  2  0  0  0  0
 14 22  1  0  0  0  0
 14 24  2  0  0  0  0
 18 22  1  0  0  0  0
  1 26  1  0  0  0  0
  2 27  1  0  0  0  0
  3 28  1  0  0  0  0
  4 29  1  0  0  0  0
  5 30  1  0  0  0  0
 15 31  1  0  0  0  0
 15 32  1  0  0  0  0
 15 33  1  0  0  0  0
 16 34  1  0  0  0  0
 16 35  1  0  0  0  0
 16 36  1  0  0  0  0
 17 37  1  0  0  0  0
 17 38  1  0  0  0  0
 17 39  1  0  0  0  0
 18 40  1  0  0  0  0
 18 41  1  0  0  0  0
 21 42  1  0  0  0  0
 22 43  1  0  0  0  0
M  END
> <FRED Chemgauss4 score>
-6.020075

$$$$
C06317442	P09891162
  -OEChem-05182014473D

 17 16  0     0  0  0  0  0  0999 V2000
  119.6512  104.2792  104.3214 C   0  0  0  0  0  0  0  0  0  0  0  0
  120.4174  105.3703  104.2537 C   0  0  0  0  0  0  0  0  0  0  0  0
  121.6740  105.4152  105.0263 C   0  0  0  0  0  0  0  0  0  0  0  0
  125.6178  107.0843  106.7078 C   0  0  0  0  0  0  0  0  0  0  0  0
  124.4573  107.3558  105.8020 C   0  0  0  0  0  0  0  0  0  0  0  0
  122.4527  106.4467  104.9962 N   0  0  0  0  0  0  0  0  0  0  0  0
  125.3911  107.4563  108.0068 N   0  0  0  0  0  0  0  0  0  0  0  0
  123.5596  106.3177  105.7619 N   0  0  0  0  0  0  0  0  0  0  0  0
  126.6157  106.5612  106.2399 O   0  0  0  0  0  0  0  0  0  0  0  0
  124.4162  108.4328  105.2286 O   0  0  0  0  0  0  0  0  0  0  0  0
  118.7246  104.2296  103.7594 H   0  0  0  0  0  0  0  0  0  0  0  0
  119.9185  103.4194  104.9262 H   0  0  0  0  0  0  0  0  0  0  0  0
  120.1431  106.2246  103.6470 H   0  0  0  0  0  0  0  0  0  0  0  0
  121.9071  104.5173  105.6285 H   0  0  0  0  0  0  0  0  0  0  0  0
  124.4992  107.8701  108.2596 H   0  0  0  0  0  0  0  0  0  0  0  0
  126.1005  107.3248  108.7202 H   0  0  0  0  0  0  0  0  0  0  0  0
  123.6920  105.4558  106.2824 H   0  0  0  0  0  0  0  0  0  0  0  0
  1  2  2  0  0  0  0
  2  3  1  0  0  0  0
  3  6  2  0  0  0  0
  4  5  1  0  0  0  0
  4  7  1  0  0  0  0
  4  9  2  0  0  0  0
  5  8  1  0  0  0  0
  5 10  2  0  0  0  0
  6  8  1  0  0  0  0
  1 11  1  0  0  0  0
  1 12  1  0  0  0  0
  2 13  1  0  0  0  0
  3 14  1  0  0  0  0
  7 15  1  0  0  0  0
  7 16  1  0  0  0  0
  8 17  1  0  0  0  0
M  END
> <FRED Chemgauss4 score>
-6.019848

$$$$
C87732307	P137229475
  -OEChem-05182014473D

 27 27  0     0  0  0  0  0  0999 V2000
  124.4863  107.4570  106.0422 C   0  0  0  0  0  0  0  0  0  0  0  0
  123.3324  105.0633  106.2988 C   0  0  0  0  0  0  0  0  0  0  0  0
  125.0176  106.4975  106.8755 C   0  0  0  0  0  0  0  0  0  0  0  0
  122.8005  106.0230  105.4661 C   0  0  0  0  0  0  0  0  0  0  0  0
  119.7455  104.4606  103.9346 C   0  0  0  0  0  0  0  0  0  0  0  0
  117.5714  105.5938  103.4139 C   0  0  0  0  0  0  0  0  0  0  0  0
  118.9592  106.4244  105.2737 C   0  0  0  0  0  0  0  0  0  0  0  0
  120.9643  104.4538  104.8403 C   0  0  0  0  0  0  0  0  0  0  0  0
  124.4505  105.2833  107.0186 N   0  0  0  0  0  0  0  0  0  0  0  0
  123.3680  107.2371  105.3228 N   0  0  0  0  0  0  0  0  0  0  0  0
  126.1925  106.8108  107.5947 N   0  0  0  0  0  0  0  0  0  0  0  0
  121.6437  105.7150  104.7583 N   0  0  0  0  0  0  0  0  0  0  0  0
  118.7962  105.4545  104.1978 N   0  0  0  0  0  0  0  0  0  0  0  0
  119.6268  103.6305  103.0294 O   0  0  0  0  0  0  0  0  0  0  0  0
  124.9342  108.4365  105.9193 H   0  0  0  0  0  0  0  0  0  0  0  0
  122.8844  104.0838  106.4214 H   0  0  0  0  0  0  0  0  0  0  0  0
  116.7713  104.9954  103.8575 H   0  0  0  0  0  0  0  0  0  0  0  0
  117.7382  105.2533  102.3883 H   0  0  0  0  0  0  0  0  0  0  0  0
  117.2557  106.6402  103.3887 H   0  0  0  0  0  0  0  0  0  0  0  0
  119.4862  107.3085  104.9058 H   0  0  0  0  0  0  0  0  0  0  0  0
  119.5357  105.9866  106.0931 H   0  0  0  0  0  0  0  0  0  0  0  0
  117.9824  106.7311  105.6572 H   0  0  0  0  0  0  0  0  0  0  0  0
  120.6634  104.3074  105.8809 H   0  0  0  0  0  0  0  0  0  0  0  0
  121.6686  103.6793  104.5257 H   0  0  0  0  0  0  0  0  0  0  0  0
  126.6314  107.6956  107.4460 H   0  0  0  0  0  0  0  0  0  0  0  0
  126.6140  106.1079  108.1657 H   0  0  0  0  0  0  0  0  0  0  0  0
  121.2628  106.4336  104.1458 H   0  0  0  0  0  0  0  0  0  0  0  0
  1  3  2  0  0  0  0
  1 10  1  0  0  0  0
  2  4  1  0  0  0  0
  2  9  2  0  0  0  0
  3  9  1  0  0  0  0
  3 11  1  0  0  0  0
  4 10  2  0  0  0  0
  4 12  1  0  0  0  0
  5  8  1  0  0  0  0
  5 13  1  0  0  0  0
  5 14  2  0  0  0  0
  6 13  1  0  0  0  0
  7 13  1  0  0  0  0
  8 12  1  0  0  0  0
  1 15  1  0  0  0  0
  2 16  1  0  0  0  0
  6 17  1  0  0  0  0
  6 18  1  0  0  0  0
  6 19  1  0  0  0  0
  7 20  1  0  0  0  0
  7 21  1  0  0  0  0
  7 22  1  0  0  0  0
  8 23  1  0  0  0  0
  8 24  1  0  0  0  0
 11 25  1  0  0  0  0
 11 26  1  0  0  0  0
 12 27  1  0  0  0  0
M  END
> <FRED Chemgauss4 score>
-6.018911

$$$$
C70911053	P109452755
  -OEChem-05182014473D

 29 29  0     0  0  0  0  0  0999 V2000
  116.2551  105.7661  103.9798 C   0  0  0  0  0  0  0  0  0  0  0  0
  115.8431  105.1159  105.2714 C   0  0  0  0  0  0  0  0  0  0  0  0
  117.2399  105.6310  105.1010 C   0  0  0  0  0  0  0  0  0  0  0  0
  124.3879  107.7447  106.2280 C   0  0  0  0  0  0  0  0  0  0  0  0
  120.2779  106.2661  104.2504 C   0  0  0  0  0  0  0  0  0  0  0  0
  123.6211  106.5148  105.7774 C   0  0  0  0  0  0  0  0  0  0  0  0
  121.6067  105.7898  104.8082 C   0  0  0  0  0  0  0  0  0  0  0  0
  124.6358  108.6287  105.0661 N   0  0  0  0  0  0  0  0  0  0  0  0
  119.5040  105.1107  103.7621 N   0  0  0  0  0  0  0  0  0  0  0  0
  119.0772  104.0454  106.0810 O   0  0  0  0  0  0  0  0  0  0  0  0
  117.7360  103.2785  104.0886 O   0  0  0  0  0  0  0  0  0  0  0  0
  122.3645  106.9108  105.2453 O   0  0  0  0  0  0  0  0  0  0  0  0
  118.4175  104.3283  104.8214 S   0  0  0  0  0  0  0  0  0  0  0  0
  116.3502  105.1347  103.1050 H   0  0  0  0  0  0  0  0  0  0  0  0
  115.8656  106.7551  103.7694 H   0  0  0  0  0  0  0  0  0  0  0  0
  115.1787  105.6712  105.9228 H   0  0  0  0  0  0  0  0  0  0  0  0
  115.6616  104.0483  105.2634 H   0  0  0  0  0  0  0  0  0  0  0  0
  117.5453  106.5143  105.6429 H   0  0  0  0  0  0  0  0  0  0  0  0
  123.8246  108.3115  106.9761 H   0  0  0  0  0  0  0  0  0  0  0  0
  125.3554  107.4569  106.6502 H   0  0  0  0  0  0  0  0  0  0  0  0
  119.6859  106.7763  105.0169 H   0  0  0  0  0  0  0  0  0  0  0  0
  120.4400  106.9479  103.4101 H   0  0  0  0  0  0  0  0  0  0  0  0
  123.4340  105.8562  106.6313 H   0  0  0  0  0  0  0  0  0  0  0  0
  124.1686  105.9577  105.0102 H   0  0  0  0  0  0  0  0  0  0  0  0
  122.1791  105.2787  104.0278 H   0  0  0  0  0  0  0  0  0  0  0  0
  121.4673  105.1078  105.6532 H   0  0  0  0  0  0  0  0  0  0  0  0
  125.4100  109.2389  105.1238 H   0  0  0  0  0  0  0  0  0  0  0  0
  123.9116  108.7065  104.3992 H   0  0  0  0  0  0  0  0  0  0  0  0
  119.2200  105.1851  102.7766 H   0  0  0  0  0  0  0  0  0  0  0  0
  1  2  1  0  0  0  0
  1  3  1  0  0  0  0
  2  3  1  0  0  0  0
  3 13  1  0  0  0  0
  4  6  1  0  0  0  0
  4  8  1  0  0  0  0
  5  7  1  0  0  0  0
  5  9  1  0  0  0  0
  6 12  1  0  0  0  0
  7 12  1  0  0  0  0
  9 13  1  0  0  0  0
 10 13  2  0  0  0  0
 11 13  2  0  0  0  0
  1 14  1  0  0  0  0
  1 15  1  0  0  0  0
  2 16  1  0  0  0  0
  2 17  1  0  0  0  0
  3 18  1  0  0  0  0
  4 19  1  0  0  0  0
  4 20  1  0  0  0  0
  5 21  1  0  0  0  0
  5 22  1  0  0  0  0
  6 23  1  0  0  0  0
  6 24  1  0  0  0  0
  7 25  1  0  0  0  0
  7 26  1  0  0  0  0
  8 27  1  0  0  0  0
  8 28  1  0  0  0  0
  9 29  1  0  0  0  0
M  END
> <FRED Chemgauss4 score>
-6.017899

$$$$
C39060929	P59181285
  -OEChem-05182014473D

 17 17  0     0  0  0  0  0  0999 V2000
  123.1474  106.0897  107.1663 C   0  0  0  0  0  0  0  0  0  0  0  0
  125.7609  106.5214  106.6560 C   0  0  0  0  0  0  0  0  0  0  0  0
  125.3429  105.8113  107.7672 C   0  0  0  0  0  0  0  0  0  0  0  0
  123.5218  106.8053  106.0432 C   0  0  0  0  0  0  0  0  0  0  0  0
  126.3484  105.2620  108.7197 C   0  0  0  0  0  0  0  0  0  0  0  0
  124.0412  105.5834  108.0418 N   0  0  0  0  0  0  0  0  0  0  0  0
  124.8290  107.0009  105.8205 N   0  3  0  0  0  0  0  0  0  0  0  0
  122.5516  107.3121  105.1613 N   0  0  0  0  0  0  0  0  0  0  0  0
  125.2141  107.6608  104.7875 O   0  5  0  0  0  0  0  0  0  0  0  0
  127.1213  106.3277  109.2595 O   0  0  0  0  0  0  0  0  0  0  0  0
  122.1068  105.8965  107.4039 H   0  0  0  0  0  0  0  0  0  0  0  0
  126.7895  106.7244  106.4021 H   0  0  0  0  0  0  0  0  0  0  0  0
  125.8660  104.7250  109.5486 H   0  0  0  0  0  0  0  0  0  0  0  0
  127.0250  104.5543  108.2204 H   0  0  0  0  0  0  0  0  0  0  0  0
  121.5835  107.1113  105.3257 H   0  0  0  0  0  0  0  0  0  0  0  0
  122.8435  107.7872  104.3284 H   0  0  0  0  0  0  0  0  0  0  0  0
  127.7596  105.9270  109.8709 H   0  0  0  0  0  0  0  0  0  0  0  0
  1  4  1  0  0  0  0
  1  6  2  0  0  0  0
  2  3  2  0  0  0  0
  2  7  1  0  0  0  0
  3  5  1  0  0  0  0
  3  6  1  0  0  0  0
  4  7  2  0  0  0  0
  4  8  1  0  0  0  0
  5 10  1  0  0  0  0
  7  9  1  0  0  0  0
  1 11  1  0  0  0  0
  2 12  1  0  0  0  0
  5 13  1  0  0  0  0
  5 14  1  0  0  0  0
  8 15  1  0  0  0  0
  8 16  1  0  0  0  0
 10 17  1  0  0  0  0
M  CHG  2   7   1   9  -1
M  END
> <FRED Chemgauss4 score>
-6.014102

$$$$
C72313242	P112387662
  -OEChem-05182014473D

 23 24  0     1  0  0  0  0  0999 V2000
  124.7964  106.5287  106.7876 C   0  0  0  0  0  0  0  0  0  0  0  0
  122.8409  107.2081  106.0898 C   0  0  0  0  0  0  0  0  0  0  0  0
  123.8091  104.7772  108.8075 C   0  0  0  0  0  0  0  0  0  0  0  0
  125.2019  105.3941  108.9775 C   0  0  0  0  0  0  0  0  0  0  0  0
  122.8489  105.7779  108.1627 C   0  0  0  0  0  0  0  0  0  0  0  0
  125.7959  105.7903  107.6127 C   0  0  2  0  0  0  0  0  0  0  0  0
  121.3832  107.4144  106.0219 C   0  0  0  0  0  0  0  0  0  0  0  0
  124.9851  107.2613  105.7081 N   0  0  0  0  0  0  0  0  0  0  0  0
  123.7469  107.6960  105.2716 N   0  0  0  0  0  0  0  0  0  0  0  0
  123.4542  106.4678  107.0458 N   0  0  0  0  0  0  0  0  0  0  0  0
  127.0045  106.5856  107.8198 N   0  0  0  0  0  0  0  0  0  0  0  0
  123.8855  103.8806  108.1795 H   0  0  0  0  0  0  0  0  0  0  0  0
  123.4136  104.4583  109.7782 H   0  0  0  0  0  0  0  0  0  0  0  0
  125.1212  106.2717  109.6334 H   0  0  0  0  0  0  0  0  0  0  0  0
  125.8640  104.6790  109.4810 H   0  0  0  0  0  0  0  0  0  0  0  0
  121.9487  105.2656  107.8079 H   0  0  0  0  0  0  0  0  0  0  0  0
  122.5564  106.5477  108.8857 H   0  0  0  0  0  0  0  0  0  0  0  0
  126.0700  104.8766  107.0713 H   0  0  0  0  0  0  0  0  0  0  0  0
  120.8979  106.6376  105.4070 H   0  0  0  0  0  0  0  0  0  0  0  0
  120.9126  107.3910  107.0206 H   0  0  0  0  0  0  0  0  0  0  0  0
  121.1216  108.3953  105.5870 H   0  0  0  0  0  0  0  0  0  0  0  0
  127.3082  107.1771  107.0778 H   0  0  0  0  0  0  0  0  0  0  0  0
  127.5853  106.3599  108.5974 H   0  0  0  0  0  0  0  0  0  0  0  0
  1  6  1  0  0  0  0
  1  8  2  0  0  0  0
  1 10  1  0  0  0  0
  2  7  1  0  0  0  0
  2  9  2  0  0  0  0
  2 10  1  0  0  0  0
  3  4  1  0  0  0  0
  3  5  1  0  0  0  0
  4  6  1  0  0  0  0
  5 10  1  0  0  0  0
  6 11  1  0  0  0  0
  8  9  1  0  0  0  0
  3 12  1  0  0  0  0
  3 13  1  0  0  0  0
  4 14  1  0  0  0  0
  4 15  1  0  0  0  0
  5 16  1  0  0  0  0
  5 17  1  0  0  0  0
  6 18  1  0  0  0  0
  7 19  1  0  0  0  0
  7 20  1  0  0  0  0
  7 21  1  0  0  0  0
 11 22  1  0  0  0  0
 11 23  1  0  0  0  0
M  END
> <FRED Chemgauss4 score>
-6.012240

$$$$
C38124694	P57326764
  -OEChem-05182014473D

 21 21  0     1  0  0  0  0  0999 V2000
  124.8403  107.4523  106.0540 C   0  0  0  0  0  0  0  0  0  0  0  0
  123.7586  105.5861  106.4805 C   0  0  0  0  0  0  0  0  0  0  0  0
  124.8825  106.2873  106.8431 C   0  0  0  0  0  0  0  0  0  0  0  0
  121.9074  106.0196  104.8483 C   0  0  0  0  0  0  0  0  0  0  0  0
  125.6346  104.5383  108.5107 C   0  0  0  0  0  0  0  0  0  0  0  0
  125.9309  105.8925  107.8608 C   0  0  1  0  0  0  0  0  0  0  0  0
  123.7741  107.4925  105.2505 N   0  0  0  0  0  0  0  0  0  0  0  0
  123.1359  106.3440  105.5328 N   0  0  0  0  0  0  0  0  0  0  0  0
  127.2504  105.8962  107.2662 N   0  0  0  0  0  0  0  0  0  0  0  0
  126.6395  104.2523  109.4780 O   0  0  0  0  0  0  0  0  0  0  0  0
  125.5413  108.2747  106.0284 H   0  0  0  0  0  0  0  0  0  0  0  0
  123.3594  104.6353  106.8070 H   0  0  0  0  0  0  0  0  0  0  0  0
  121.0782  106.4281  105.4319 H   0  0  0  0  0  0  0  0  0  0  0  0
  121.9222  106.4577  103.8465 H   0  0  0  0  0  0  0  0  0  0  0  0
  121.8174  104.9331  104.7627 H   0  0  0  0  0  0  0  0  0  0  0  0
  124.6702  104.5563  109.0302 H   0  0  0  0  0  0  0  0  0  0  0  0
  125.6227  103.7253  107.7766 H   0  0  0  0  0  0  0  0  0  0  0  0
  125.9769  106.6526  108.6510 H   0  0  0  0  0  0  0  0  0  0  0  0
  127.9780  105.3622  107.7041 H   0  0  0  0  0  0  0  0  0  0  0  0
  127.4602  106.5801  106.5629 H   0  0  0  0  0  0  0  0  0  0  0  0
  126.4159  103.3908  109.8641 H   0  0  0  0  0  0  0  0  0  0  0  0
  1  3  1  0  0  0  0
  1  7  2  0  0  0  0
  2  3  2  0  0  0  0
  2  8  1  0  0  0  0
  3  6  1  0  0  0  0
  4  8  1  0  0  0  0
  5  6  1  0  0  0  0
  5 10  1  0  0  0  0
  6  9  1  0  0  0  0
  7  8  1  0  0  0  0
  1 11  1  0  0  0  0
  2 12  1  0  0  0  0
  4 13  1  0  0  0  0
  4 14  1  0  0  0  0
  4 15  1  0  0  0  0
  5 16  1  0  0  0  0
  5 17  1  0  0  0  0
  6 18  1  0  0  0  0
  9 19  1  0  0  0  0
  9 20  1  0  0  0  0
 10 21  1  0  0  0  0
M  END
> <FRED Chemgauss4 score>
-6.006987

$$$$
C77264475	P120544761
  -OEChem-05182014473D

 27 27  0     1  0  0  0  0  0999 V2000
  125.4343  105.8109  106.7982 C   0  0  0  0  0  0  0  0  0  0  0  0
  124.8052  107.1398  106.4129 C   0  0  2  0  0  0  0  0  0  0  0  0
  123.4326  106.7164  105.9316 C   0  0  1  0  0  0  0  0  0  0  0  0
  123.1168  105.5747  106.8843 C   0  0  1  0  0  0  0  0  0  0  0  0
  119.3537  104.6887  104.2508 C   0  0  0  0  0  0  0  0  0  0  0  0
  122.1041  104.5899  106.3284 C   0  0  0  0  0  0  0  0  0  0  0  0
  125.5547  107.8436  105.4108 N   0  0  0  0  0  0  0  0  0  0  0  0
  120.7841  105.1050  106.4889 N   0  0  0  0  0  0  0  0  0  0  0  0
  118.2247  104.7097  106.6120 O   0  0  0  0  0  0  0  0  0  0  0  0
  119.7183  102.7768  105.9878 O   0  0  0  0  0  0  0  0  0  0  0  0
  124.3647  104.9072  107.1217 O   0  0  0  0  0  0  0  0  0  0  0  0
  122.4808  107.7591  106.0226 O   0  0  0  0  0  0  0  0  0  0  0  0
  119.4113  104.1939  105.9578 S   0  0  0  0  0  0  0  0  0  0  0  0
  126.0642  105.3675  106.0170 H   0  0  0  0  0  0  0  0  0  0  0  0
  126.0539  105.9221  107.6982 H   0  0  0  0  0  0  0  0  0  0  0  0
  124.7331  107.7914  107.3291 H   0  0  0  0  0  0  0  0  0  0  0  0
  123.4395  106.3783  104.8602 H   0  0  0  0  0  0  0  0  0  0  0  0
  122.7594  105.9561  107.8555 H   0  0  0  0  0  0  0  0  0  0  0  0
  118.5147  104.1803  103.7731 H   0  0  0  0  0  0  0  0  0  0  0  0
  119.2186  105.7705  104.2103 H   0  0  0  0  0  0  0  0  0  0  0  0
  120.2941  104.4024  103.7775 H   0  0  0  0  0  0  0  0  0  0  0  0
  122.1885  103.6544  106.8690 H   0  0  0  0  0  0  0  0  0  0  0  0
  122.2986  104.4347  105.2739 H   0  0  0  0  0  0  0  0  0  0  0  0
  126.5490  107.8023  105.4558 H   0  0  0  0  0  0  0  0  0  0  0  0
  125.0703  108.5023  104.8417 H   0  0  0  0  0  0  0  0  0  0  0  0
  120.6727  106.1418  106.3775 H   0  0  0  0  0  0  0  0  0  0  0  0
  122.4358  108.0050  106.9582 H   0  0  0  0  0  0  0  0  0  0  0  0
  1  2  1  0  0  0  0
  1 11  1  0  0  0  0
  2  3  1  0  0  0  0
  2  7  1  0  0  0  0
  3  4  1  0  0  0  0
  3 12  1  0  0  0  0
  4  6  1  0  0  0  0
  4 11  1  0  0  0  0
  5 13  1  0  0  0  0
  6  8  1  0  0  0  0
  8 13  1  0  0  0  0
  9 13  2  0  0  0  0
 10 13  2  0  0  0  0
  1 14  1  0  0  0  0
  1 15  1  0  0  0  0
  2 16  1  0  0  0  0
  3 17  1  0  0  0  0
  4 18  1  0  0  0  0
  5 19  1  0  0  0  0
  5 20  1  0  0  0  0
  5 21  1  0  0  0  0
  6 22  1  0  0  0  0
  6 23  1  0  0  0  0
  7 24  1  0  0  0  0
  7 25  1  0  0  0  0
  8 26  1  0  0  0  0
 12 27  1  0  0  0  0
M  END
> <FRED Chemgauss4 score>
-6.001981

$$$$
C54460861	P81945512
  -OEChem-05182014473D

 18 18  0     0  0  0  0  0  0999 V2000
  121.0459  104.9193  104.2072 C   0  0  0  0  0  0  0  0  0  0  0  0
  121.6432  104.5492  105.3949 C   0  0  0  0  0  0  0  0  0  0  0  0
  121.2463  106.2288  103.8208 C   0  0  0  0  0  0  0  0  0  0  0  0
  122.5032  106.6352  105.6707 C   0  0  0  0  0  0  0  0  0  0  0  0
  123.3124  107.5881  106.4835 C   0  0  0  0  0  0  0  0  0  0  0  0
  122.3815  105.3845  106.1549 N   0  0  0  0  0  0  0  0  0  0  0  0
  121.9719  107.1173  104.5311 N   0  0  0  0  0  0  0  0  0  0  0  0
  125.7288  108.3480  107.2803 N   0  0  0  0  0  0  0  0  0  0  0  0
  125.2238  105.8551  106.8967 O   0  0  0  0  0  0  0  0  0  0  0  0
  125.3907  107.4078  104.9100 O   0  0  0  0  0  0  0  0  0  0  0  0
  125.0123  107.1587  106.2906 S   0  0  0  0  0  0  0  0  0  0  0  0
  120.4590  104.2280  103.6176 H   0  0  0  0  0  0  0  0  0  0  0  0
  121.5415  103.5401  105.7798 H   0  0  0  0  0  0  0  0  0  0  0  0
  120.8158  106.6113  102.9015 H   0  0  0  0  0  0  0  0  0  0  0  0
  123.0704  107.5345  107.5511 H   0  0  0  0  0  0  0  0  0  0  0  0
  123.1879  108.6262  106.1542 H   0  0  0  0  0  0  0  0  0  0  0  0
  126.1392  108.0442  108.1719 H   0  0  0  0  0  0  0  0  0  0  0  0
  126.2527  109.1017  106.8188 H   0  0  0  0  0  0  0  0  0  0  0  0
  1  2  1  0  0  0  0
  1  3  2  0  0  0  0
  2  6  2  0  0  0  0
  3  7  1  0  0  0  0
  4  5  1  0  0  0  0
  4  6  1  0  0  0  0
  4  7  2  0  0  0  0
  5 11  1  0  0  0  0
  8 11  1  0  0  0  0
  9 11  2  0  0  0  0
 10 11  2  0  0  0  0
  1 12  1  0  0  0  0
  2 13  1  0  0  0  0
  3 14  1  0  0  0  0
  5 15  1  0  0  0  0
  5 16  1  0  0  0  0
  8 17  1  0  0  0  0
  8 18  1  0  0  0  0
M  END
> <FRED Chemgauss4 score>
-5.999889

$$$$
C94468140	P148078016
  -OEChem-05182014473D

 44 45  0     1  0  0  0  0  0999 V2000
  125.8121  104.9562  107.0764 C   0  0  0  0  0  0  0  0  0  0  0  0
  118.9490  104.1659  102.9752 C   0  0  0  0  0  0  0  0  0  0  0  0
  120.3850  104.0613  103.5008 C   0  0  0  0  0  0  0  0  0  0  0  0
  118.4307  105.5226  103.4593 C   0  0  0  0  0  0  0  0  0  0  0  0
  121.7624  105.6061  105.0470 C   0  0  0  0  0  0  0  0  0  0  0  0
  119.4112  107.2828  104.8830 C   0  0  0  0  0  0  0  0  0  0  0  0
  120.6927  105.4723  103.9696 C   0  0  2  0  0  0  0  0  0  0  0  0
  120.4856  107.4997  105.9808 C   0  0  1  0  0  0  0  0  0  0  0  0
  120.0162  106.9053  107.3203 C   0  0  0  0  0  0  0  0  0  0  0  0
  125.5051  106.2777  107.7617 C   0  0  0  0  0  0  0  0  0  0  0  0
  125.4061  107.4620  106.7999 C   0  0  0  0  0  0  0  0  0  0  0  0
  124.2486  107.3075  105.8055 C   0  0  0  0  0  0  0  0  0  0  0  0
  122.8778  107.2071  106.4787 C   0  0  0  0  0  0  0  0  0  0  0  0
  119.3893  105.8791  104.4955 N   0  0  2  0  0  0  0  0  0  0  0  0
  121.8013  107.0016  105.5159 N   0  0  1  0  0  0  0  0  0  0  0  0
  125.4677  102.6087  107.2957 N   0  0  0  0  0  0  0  0  0  0  0  0
  125.2625  103.8890  107.7671 N   0  0  0  0  0  0  0  0  0  0  0  0
  126.4856  104.8704  106.0525 O   0  0  0  0  0  0  0  0  0  0  0  0
  118.9250  104.1112  101.8813 H   0  0  0  0  0  0  0  0  0  0  0  0
  118.3431  103.3424  103.3689 H   0  0  0  0  0  0  0  0  0  0  0  0
  120.4254  103.3425  104.3285 H   0  0  0  0  0  0  0  0  0  0  0  0
  121.0779  103.7217  102.7247 H   0  0  0  0  0  0  0  0  0  0  0  0
  118.4372  106.2408  102.6301 H   0  0  0  0  0  0  0  0  0  0  0  0
  117.4110  105.4491  103.8494 H   0  0  0  0  0  0  0  0  0  0  0  0
  121.5742  104.9146  105.8782 H   0  0  0  0  0  0  0  0  0  0  0  0
  122.7317  105.3311  104.6130 H   0  0  0  0  0  0  0  0  0  0  0  0
  118.4279  107.5833  105.2646 H   0  0  0  0  0  0  0  0  0  0  0  0
  119.6319  107.9261  104.0202 H   0  0  0  0  0  0  0  0  0  0  0  0
  120.9702  106.0857  103.0985 H   0  0  0  0  0  0  0  0  0  0  0  0
  120.5722  108.5853  106.1213 H   0  0  0  0  0  0  0  0  0  0  0  0
  119.9188  105.8295  107.2197 H   0  0  0  0  0  0  0  0  0  0  0  0
  119.0564  107.3360  107.5858 H   0  0  0  0  0  0  0  0  0  0  0  0
  120.7459  107.1362  108.0892 H   0  0  0  0  0  0  0  0  0  0  0  0
  126.3194  106.4655  108.4723 H   0  0  0  0  0  0  0  0  0  0  0  0
  124.5794  106.1804  108.3412 H   0  0  0  0  0  0  0  0  0  0  0  0
  126.3555  107.5881  106.2675 H   0  0  0  0  0  0  0  0  0  0  0  0
  125.2461  108.3733  107.3891 H   0  0  0  0  0  0  0  0  0  0  0  0
  124.4050  106.3956  105.2156 H   0  0  0  0  0  0  0  0  0  0  0  0
  124.2461  108.1420  105.0942 H   0  0  0  0  0  0  0  0  0  0  0  0
  122.6777  108.1096  107.0668 H   0  0  0  0  0  0  0  0  0  0  0  0
  122.8868  106.3608  107.1743 H   0  0  0  0  0  0  0  0  0  0  0  0
  124.6293  102.0738  107.5182 H   0  0  0  0  0  0  0  0  0  0  0  0
  125.5006  102.6697  106.2789 H   0  0  0  0  0  0  0  0  0  0  0  0
  124.7123  104.0075  108.6121 H   0  0  0  0  0  0  0  0  0  0  0  0
  1 10  1  0  0  0  0
  1 17  1  0  0  0  0
  1 18  2  0  0  0  0
  2  3  1  0  0  0  0
  2  4  1  0  0  0  0
  3  7  1  0  0  0  0
  4 14  1  0  0  0  0
  5  7  1  0  0  0  0
  5 15  1  0  0  0  0
  6  8  1  0  0  0  0
  6 14  1  0  0  0  0
  7 14  1  0  0  0  0
  8  9  1  0  0  0  0
  8 15  1  0  0  0  0
 10 11  1  0  0  0  0
 11 12  1  0  0  0  0
 12 13  1  0  0  0  0
 13 15  1  0  0  0  0
 16 17  1  0  0  0  0
  2 19  1  0  0  0  0
  2 20  1  0  0  0  0
  3 21  1  0  0  0  0
  3 22  1  0  0  0  0
  4 23  1  0  0  0  0
  4 24  1  0  0  0  0
  5 25  1  0  0  0  0
  5 26  1  0  0  0  0
  6 27  1  0  0  0  0
  6 28  1  0  0  0  0
  7 29  1  0  0  0  0
  8 30  1  0  0  0  0
  9 31  1  0  0  0  0
  9 32  1  0  0  0  0
  9 33  1  0  0  0  0
 10 34  1  0  0  0  0
 10 35  1  0  0  0  0
 11 36  1  0  0  0  0
 11 37  1  0  0  0  0
 12 38  1  0  0  0  0
 12 39  1  0  0  0  0
 13 40  1  0  0  0  0
 13 41  1  0  0  0  0
 16 42  1  0  0  0  0
 16 43  1  0  0  0  0
 17 44  1  0  0  0  0
M  END
> <FRED Chemgauss4 score>
-5.998702

$$$$
C40545676	P61563278
  -OEChem-05182014473D

 25 25  0     0  0  0  0  0  0999 V2000
  123.9618  104.5489  107.5973 C   0  0  0  0  0  0  0  0  0  0  0  0
  125.7162  105.9780  106.7507 C   0  0  0  0  0  0  0  0  0  0  0  0
  123.0627  105.1185  106.6958 C   0  0  0  0  0  0  0  0  0  0  0  0
  124.8171  106.5476  105.8491 C   0  0  0  0  0  0  0  0  0  0  0  0
  123.4903  106.1178  105.8217 C   0  0  0  0  0  0  0  0  0  0  0  0
  125.2886  104.9787  107.6248 C   0  0  0  0  0  0  0  0  0  0  0  0
  121.6827  104.6514  106.6871 C   0  0  0  0  0  0  0  0  0  0  0  0
  121.0521  104.0704  105.6428 C   0  0  0  0  0  0  0  0  0  0  0  0
  125.1493  108.8699  105.4588 C   0  0  0  0  0  0  0  0  0  0  0  0
  119.6361  103.5925  105.6863 C   0  0  0  0  0  0  0  0  0  0  0  0
  122.6216  106.6841  104.9345 O   0  0  0  0  0  0  0  0  0  0  0  0
  118.8959  104.2663  104.6780 O   0  0  0  0  0  0  0  0  0  0  0  0
  125.2481  107.5227  105.0011 O   0  0  0  0  0  0  0  0  0  0  0  0
  126.5076  104.2074  108.8461 Br  0  0  0  0  0  0  0  0  0  0  0  0
  123.6283  103.7689  108.2794 H   0  0  0  0  0  0  0  0  0  0  0  0
  126.7485  106.3199  106.7644 H   0  0  0  0  0  0  0  0  0  0  0  0
  121.1228  104.7699  107.6201 H   0  0  0  0  0  0  0  0  0  0  0  0
  121.5810  103.9081  104.7075 H   0  0  0  0  0  0  0  0  0  0  0  0
  125.5263  109.5461  104.6875 H   0  0  0  0  0  0  0  0  0  0  0  0
  125.7303  108.9873  106.3770 H   0  0  0  0  0  0  0  0  0  0  0  0
  124.1007  109.1005  105.6614 H   0  0  0  0  0  0  0  0  0  0  0  0
  119.6024  102.5173  105.4849 H   0  0  0  0  0  0  0  0  0  0  0  0
  119.1623  103.7853  106.6541 H   0  0  0  0  0  0  0  0  0  0  0  0
  123.0773  107.3564  104.4057 H   0  0  0  0  0  0  0  0  0  0  0  0
  117.9843  103.9361  104.7312 H   0  0  0  0  0  0  0  0  0  0  0  0
  1  3  2  0  0  0  0
  1  6  1  0  0  0  0
  2  4  1  0  0  0  0
  2  6  2  0  0  0  0
  3  5  1  0  0  0  0
  3  7  1  0  0  0  0
  4  5  2  0  0  0  0
  4 13  1  0  0  0  0
  5 11  1  0  0  0  0
  6 14  1  0  0  0  0
  7  8  2  0  0  0  0
  8 10  1  0  0  0  0
  9 13  1  0  0  0  0
 10 12  1  0  0  0  0
  1 15  1  0  0  0  0
  2 16  1  0  0  0  0
  7 17  1  0  0  0  0
  8 18  1  0  0  0  0
  9 19  1  0  0  0  0
  9 20  1  0  0  0  0
  9 21  1  0  0  0  0
 10 22  1  0  0  0  0
 10 23  1  0  0  0  0
 11 24  1  0  0  0  0
 12 25  1  0  0  0  0
M  END
> <FRED Chemgauss4 score>
-5.997643

$$$$
C01843030	P156189276
  -OEChem-05182014473D

 17 17  0     1  0  0  0  0  0999 V2000
  123.1172  105.1487  107.3549 C   0  0  0  0  0  0  0  0  0  0  0  0
  124.8625  104.7923  108.6200 C   0  0  0  0  0  0  0  0  0  0  0  0
  125.1114  107.8220  106.0231 C   0  0  0  0  0  0  0  0  0  0  0  0
  123.9471  106.4067  107.4642 C   0  0  1  0  0  0  0  0  0  0  0  0
  125.0967  106.0288  108.3221 N   0  0  0  0  0  0  0  0  0  0  0  0
  124.3705  106.7734  106.1195 N   0  0  0  0  0  0  0  0  0  0  0  0
  123.7564  104.2164  108.1159 N   0  0  0  0  0  0  0  0  0  0  0  0
  125.5869  108.6784  106.9774 N   0  0  0  0  0  0  0  0  0  0  0  0
  122.0960  105.0156  106.7004 O   0  0  0  0  0  0  0  0  0  0  0  0
  125.6530  104.0302  109.3991 O   0  0  0  0  0  0  0  0  0  0  0  0
  125.5205  108.1854  104.7791 O   0  0  0  0  0  0  0  0  0  0  0  0
  123.3641  107.2043  107.9336 H   0  0  0  0  0  0  0  0  0  0  0  0
  123.4536  103.2629  108.2733 H   0  0  0  0  0  0  0  0  0  0  0  0
  125.3792  108.5561  107.9623 H   0  0  0  0  0  0  0  0  0  0  0  0
  126.1693  109.4694  106.7248 H   0  0  0  0  0  0  0  0  0  0  0  0
  126.4308  104.5245  109.7159 H   0  0  0  0  0  0  0  0  0  0  0  0
  126.0732  108.9857  104.8073 H   0  0  0  0  0  0  0  0  0  0  0  0
  1  4  1  0  0  0  0
  1  7  1  0  0  0  0
  1  9  2  0  0  0  0
  2  5  2  0  0  0  0
  2  7  1  0  0  0  0
  2 10  1  0  0  0  0
  3  6  2  0  0  0  0
  3  8  1  0  0  0  0
  3 11  1  0  0  0  0
  4  5  1  0  0  0  0
  4  6  1  0  0  0  0
  4 12  1  0  0  0  0
  7 13  1  0  0  0  0
  8 14  1  0  0  0  0
  8 15  1  0  0  0  0
 10 16  1  0  0  0  0
 11 17  1  0  0  0  0
M  END
> <FRED Chemgauss4 score>
-5.995939

$$$$
C54503944	P82019601
  -OEChem-05182014473D

 27 29  0     1  0  0  0  0  0999 V2000
  120.6150  105.8999  105.4023 C   0  0  0  0  0  0  0  0  0  0  0  0
  122.6375  105.6806  105.8700 C   0  0  0  0  0  0  0  0  0  0  0  0
  118.0337  106.3021  105.5941 C   0  0  0  0  0  0  0  0  0  0  0  0
  118.2630  105.6140  104.2850 C   0  0  0  0  0  0  0  0  0  0  0  0
  125.9620  105.4146  107.8752 C   0  0  0  0  0  0  0  0  0  0  0  0
  124.7849  104.5547  108.2420 C   0  0  0  0  0  0  0  0  0  0  0  0
  119.3399  106.5027  104.8620 C   0  0  0  0  0  0  0  0  0  0  0  0
  124.5720  105.8394  107.4900 C   0  0  0  0  0  0  0  0  0  0  0  0
  124.1480  105.8116  106.0625 C   0  0  2  0  0  0  0  0  0  0  0  0
  121.8226  106.5263  105.2835 N   0  0  0  0  0  0  0  0  0  0  0  0
  120.6315  104.7198  106.0255 N   0  0  0  0  0  0  0  0  0  0  0  0
  121.9366  104.6030  106.3143 N   0  0  0  0  0  0  0  0  0  0  0  0
  124.6389  106.9700  105.3241 N   0  0  0  0  0  0  0  0  0  0  0  0
  117.3322  107.1280  105.6134 H   0  0  0  0  0  0  0  0  0  0  0  0
  118.0281  105.6926  106.4900 H   0  0  0  0  0  0  0  0  0  0  0  0
  118.4123  104.5407  104.3001 H   0  0  0  0  0  0  0  0  0  0  0  0
  117.7170  105.9751  103.4213 H   0  0  0  0  0  0  0  0  0  0  0  0
  126.4648  105.9465  108.6735 H   0  0  0  0  0  0  0  0  0  0  0  0
  126.6176  105.0626  107.0882 H   0  0  0  0  0  0  0  0  0  0  0  0
  124.6515  103.6260  107.7010 H   0  0  0  0  0  0  0  0  0  0  0  0
  124.4994  104.5110  109.2858 H   0  0  0  0  0  0  0  0  0  0  0  0
  119.4653  107.4821  104.3681 H   0  0  0  0  0  0  0  0  0  0  0  0
  124.1327  106.6703  108.0287 H   0  0  0  0  0  0  0  0  0  0  0  0
  124.6243  104.9506  105.5507 H   0  0  0  0  0  0  0  0  0  0  0  0
  122.2635  103.7791  106.8051 H   0  0  0  0  0  0  0  0  0  0  0  0
  124.1680  107.2257  104.4825 H   0  0  0  0  0  0  0  0  0  0  0  0
  125.5344  107.3374  105.5662 H   0  0  0  0  0  0  0  0  0  0  0  0
  1  7  1  0  0  0  0
  1 10  1  0  0  0  0
  1 11  2  0  0  0  0
  2  9  1  0  0  0  0
  2 10  2  0  0  0  0
  2 12  1  0  0  0  0
  3  4  1  0  0  0  0
  3  7  1  0  0  0  0
  4  7  1  0  0  0  0
  5  6  1  0  0  0  0
  5  8  1  0  0  0  0
  6  8  1  0  0  0  0
  8  9  1  0  0  0  0
  9 13  1  0  0  0  0
 11 12  1  0  0  0  0
  3 14  1  0  0  0  0
  3 15  1  0  0  0  0
  4 16  1  0  0  0  0
  4 17  1  0  0  0  0
  5 18  1  0  0  0  0
  5 19  1  0  0  0  0
  6 20  1  0  0  0  0
  6 21  1  0  0  0  0
  7 22  1  0  0  0  0
  8 23  1  0  0  0  0
  9 24  1  0  0  0  0
 12 25  1  0  0  0  0
 13 26  1  0  0  0  0
 13 27  1  0  0  0  0
M  END
> <FRED Chemgauss4 score>
-5.995558

$$$$
C72197386	P112154929
  -OEChem-05182014473D

 24 24  0     1  0  0  0  0  0999 V2000
  120.2400  105.0020  102.3556 C   0  0  0  0  0  0  0  0  0  0  0  0
  121.5799  104.9845  106.3590 C   0  0  0  0  0  0  0  0  0  0  0  0
  120.5224  104.1561  105.9833 C   0  0  0  0  0  0  0  0  0  0  0  0
  121.7387  105.8094  104.0937 C   0  0  0  0  0  0  0  0  0  0  0  0
  120.6813  104.9809  103.7179 C   0  0  0  0  0  0  0  0  0  0  0  0
  122.1880  105.8112  105.4143 C   0  0  0  0  0  0  0  0  0  0  0  0
  120.0732  104.1543  104.6627 C   0  0  0  0  0  0  0  0  0  0  0  0
  124.6171  106.4159  105.0410 C   0  0  0  0  0  0  0  0  0  0  0  0
  123.3176  106.6977  105.8171 C   0  0  1  0  0  0  0  0  0  0  0  0
  119.8824  105.0191  101.2517 N   0  0  0  0  0  0  0  0  0  0  0  0
  118.9990  103.3053  104.3103 N   0  0  0  0  0  0  0  0  0  0  0  0
  122.9651  108.1042  105.6924 N   0  0  0  0  0  0  0  0  0  0  0  0
  125.6547  107.2754  105.5015 O   0  0  0  0  0  0  0  0  0  0  0  0
  121.9228  104.9800  107.3901 H   0  0  0  0  0  0  0  0  0  0  0  0
  120.0552  103.5174  106.7284 H   0  0  0  0  0  0  0  0  0  0  0  0
  122.2184  106.4578  103.3631 H   0  0  0  0  0  0  0  0  0  0  0  0
  124.9443  105.3835  105.2061 H   0  0  0  0  0  0  0  0  0  0  0  0
  124.4903  106.5761  103.9647 H   0  0  0  0  0  0  0  0  0  0  0  0
  123.5420  106.5745  106.8920 H   0  0  0  0  0  0  0  0  0  0  0  0
  118.6183  102.6934  105.0011 H   0  0  0  0  0  0  0  0  0  0  0  0
  118.7055  103.2660  103.3569 H   0  0  0  0  0  0  0  0  0  0  0  0
  123.7032  108.7715  105.6002 H   0  0  0  0  0  0  0  0  0  0  0  0
  122.0279  108.3786  105.9049 H   0  0  0  0  0  0  0  0  0  0  0  0
  126.4455  107.0580  104.9834 H   0  0  0  0  0  0  0  0  0  0  0  0
  1  5  1  0  0  0  0
  1 10  3  0  0  0  0
  2  3  1  0  0  0  0
  2  6  2  0  0  0  0
  3  7  2  0  0  0  0
  4  5  2  0  0  0  0
  4  6  1  0  0  0  0
  5  7  1  0  0  0  0
  6  9  1  0  0  0  0
  7 11  1  0  0  0  0
  8  9  1  0  0  0  0
  8 13  1  0  0  0  0
  9 12  1  0  0  0  0
  2 14  1  0  0  0  0
  3 15  1  0  0  0  0
  4 16  1  0  0  0  0
  8 17  1  0  0  0  0
  8 18  1  0  0  0  0
  9 19  1  0  0  0  0
 11 20  1  0  0  0  0
 11 21  1  0  0  0  0
 12 22  1  0  0  0  0
 12 23  1  0  0  0  0
 13 24  1  0  0  0  0
M  END
> <FRED Chemgauss4 score>
-5.987981

$$$$
C22061920	P32822128
  -OEChem-05182014473D

 21 21  0     1  0  0  0  0  0999 V2000
  122.8187  105.5400  106.7824 C   0  0  0  0  0  0  0  0  0  0  0  0
  123.2931  106.3742  105.5856 C   0  0  2  0  0  0  0  0  0  0  0  0
  124.6559  106.9912  105.8821 C   0  0  2  0  0  0  0  0  0  0  0  0
  124.6278  107.8488  107.1578 C   0  0  1  0  0  0  0  0  0  0  0  0
  123.5371  107.3698  108.1361 C   0  0  2  0  0  0  0  0  0  0  0  0
  123.8149  107.7832  109.5091 N   0  0  0  0  0  0  0  0  0  0  0  0
  123.4047  105.9505  108.0280 O   0  0  0  0  0  0  0  0  0  0  0  0
  122.3546  107.4234  105.3337 O   0  0  0  0  0  0  0  0  0  0  0  0
  125.0901  107.7990  104.7919 O   0  0  0  0  0  0  0  0  0  0  0  0
  125.9185  107.7349  107.7679 O   0  0  0  0  0  0  0  0  0  0  0  0
  121.7153  105.5484  106.8724 H   0  0  0  0  0  0  0  0  0  0  0  0
  123.0831  104.4795  106.6227 H   0  0  0  0  0  0  0  0  0  0  0  0
  123.3558  105.7485  104.7093 H   0  0  0  0  0  0  0  0  0  0  0  0
  125.4049  106.1738  105.9884 H   0  0  0  0  0  0  0  0  0  0  0  0
  124.4695  108.9007  106.8992 H   0  0  0  0  0  0  0  0  0  0  0  0
  122.5739  107.8184  107.8471 H   0  0  0  0  0  0  0  0  0  0  0  0
  123.3973  107.2617  110.2482 H   0  0  0  0  0  0  0  0  0  0  0  0
  124.2344  108.6756  109.6531 H   0  0  0  0  0  0  0  0  0  0  0  0
  121.5030  106.9982  105.1414 H   0  0  0  0  0  0  0  0  0  0  0  0
  125.1443  107.2133  104.0219 H   0  0  0  0  0  0  0  0  0  0  0  0
  126.0470  106.7945  107.9640 H   0  0  0  0  0  0  0  0  0  0  0  0
  1  2  1  0  0  0  0
  1  7  1  0  0  0  0
  2  3  1  0  0  0  0
  2  8  1  0  0  0  0
  3  4  1  0  0  0  0
  3  9  1  0  0  0  0
  4  5  1  0  0  0  0
  4 10  1  0  0  0  0
  5  6  1  0  0  0  0
  5  7  1  0  0  0  0
  1 11  1  0  0  0  0
  1 12  1  0  0  0  0
  2 13  1  0  0  0  0
  3 14  1  0  0  0  0
  4 15  1  0  0  0  0
  5 16  1  0  0  0  0
  6 17  1  0  0  0  0
  6 18  1  0  0  0  0
  8 19  1  0  0  0  0
  9 20  1  0  0  0  0
 10 21  1  0  0  0  0
M  END
> <FRED Chemgauss4 score>
-5.985384

$$$$
C82836052	P129489593
  -OEChem-05182014473D

 19 19  0     1  0  0  0  0  0999 V2000
  121.7725  105.9441  104.9063 C   0  0  0  0  0  0  0  0  0  0  0  0
  123.5163  106.4345  105.9436 C   0  0  0  0  0  0  0  0  0  0  0  0
  125.7024  106.0441  107.1550 C   0  0  0  0  0  0  0  0  0  0  0  0
  120.8755  104.0056  106.2968 C   0  0  0  0  0  0  0  0  0  0  0  0
  124.8127  107.0488  106.4257 C   0  0  1  0  0  0  0  0  0  0  0  0
  122.8303  106.8074  104.8882 N   0  0  0  0  0  0  0  0  0  0  0  0
  122.8865  105.3956  106.5551 N   0  0  0  0  0  0  0  0  0  0  0  0
  121.7607  105.0605  105.9066 N   0  0  0  0  0  0  0  0  0  0  0  0
  125.5428  107.6620  105.3399 N   0  0  0  0  0  0  0  0  0  0  0  0
  120.9939  105.9767  104.1544 H   0  0  0  0  0  0  0  0  0  0  0  0
  125.9628  105.2023  106.5040 H   0  0  0  0  0  0  0  0  0  0  0  0
  126.6333  106.5214  107.4811 H   0  0  0  0  0  0  0  0  0  0  0  0
  125.2166  105.6408  108.0507 H   0  0  0  0  0  0  0  0  0  0  0  0
  121.2067  103.0877  105.8039 H   0  0  0  0  0  0  0  0  0  0  0  0
  120.9056  103.8882  107.3836 H   0  0  0  0  0  0  0  0  0  0  0  0
  119.8560  104.2580  105.9919 H   0  0  0  0  0  0  0  0  0  0  0  0
  124.5865  107.8641  107.1239 H   0  0  0  0  0  0  0  0  0  0  0  0
  126.5312  107.8078  105.4422 H   0  0  0  0  0  0  0  0  0  0  0  0
  125.0286  108.1099  104.6026 H   0  0  0  0  0  0  0  0  0  0  0  0
  1  6  2  0  0  0  0
  1  8  1  0  0  0  0
  2  5  1  0  0  0  0
  2  6  1  0  0  0  0
  2  7  2  0  0  0  0
  3  5  1  0  0  0  0
  4  8  1  0  0  0  0
  5  9  1  0  0  0  0
  7  8  1  0  0  0  0
  1 10  1  0  0  0  0
  3 11  1  0  0  0  0
  3 12  1  0  0  0  0
  3 13  1  0  0  0  0
  4 14  1  0  0  0  0
  4 15  1  0  0  0  0
  4 16  1  0  0  0  0
  5 17  1  0  0  0  0
  9 18  1  0  0  0  0
  9 19  1  0  0  0  0
M  END
> <FRED Chemgauss4 score>
-5.982909

$$$$
C97617862	P154764065
  -OEChem-05182014473D

 46 47  0     1  0  0  0  0  0999 V2000
  124.7322  103.9367  106.9545 C   0  0  0  0  0  0  0  0  0  0  0  0
  123.4518  103.6361  107.7314 C   0  0  0  0  0  0  0  0  0  0  0  0
  120.8691  104.4651  103.2712 C   0  0  0  0  0  0  0  0  0  0  0  0
  125.0975  105.4145  107.0342 C   0  0  0  0  0  0  0  0  0  0  0  0
  122.7231  106.0277  107.3792 C   0  0  0  0  0  0  0  0  0  0  0  0
  120.1592  104.2427  101.9404 C   0  0  0  0  0  0  0  0  0  0  0  0
  118.6277  105.2017  103.9025 C   0  0  0  0  0  0  0  0  0  0  0  0
  122.2920  104.5565  107.3237 C   0  0  1  0  0  0  0  0  0  0  0  0
  119.7932  104.3178  104.3552 C   0  0  2  0  0  0  0  0  0  0  0  0
  124.8945  108.3850  107.8042 C   0  0  0  0  0  0  0  0  0  0  0  0
  121.7331  104.1900  105.9456 C   0  0  0  0  0  0  0  0  0  0  0  0
  120.3048  104.7042  105.7341 C   0  0  2  0  0  0  0  0  0  0  0  0
  123.9513  106.2402  106.5556 N   0  0  1  0  0  0  0  0  0  0  0  0
  118.2697  105.0645  106.8271 N   0  0  0  0  0  0  0  0  0  0  0  0
  119.4068  104.1986  106.7459 N   0  0  0  0  0  0  0  0  0  0  0  0
  117.5361  104.0524  101.7924 O   0  0  0  0  0  0  0  0  0  0  0  0
  118.6097  106.3354  101.5231 O   0  0  0  0  0  0  0  0  0  0  0  0
  123.0915  108.5801  105.9232 O   0  0  0  0  0  0  0  0  0  0  0  0
  125.4457  107.9107  105.2944 O   0  0  0  0  0  0  0  0  0  0  0  0
  118.5614  105.0193  102.1253 S   0  0  0  0  0  0  0  0  0  0  0  0
  124.3226  107.8760  106.2041 S   0  0  0  0  0  0  0  0  0  0  0  0
  125.5524  103.3329  107.3633 H   0  0  0  0  0  0  0  0  0  0  0  0
  124.6064  103.6421  105.9065 H   0  0  0  0  0  0  0  0  0  0  0  0
  123.1688  102.5814  107.5698 H   0  0  0  0  0  0  0  0  0  0  0  0
  123.6496  103.7369  108.8117 H   0  0  0  0  0  0  0  0  0  0  0  0
  121.6877  103.7510  103.4065 H   0  0  0  0  0  0  0  0  0  0  0  0
  121.2981  105.4746  103.2982 H   0  0  0  0  0  0  0  0  0  0  0  0
  125.3218  105.6700  108.0759 H   0  0  0  0  0  0  0  0  0  0  0  0
  125.9854  105.6278  106.4272 H   0  0  0  0  0  0  0  0  0  0  0  0
  121.9217  106.6882  107.0175 H   0  0  0  0  0  0  0  0  0  0  0  0
  122.9398  106.3014  108.4213 H   0  0  0  0  0  0  0  0  0  0  0  0
  120.6936  104.6896  101.0997 H   0  0  0  0  0  0  0  0  0  0  0  0
  119.9956  103.1768  101.7572 H   0  0  0  0  0  0  0  0  0  0  0  0
  117.6751  104.8904  104.3375 H   0  0  0  0  0  0  0  0  0  0  0  0
  118.8089  106.2588  104.1203 H   0  0  0  0  0  0  0  0  0  0  0  0
  121.4765  104.4147  108.0638 H   0  0  0  0  0  0  0  0  0  0  0  0
  119.4588  103.2716  104.3777 H   0  0  0  0  0  0  0  0  0  0  0  0
  125.1791  109.4370  107.7496 H   0  0  0  0  0  0  0  0  0  0  0  0
  124.0835  108.2450  108.5204 H   0  0  0  0  0  0  0  0  0  0  0  0
  125.7541  107.7698  108.0743 H   0  0  0  0  0  0  0  0  0  0  0  0
  122.3949  104.6178  105.1843 H   0  0  0  0  0  0  0  0  0  0  0  0
  121.7679  103.1007  105.8305 H   0  0  0  0  0  0  0  0  0  0  0  0
  120.2905  105.7968  105.8223 H   0  0  0  0  0  0  0  0  0  0  0  0
  118.2281  105.4800  107.7573 H   0  0  0  0  0  0  0  0  0  0  0  0
  118.3929  105.8424  106.1801 H   0  0  0  0  0  0  0  0  0  0  0  0
  119.0856  103.2597  106.4953 H   0  0  0  0  0  0  0  0  0  0  0  0
  1  2  1  0  0  0  0
  1  4  1  0  0  0  0
  2  8  1  0  0  0  0
  3  6  1  0  0  0  0
  3  9  1  0  0  0  0
  4 13  1  0  0  0  0
  5  8  1  0  0  0  0
  5 13  1  0  0  0  0
  6 20  1  0  0  0  0
  7  9  1  0  0  0  0
  7 20  1  0  0  0  0
  8 11  1  0  0  0  0
  9 12  1  0  0  0  0
 10 21  1  0  0  0  0
 11 12  1  0  0  0  0
 12 15  1  0  0  0  0
 13 21  1  0  0  0  0
 14 15  1  0  0  0  0
 16 20  2  0  0  0  0
 17 20  2  0  0  0  0
 18 21  2  0  0  0  0
 19 21  2  0  0  0  0
  1 22  1  0  0  0  0
  1 23  1  0  0  0  0
  2 24  1  0  0  0  0
  2 25  1  0  0  0  0
  3 26  1  0  0  0  0
  3 27  1  0  0  0  0
  4 28  1  0  0  0  0
  4 29  1  0  0  0  0
  5 30  1  0  0  0  0
  5 31  1  0  0  0  0
  6 32  1  0  0  0  0
  6 33  1  0  0  0  0
  7 34  1  0  0  0  0
  7 35  1  0  0  0  0
  8 36  1  0  0  0  0
  9 37  1  0  0  0  0
 10 38  1  0  0  0  0
 10 39  1  0  0  0  0
 10 40  1  0  0  0  0
 11 41  1  0  0  0  0
 11 42  1  0  0  0  0
 12 43  1  0  0  0  0
 14 44  1  0  0  0  0
 14 45  1  0  0  0  0
 15 46  1  0  0  0  0
M  END
> <FRED Chemgauss4 score>
-5.981710

$$$$
C41047746	P88350758
  -OEChem-05182014473D

 19 20  0     1  0  0  0  0  0999 V2000
  124.2766  107.0860  106.3185 C   0  0  0  0  0  0  0  0  0  0  0  0
  125.0268  104.3720  108.2107 C   0  0  0  0  0  0  0  0  0  0  0  0
  126.3898  104.8132  108.6659 C   0  0  0  0  0  0  0  0  0  0  0  0
  125.7963  105.3839  107.4077 C   0  0  0  0  0  0  0  0  0  0  0  0
  125.3501  106.8043  107.3659 C   0  0  1  0  0  0  0  0  0  0  0  0
  122.4337  107.0409  105.2579 N   0  5  0  0  0  0  0  0  0  0  0  0
  123.0518  106.5273  106.3510 N   0  0  0  0  0  0  0  0  0  0  0  0
  124.4659  107.9164  105.2754 N   0  0  0  0  0  0  0  0  0  0  0  0
  123.2833  107.8754  104.6116 N   0  0  0  0  0  0  0  0  0  0  0  0
  126.5467  107.7008  107.1748 N   0  3  0  0  0  0  0  0  0  0  0  0
  124.9276  103.3665  107.8206 H   0  0  0  0  0  0  0  0  0  0  0  0
  124.1699  104.7215  108.7734 H   0  0  0  0  0  0  0  0  0  0  0  0
  126.4466  105.4583  109.5341 H   0  0  0  0  0  0  0  0  0  0  0  0
  127.2032  104.1032  108.5804 H   0  0  0  0  0  0  0  0  0  0  0  0
  126.2165  105.0616  106.4626 H   0  0  0  0  0  0  0  0  0  0  0  0
  124.9563  107.1151  108.3546 H   0  0  0  0  0  0  0  0  0  0  0  0
  127.1504  107.6460  107.9917 H   0  0  0  0  0  0  0  0  0  0  0  0
  126.2379  108.6622  107.0500 H   0  0  0  0  0  0  0  0  0  0  0  0
  127.0680  107.4065  106.3522 H   0  0  0  0  0  0  0  0  0  0  0  0
  1  5  1  0  0  0  0
  1  7  2  0  0  0  0
  1  8  1  0  0  0  0
  2  3  1  0  0  0  0
  2  4  1  0  0  0  0
  3  4  1  0  0  0  0
  4  5  1  0  0  0  0
  5 10  1  0  0  0  0
  6  7  1  0  0  0  0
  6  9  1  0  0  0  0
  8  9  2  0  0  0  0
  2 11  1  0  0  0  0
  2 12  1  0  0  0  0
  3 13  1  0  0  0  0
  3 14  1  0  0  0  0
  4 15  1  0  0  0  0
  5 16  1  0  0  0  0
 10 17  1  0  0  0  0
 10 18  1  0  0  0  0
 10 19  1  0  0  0  0
M  CHG  2   6  -1  10   1
M  END
> <FRED Chemgauss4 score>
-5.977880

$$$$
C36264814	P53889379
  -OEChem-05182014473D

 19 19  0     1  0  0  0  0  0999 V2000
  125.6667  104.8406  108.6403 C   0  0  0  0  0  0  0  0  0  0  0  0
  124.3916  104.5836  107.8831 C   0  0  2  0  0  0  0  0  0  0  0  0
  125.4190  105.5357  107.3314 C   0  0  1  0  0  0  0  0  0  0  0  0
  123.7639  109.1628  106.6173 C   0  0  0  0  0  0  0  0  0  0  0  0
  123.1169  105.0765  108.4125 N   0  0  0  0  0  0  0  0  0  0  0  0
  125.1994  106.9907  107.2587 N   0  0  0  0  0  0  0  0  0  0  0  0
  123.2185  106.8121  105.6036 O   0  0  0  0  0  0  0  0  0  0  0  0
  125.3337  107.9880  104.8966 O   0  0  0  0  0  0  0  0  0  0  0  0
  124.3649  107.6419  105.9188 S   0  0  0  0  0  0  0  0  0  0  0  0
  125.6198  105.4276  109.5500 H   0  0  0  0  0  0  0  0  0  0  0  0
  126.4091  104.0518  108.6592 H   0  0  0  0  0  0  0  0  0  0  0  0
  124.3114  103.6216  107.3864 H   0  0  0  0  0  0  0  0  0  0  0  0
  125.9957  105.1935  106.4789 H   0  0  0  0  0  0  0  0  0  0  0  0
  123.1980  109.6940  105.8504 H   0  0  0  0  0  0  0  0  0  0  0  0
  123.1235  108.9220  107.4672 H   0  0  0  0  0  0  0  0  0  0  0  0
  124.6209  109.7558  106.9399 H   0  0  0  0  0  0  0  0  0  0  0  0
  122.8247  104.7436  109.3029 H   0  0  0  0  0  0  0  0  0  0  0  0
  122.5081  105.5528  107.7867 H   0  0  0  0  0  0  0  0  0  0  0  0
  125.9741  107.5498  107.6397 H   0  0  0  0  0  0  0  0  0  0  0  0
  1  2  1  0  0  0  0
  1  3  1  0  0  0  0
  2  3  1  0  0  0  0
  2  5  1  0  0  0  0
  3  6  1  0  0  0  0
  4  9  1  0  0  0  0
  6  9  1  0  0  0  0
  7  9  2  0  0  0  0
  8  9  2  0  0  0  0
  1 10  1  0  0  0  0
  1 11  1  0  0  0  0
  2 12  1  0  0  0  0
  3 13  1  0  0  0  0
  4 14  1  0  0  0  0
  4 15  1  0  0  0  0
  4 16  1  0  0  0  0
  5 17  1  0  0  0  0
  5 18  1  0  0  0  0
  6 19  1  0  0  0  0
M  END
> <FRED Chemgauss4 score>
-5.973822

$$$$
C82591648	P129083677
  -OEChem-05182014473D

 26 26  0     0  0  0  0  0  0999 V2000
  126.2665  105.9209  107.2609 C   0  0  0  0  0  0  0  0  0  0  0  0
  124.6426  106.0054  108.5942 C   0  0  0  0  0  0  0  0  0  0  0  0
  126.0171  105.3127  108.6538 C   0  0  0  0  0  0  0  0  0  0  0  0
  120.2946  105.3280  107.3031 C   0  0  0  0  0  0  0  0  0  0  0  0
  122.1286  105.2830  105.8344 C   0  0  0  0  0  0  0  0  0  0  0  0
  123.1017  106.1358  105.0438 C   0  0  0  0  0  0  0  0  0  0  0  0
  124.7823  106.1017  107.0999 N   0  0  0  0  0  0  0  0  0  0  0  0
  126.8580  105.9768  109.6409 N   0  0  0  0  0  0  0  0  0  0  0  0
  125.0134  107.9018  105.2764 O   0  0  0  0  0  0  0  0  0  0  0  0
  123.0592  107.9989  106.8755 O   0  0  0  0  0  0  0  0  0  0  0  0
  121.2071  106.1048  106.5395 O   0  0  0  0  0  0  0  0  0  0  0  0
  124.0182  107.2350  106.0974 S   0  0  0  0  0  0  0  0  0  0  0  0
  126.8207  106.8581  107.2057 H   0  0  0  0  0  0  0  0  0  0  0  0
  126.6652  105.2129  106.5303 H   0  0  0  0  0  0  0  0  0  0  0  0
  123.8065  105.3615  108.8774 H   0  0  0  0  0  0  0  0  0  0  0  0
  124.5399  106.9767  109.0781 H   0  0  0  0  0  0  0  0  0  0  0  0
  126.0061  104.2117  108.7110 H   0  0  0  0  0  0  0  0  0  0  0  0
  119.6034  105.9902  107.8301 H   0  0  0  0  0  0  0  0  0  0  0  0
  120.8472  104.7154  108.0200 H   0  0  0  0  0  0  0  0  0  0  0  0
  119.7309  104.6779  106.6297 H   0  0  0  0  0  0  0  0  0  0  0  0
  121.5557  104.6353  105.1635 H   0  0  0  0  0  0  0  0  0  0  0  0
  122.6472  104.6506  106.5614 H   0  0  0  0  0  0  0  0  0  0  0  0
  122.5869  106.7651  104.3121 H   0  0  0  0  0  0  0  0  0  0  0  0
  123.8388  105.5107  104.5322 H   0  0  0  0  0  0  0  0  0  0  0  0
  127.8310  106.0635  109.4445 H   0  0  0  0  0  0  0  0  0  0  0  0
  126.4786  106.1342  110.5488 H   0  0  0  0  0  0  0  0  0  0  0  0
  1  3  1  0  0  0  0
  1  7  1  0  0  0  0
  2  3  1  0  0  0  0
  2  7  1  0  0  0  0
  3  8  1  0  0  0  0
  4 11  1  0  0  0  0
  5  6  1  0  0  0  0
  5 11  1  0  0  0  0
  6 12  1  0  0  0  0
  7 12  1  0  0  0  0
  9 12  2  0  0  0  0
 10 12  2  0  0  0  0
  1 13  1  0  0  0  0
  1 14  1  0  0  0  0
  2 15  1  0  0  0  0
  2 16  1  0  0  0  0
  3 17  1  0  0  0  0
  4 18  1  0  0  0  0
  4 19  1  0  0  0  0
  4 20  1  0  0  0  0
  5 21  1  0  0  0  0
  5 22  1  0  0  0  0
  6 23  1  0  0  0  0
  6 24  1  0  0  0  0
  8 25  1  0  0  0  0
  8 26  1  0  0  0  0
M  END
> <FRED Chemgauss4 score>
-5.970430

$$$$
C82838441	P129490404
  -OEChem-05182014473D

 21 21  0     1  0  0  0  0  0999 V2000
  123.3572  104.4011  106.6379 C   0  0  0  0  0  0  0  0  0  0  0  0
  121.1836  104.5564  106.3093 C   0  0  0  0  0  0  0  0  0  0  0  0
  123.0259  105.5806  106.0137 C   0  0  0  0  0  0  0  0  0  0  0  0
  124.8836  107.1782  107.9200 C   0  0  0  0  0  0  0  0  0  0  0  0
  123.9486  106.6968  105.5670 C   0  0  2  0  0  0  0  0  0  0  0  0
  125.1962  106.8329  106.4645 C   0  0  1  0  0  0  0  0  0  0  0  0
  121.6714  105.6713  105.8123 N   0  0  0  0  0  0  0  0  0  0  0  0
  122.1666  103.7559  106.8212 N   0  0  0  0  0  0  0  0  0  0  0  0
  126.0806  107.8367  105.9097 N   0  0  0  0  0  0  0  0  0  0  0  0
  123.2419  107.9354  105.5037 O   0  0  0  0  0  0  0  0  0  0  0  0
  124.2964  103.9742  106.9589 H   0  0  0  0  0  0  0  0  0  0  0  0
  120.1413  104.2707  106.3298 H   0  0  0  0  0  0  0  0  0  0  0  0
  124.3102  108.1064  107.9976 H   0  0  0  0  0  0  0  0  0  0  0  0
  125.8108  107.3143  108.4884 H   0  0  0  0  0  0  0  0  0  0  0  0
  124.3182  106.3801  108.4129 H   0  0  0  0  0  0  0  0  0  0  0  0
  124.2582  106.4766  104.5365 H   0  0  0  0  0  0  0  0  0  0  0  0
  125.7695  105.8982  106.4450 H   0  0  0  0  0  0  0  0  0  0  0  0
  122.0364  102.8517  107.2549 H   0  0  0  0  0  0  0  0  0  0  0  0
  126.1403  107.9274  104.9130 H   0  0  0  0  0  0  0  0  0  0  0  0
  126.7542  108.2704  106.5127 H   0  0  0  0  0  0  0  0  0  0  0  0
  123.8830  108.6021  105.2144 H   0  0  0  0  0  0  0  0  0  0  0  0
  1  3  2  0  0  0  0
  1  8  1  0  0  0  0
  2  7  2  0  0  0  0
  2  8  1  0  0  0  0
  3  5  1  0  0  0  0
  3  7  1  0  0  0  0
  4  6  1  0  0  0  0
  5  6  1  0  0  0  0
  5 10  1  0  0  0  0
  6  9  1  0  0  0  0
  1 11  1  0  0  0  0
  2 12  1  0  0  0  0
  4 13  1  0  0  0  0
  4 14  1  0  0  0  0
  4 15  1  0  0  0  0
  5 16  1  0  0  0  0
  6 17  1  0  0  0  0
  8 18  1  0  0  0  0
  9 19  1  0  0  0  0
  9 20  1  0  0  0  0
 10 21  1  0  0  0  0
M  END
> <FRED Chemgauss4 score>
-5.969490

$$$$
C87694178	P137171372
  -OEChem-05182014473D

 15 15  0     0  0  0  0  0  0999 V2000
  123.3832  106.9490  106.0410 C   0  0  0  0  0  0  0  0  0  0  0  0
  122.0373  105.0120  106.1024 C   0  0  0  0  0  0  0  0  0  0  0  0
  124.3626  108.0254  106.2914 C   0  0  0  0  0  0  0  0  0  0  0  0
  122.5365  106.9113  105.0343 N   0  0  0  0  0  0  0  0  0  0  0  0
  121.7464  105.7757  105.0708 N   0  0  0  0  0  0  0  0  0  0  0  0
  120.6072  103.1382  105.4976 N   0  0  0  0  0  0  0  0  0  0  0  0
  121.4290  103.8346  106.3975 N   0  0  0  0  0  0  0  0  0  0  0  0
  125.4534  107.9136  105.3777 O   0  0  0  0  0  0  0  0  0  0  0  0
  123.2901  105.6103  107.1093 S   0  0  0  0  0  0  0  0  0  0  0  0
  123.9178  109.0285  106.1695 H   0  0  0  0  0  0  0  0  0  0  0  0
  124.7689  107.9818  107.3170 H   0  0  0  0  0  0  0  0  0  0  0  0
  119.7764  102.7972  105.9790 H   0  0  0  0  0  0  0  0  0  0  0  0
  121.1061  102.3094  105.1767 H   0  0  0  0  0  0  0  0  0  0  0  0
  121.7139  103.2878  107.2299 H   0  0  0  0  0  0  0  0  0  0  0  0
  126.0609  108.6394  105.5860 H   0  0  0  0  0  0  0  0  0  0  0  0
  1  3  1  0  0  0  0
  1  4  2  0  0  0  0
  1  9  1  0  0  0  0
  2  5  2  0  0  0  0
  2  7  1  0  0  0  0
  2  9  1  0  0  0  0
  3  8  1  0  0  0  0
  4  5  1  0  0  0  0
  6  7  1  0  0  0  0
  3 10  1  0  0  0  0
  3 11  1  0  0  0  0
  6 12  1  0  0  0  0
  6 13  1  0  0  0  0
  7 14  1  0  0  0  0
  8 15  1  0  0  0  0
M  END
> <FRED Chemgauss4 score>
-5.966627

$$$$
C87602094	P137029746
  -OEChem-05182014473D

 21 22  0     1  0  0  0  0  0999 V2000
  124.6320  106.2394  105.5052 C   0  0  0  0  0  0  0  0  0  0  0  0
  123.5496  107.0134  105.8309 C   0  0  0  0  0  0  0  0  0  0  0  0
  122.2266  106.5084  106.2493 C   0  0  0  0  0  0  0  0  0  0  0  0
  120.2110  105.3520  106.6583 C   0  0  0  0  0  0  0  0  0  0  0  0
  117.7587  104.9661  106.1783 C   0  0  0  0  0  0  0  0  0  0  0  0
  119.0630  104.3702  106.7022 C   0  0  1  0  0  0  0  0  0  0  0  0
  125.1779  108.2985  105.3067 N   0  5  0  0  0  0  0  0  0  0  0  0
  125.6660  107.0318  105.1731 N   0  0  0  0  0  0  0  0  0  0  0  0
  123.8751  108.3123  105.7115 N   0  0  0  0  0  0  0  0  0  0  0  0
  121.4386  107.1754  107.0655 N   0  0  0  0  0  0  0  0  0  0  0  0
  120.2568  106.4966  107.3062 N   0  0  0  0  0  0  0  0  0  0  0  0
  119.3440  103.1190  105.9329 N   0  3  0  0  0  0  0  0  0  0  0  0
  121.5963  105.0080  105.7076 S   0  0  0  0  0  0  0  0  0  0  0  0
  124.7008  105.1598  105.4989 H   0  0  0  0  0  0  0  0  0  0  0  0
  117.8549  105.3249  105.1475 H   0  0  0  0  0  0  0  0  0  0  0  0
  116.9549  104.2217  106.1971 H   0  0  0  0  0  0  0  0  0  0  0  0
  117.4425  105.8137  106.7967 H   0  0  0  0  0  0  0  0  0  0  0  0
  118.9033  104.0310  107.7324 H   0  0  0  0  0  0  0  0  0  0  0  0
  119.3954  102.3178  106.5644 H   0  0  0  0  0  0  0  0  0  0  0  0
  120.2333  103.2001  105.4367 H   0  0  0  0  0  0  0  0  0  0  0  0
  118.6040  102.9485  105.2497 H   0  0  0  0  0  0  0  0  0  0  0  0
  1  2  1  0  0  0  0
  1  8  2  0  0  0  0
  2  3  1  0  0  0  0
  2  9  2  0  0  0  0
  3 10  2  0  0  0  0
  3 13  1  0  0  0  0
  4  6  1  0  0  0  0
  4 11  2  0  0  0  0
  4 13  1  0  0  0  0
  5  6  1  0  0  0  0
  6 12  1  0  0  0  0
  7  8  1  0  0  0  0
  7  9  1  0  0  0  0
 10 11  1  0  0  0  0
  1 14  1  0  0  0  0
  5 15  1  0  0  0  0
  5 16  1  0  0  0  0
  5 17  1  0  0  0  0
  6 18  1  0  0  0  0
 12 19  1  0  0  0  0
 12 20  1  0  0  0  0
 12 21  1  0  0  0  0
M  CHG  2   7  -1  12   1
M  END
> <FRED Chemgauss4 score>
-5.962770

$$$$
C37321360	P55502532
  -OEChem-05182014473D

 45 46  0     1  0  0  0  0  0999 V2000
  119.1726  104.9317  101.7687 C   0  0  0  0  0  0  0  0  0  0  0  0
  120.1840  104.9547  102.7224 C   0  0  0  0  0  0  0  0  0  0  0  0
  119.8619  105.1134  104.0657 C   0  0  0  0  0  0  0  0  0  0  0  0
  117.8653  105.0704  102.2063 C   0  0  0  0  0  0  0  0  0  0  0  0
  118.5237  105.2442  104.4004 C   0  0  0  0  0  0  0  0  0  0  0  0
  123.3900  108.0544  107.3980 C   0  0  0  0  0  0  0  0  0  0  0  0
  122.4950  107.5382  106.2739 C   0  0  0  0  0  0  0  0  0  0  0  0
  124.8490  108.1351  106.9621 C   0  0  0  0  0  0  0  0  0  0  0  0
  124.4564  106.2862  105.2894 C   0  0  0  0  0  0  0  0  0  0  0  0
  122.9923  106.1988  105.7240 C   0  0  2  0  0  0  0  0  0  0  0  0
  125.3494  106.7982  106.4178 C   0  0  1  0  0  0  0  0  0  0  0  0
  121.6026  104.8103  102.2796 C   0  0  0  0  0  0  0  0  0  0  0  0
  116.7538  105.0491  101.2108 C   0  0  0  0  0  0  0  0  0  0  0  0
  118.1155  105.4160  105.8271 C   0  0  0  0  0  0  0  0  0  0  0  0
  121.2488  103.7518  105.6847 C   0  0  0  0  0  0  0  0  0  0  0  0
  120.9411  105.1398  105.1264 C   0  0  1  0  0  0  0  0  0  0  0  0
  117.5135  105.2266  103.5022 N   0  0  0  0  0  0  0  0  0  0  0  0
  122.1597  105.7605  104.6303 N   0  0  0  0  0  0  0  0  0  0  0  0
  126.6729  106.9511  105.9165 O   0  0  0  0  0  0  0  0  0  0  0  0
  119.4008  104.8087  100.7146 H   0  0  0  0  0  0  0  0  0  0  0  0
  123.0453  109.0438  107.7194 H   0  0  0  0  0  0  0  0  0  0  0  0
  123.3052  107.3891  108.2662 H   0  0  0  0  0  0  0  0  0  0  0  0
  121.4689  107.4359  106.6484 H   0  0  0  0  0  0  0  0  0  0  0  0
  122.4649  108.2871  105.4712 H   0  0  0  0  0  0  0  0  0  0  0  0
  124.9673  108.9142  106.1975 H   0  0  0  0  0  0  0  0  0  0  0  0
  125.4762  108.4503  107.8047 H   0  0  0  0  0  0  0  0  0  0  0  0
  124.8177  105.3043  104.9568 H   0  0  0  0  0  0  0  0  0  0  0  0
  124.5607  106.9475  104.4174 H   0  0  0  0  0  0  0  0  0  0  0  0
  122.9202  105.4481  106.5358 H   0  0  0  0  0  0  0  0  0  0  0  0
  125.3817  106.0583  107.2263 H   0  0  0  0  0  0  0  0  0  0  0  0
  122.0362  105.7942  102.0656 H   0  0  0  0  0  0  0  0  0  0  0  0
  122.2109  104.3206  103.0503 H   0  0  0  0  0  0  0  0  0  0  0  0
  121.6751  104.1924  101.3758 H   0  0  0  0  0  0  0  0  0  0  0  0
  116.3965  104.0234  101.0604 H   0  0  0  0  0  0  0  0  0  0  0  0
  115.9100  105.6669  101.5436 H   0  0  0  0  0  0  0  0  0  0  0  0
  117.0796  105.4503  100.2425 H   0  0  0  0  0  0  0  0  0  0  0  0
  118.0861  106.4801  106.0879 H   0  0  0  0  0  0  0  0  0  0  0  0
  117.1244  104.9833  106.0103 H   0  0  0  0  0  0  0  0  0  0  0  0
  118.8153  104.9092  106.5030 H   0  0  0  0  0  0  0  0  0  0  0  0
  121.5864  103.0740  104.8930 H   0  0  0  0  0  0  0  0  0  0  0  0
  122.0388  103.8091  106.4421 H   0  0  0  0  0  0  0  0  0  0  0  0
  120.3740  103.3002  106.1659 H   0  0  0  0  0  0  0  0  0  0  0  0
  120.6099  105.7703  105.9607 H   0  0  0  0  0  0  0  0  0  0  0  0
  121.9200  106.5650  104.0545 H   0  0  0  0  0  0  0  0  0  0  0  0
  127.2200  107.2461  106.6615 H   0  0  0  0  0  0  0  0  0  0  0  0
  1  2  1  0  0  0  0
  1  4  2  0  0  0  0
  2  3  2  0  0  0  0
  2 12  1  0  0  0  0
  3  5  1  0  0  0  0
  3 16  1  0  0  0  0
  4 13  1  0  0  0  0
  4 17  1  0  0  0  0
  5 14  1  0  0  0  0
  5 17  2  0  0  0  0
  6  7  1  0  0  0  0
  6  8  1  0  0  0  0
  7 10  1  0  0  0  0
  8 11  1  0  0  0  0
  9 10  1  0  0  0  0
  9 11  1  0  0  0  0
 10 18  1  0  0  0  0
 11 19  1  0  0  0  0
 15 16  1  0  0  0  0
 16 18  1  0  0  0  0
  1 20  1  0  0  0  0
  6 21  1  0  0  0  0
  6 22  1  0  0  0  0
  7 23  1  0  0  0  0
  7 24  1  0  0  0  0
  8 25  1  0  0  0  0
  8 26  1  0  0  0  0
  9 27  1  0  0  0  0
  9 28  1  0  0  0  0
 10 29  1  0  0  0  0
 11 30  1  0  0  0  0
 12 31  1  0  0  0  0
 12 32  1  0  0  0  0
 12 33  1  0  0  0  0
 13 34  1  0  0  0  0
 13 35  1  0  0  0  0
 13 36  1  0  0  0  0
 14 37  1  0  0  0  0
 14 38  1  0  0  0  0
 14 39  1  0  0  0  0
 15 40  1  0  0  0  0
 15 41  1  0  0  0  0
 15 42  1  0  0  0  0
 16 43  1  0  0  0  0
 18 44  1  0  0  0  0
 19 45  1  0  0  0  0
M  END
> <FRED Chemgauss4 score>
-5.956880

$$$$
C16951178	P112299492
  -OEChem-05182014473D

 20 21  0     1  0  0  0  0  0999 V2000
  122.2399  105.6960  106.2104 C   0  0  0  0  0  0  0  0  0  0  0  0
  126.1300  104.9248  108.4576 C   0  0  0  0  0  0  0  0  0  0  0  0
  123.0403  106.9107  105.8322 C   0  0  1  0  0  0  0  0  0  0  0  0
  125.0501  105.7069  107.7637 C   0  0  1  0  0  0  0  0  0  0  0  0
  124.5307  106.8114  105.5281 C   0  0  2  0  0  0  0  0  0  0  0  0
  125.3892  106.8383  106.8003 C   0  0  1  0  0  0  0  0  0  0  0  0
  122.1947  106.2490  104.8857 O   0  0  0  0  0  0  0  0  0  0  0  0
  125.4369  104.4050  107.3120 O   0  0  0  0  0  0  0  0  0  0  0  0
  124.8969  107.9003  104.6829 O   0  0  0  0  0  0  0  0  0  0  0  0
  125.2211  108.0785  107.4843 O   0  0  0  0  0  0  0  0  0  0  0  0
  122.7526  104.7521  106.3414 H   0  0  0  0  0  0  0  0  0  0  0  0
  121.3689  105.8341  106.8377 H   0  0  0  0  0  0  0  0  0  0  0  0
  127.1609  105.2256  108.3248 H   0  0  0  0  0  0  0  0  0  0  0  0
  125.9027  104.4841  109.4194 H   0  0  0  0  0  0  0  0  0  0  0  0
  122.7344  107.8787  106.2030 H   0  0  0  0  0  0  0  0  0  0  0  0
  124.0887  105.8173  108.2448 H   0  0  0  0  0  0  0  0  0  0  0  0
  124.7291  105.8842  104.9782 H   0  0  0  0  0  0  0  0  0  0  0  0
  126.4473  106.7644  106.5253 H   0  0  0  0  0  0  0  0  0  0  0  0
  125.8463  107.8071  104.5099 H   0  0  0  0  0  0  0  0  0  0  0  0
  125.8298  108.0614  108.2386 H   0  0  0  0  0  0  0  0  0  0  0  0
  1  3  1  0  0  0  0
  1  7  1  0  0  0  0
  2  4  1  0  0  0  0
  2  8  1  0  0  0  0
  3  5  1  0  0  0  0
  3  7  1  0  0  0  0
  4  6  1  0  0  0  0
  4  8  1  0  0  0  0
  5  6  1  0  0  0  0
  5  9  1  0  0  0  0
  6 10  1  0  0  0  0
  1 11  1  0  0  0  0
  1 12  1  0  0  0  0
  2 13  1  0  0  0  0
  2 14  1  0  0  0  0
  3 15  1  0  0  0  0
  4 16  1  0  0  0  0
  5 17  1  0  0  0  0
  6 18  1  0  0  0  0
  9 19  1  0  0  0  0
 10 20  1  0  0  0  0
M  END
> <FRED Chemgauss4 score>
-5.952619

$$$$
C86233004	P145216779
  -OEChem-05182014473D

 28 29  0     1  0  0  0  0  0999 V2000
  120.1255  106.3317  105.7806 C   0  0  0  0  0  0  0  0  0  0  0  0
  120.8820  105.1600  103.3072 C   0  0  0  0  0  0  0  0  0  0  0  0
  121.4298  106.3979  105.3287 C   0  0  0  0  0  0  0  0  0  0  0  0
  121.7887  105.8169  104.1142 C   0  0  0  0  0  0  0  0  0  0  0  0
  119.5618  105.0908  103.7557 C   0  0  0  0  0  0  0  0  0  0  0  0
  119.1865  105.6715  104.9816 C   0  0  0  0  0  0  0  0  0  0  0  0
  123.7367  106.7411  104.9215 C   0  0  0  0  0  0  0  0  0  0  0  0
  122.6378  107.0170  105.9603 C   0  0  1  0  0  0  0  0  0  0  0  0
  118.7089  104.9295   98.6476 C   0  0  0  0  0  0  0  0  0  0  0  0
  118.0855  104.6381  100.0049 C   0  0  0  0  0  0  0  0  0  0  0  0
  119.1491  104.5757  101.0954 C   0  0  0  0  0  0  0  0  0  0  0  0
  123.1446  106.0184  103.8794 N   0  0  0  0  0  0  0  0  0  0  0  0
  124.8974  107.1132  105.0001 O   0  0  0  0  0  0  0  0  0  0  0  0
  122.4683  108.4031  106.1310 O   0  0  0  0  0  0  0  0  0  0  0  0
  118.3927  104.2344  102.6974 S   0  0  0  0  0  0  0  0  0  0  0  0
  117.5595  105.6061  105.5738 Cl  0  0  0  0  0  0  0  0  0  0  0  0
  119.8508  106.7814  106.7295 H   0  0  0  0  0  0  0  0  0  0  0  0
  121.1974  104.7215  102.3659 H   0  0  0  0  0  0  0  0  0  0  0  0
  122.8863  106.5264  106.9066 H   0  0  0  0  0  0  0  0  0  0  0  0
  119.2620  105.8741   98.6646 H   0  0  0  0  0  0  0  0  0  0  0  0
  119.4065  104.1324   98.3721 H   0  0  0  0  0  0  0  0  0  0  0  0
  117.9418  104.9938   97.8693 H   0  0  0  0  0  0  0  0  0  0  0  0
  117.5426  103.6870   99.9457 H   0  0  0  0  0  0  0  0  0  0  0  0
  117.3522  105.4217  100.2307 H   0  0  0  0  0  0  0  0  0  0  0  0
  119.8770  103.7867  100.8806 H   0  0  0  0  0  0  0  0  0  0  0  0
  119.6896  105.5252  101.1627 H   0  0  0  0  0  0  0  0  0  0  0  0
  123.6394  105.6853  103.0604 H   0  0  0  0  0  0  0  0  0  0  0  0
  123.2806  108.7506  106.5436 H   0  0  0  0  0  0  0  0  0  0  0  0
  1  3  2  0  0  0  0
  1  6  1  0  0  0  0
  2  4  2  0  0  0  0
  2  5  1  0  0  0  0
  3  4  1  0  0  0  0
  3  8  1  0  0  0  0
  4 12  1  0  0  0  0
  5  6  2  0  0  0  0
  5 15  1  0  0  0  0
  6 16  1  0  0  0  0
  7  8  1  0  0  0  0
  7 12  1  0  0  0  0
  7 13  2  0  0  0  0
  8 14  1  0  0  0  0
  9 10  1  0  0  0  0
 10 11  1  0  0  0  0
 11 15  1  0  0  0  0
  1 17  1  0  0  0  0
  2 18  1  0  0  0  0
  8 19  1  0  0  0  0
  9 20  1  0  0  0  0
  9 21  1  0  0  0  0
  9 22  1  0  0  0  0
 10 23  1  0  0  0  0
 10 24  1  0  0  0  0
 11 25  1  0  0  0  0
 11 26  1  0  0  0  0
 12 27  1  0  0  0  0
 14 28  1  0  0  0  0
M  END
> <FRED Chemgauss4 score>
-5.948037

$$$$
C86453848	P135358716
  -OEChem-05182014473D

 24 25  0     0  0  0  0  0  0999 V2000
  124.4065  107.1922  106.0374 C   0  0  0  0  0  0  0  0  0  0  0  0
  123.3446  105.1195  106.9810 C   0  0  0  0  0  0  0  0  0  0  0  0
  122.1622  107.0200  106.4966 C   0  0  0  0  0  0  0  0  0  0  0  0
  125.8670  105.2584  108.7124 C   0  0  0  0  0  0  0  0  0  0  0  0
  124.9690  106.4986  108.5664 C   0  0  0  0  0  0  0  0  0  0  0  0
  126.0025  105.2385  107.1792 C   0  0  0  0  0  0  0  0  0  0  0  0
  124.6386  106.0241  107.1041 C   0  0  0  0  0  0  0  0  0  0  0  0
  120.9019  107.8369  106.5429 C   0  0  0  0  0  0  0  0  0  0  0  0
  123.1986  107.6108  105.8151 N   0  0  0  0  0  0  0  0  0  0  0  0
  122.1779  105.8457  107.0443 N   0  0  0  0  0  0  0  0  0  0  0  0
  120.8386  108.7237  107.7229 N   0  3  0  0  0  0  0  0  0  0  0  0
  125.4795  107.5574  105.5276 O   0  5  0  0  0  0  0  0  0  0  0  0
  123.3525  103.8928  106.8833 O   0  0  0  0  0  0  0  0  0  0  0  0
  126.7955  105.4086  109.2691 H   0  0  0  0  0  0  0  0  0  0  0  0
  125.3477  104.3838  109.1208 H   0  0  0  0  0  0  0  0  0  0  0  0
  124.1264  106.5417  109.2626 H   0  0  0  0  0  0  0  0  0  0  0  0
  125.5135  107.4487  108.6203 H   0  0  0  0  0  0  0  0  0  0  0  0
  126.8913  105.7751  106.8288 H   0  0  0  0  0  0  0  0  0  0  0  0
  126.0117  104.2407  106.7309 H   0  0  0  0  0  0  0  0  0  0  0  0
  120.0392  107.1765  106.5914 H   0  0  0  0  0  0  0  0  0  0  0  0
  120.8415  108.4671  105.6589 H   0  0  0  0  0  0  0  0  0  0  0  0
  121.5966  109.4176  107.7091 H   0  0  0  0  0  0  0  0  0  0  0  0
  120.9231  108.1881  108.5962 H   0  0  0  0  0  0  0  0  0  0  0  0
  119.9483  109.2362  107.7570 H   0  0  0  0  0  0  0  0  0  0  0  0
  1  7  1  0  0  0  0
  1  9  2  0  0  0  0
  1 12  1  0  0  0  0
  2  7  1  0  0  0  0
  2 10  1  0  0  0  0
  2 13  2  0  0  0  0
  3  8  1  0  0  0  0
  3  9  1  0  0  0  0
  3 10  2  0  0  0  0
  4  5  1  0  0  0  0
  4  6  1  0  0  0  0
  5  7  1  0  0  0  0
  6  7  1  0  0  0  0
  8 11  1  0  0  0  0
  4 14  1  0  0  0  0
  4 15  1  0  0  0  0
  5 16  1  0  0  0  0
  5 17  1  0  0  0  0
  6 18  1  0  0  0  0
  6 19  1  0  0  0  0
  8 20  1  0  0  0  0
  8 21  1  0  0  0  0
 11 22  1  0  0  0  0
 11 23  1  0  0  0  0
 11 24  1  0  0  0  0
M  CHG  2  11   1  12  -1
M  END
> <FRED Chemgauss4 score>
-5.947437

$$$$
C87600448	P137027764
  -OEChem-05182014473D

 29 30  0     1  0  0  0  0  0999 V2000
  118.8143  105.0100  106.4276 C   0  0  0  0  0  0  0  0  0  0  0  0
  124.7858  105.8160  106.3809 C   0  0  0  0  0  0  0  0  0  0  0  0
  117.8058  104.6800  105.5025 C   0  0  0  0  0  0  0  0  0  0  0  0
  123.5582  106.2206  105.9273 C   0  0  0  0  0  0  0  0  0  0  0  0
  119.7137  105.7544  105.7041 C   0  0  0  0  0  0  0  0  0  0  0  0
  116.5906  103.8846  105.7455 C   0  0  0  0  0  0  0  0  0  0  0  0
  119.7946  106.5006  103.3060 C   0  0  0  0  0  0  0  0  0  0  0  0
  121.0141  106.4085  106.1095 C   0  0  0  0  0  0  0  0  0  0  0  0
  122.2339  105.4859  105.9267 C   0  0  2  0  0  0  0  0  0  0  0  0
  124.9653  107.7975  105.5942 N   0  5  0  0  0  0  0  0  0  0  0  0
  125.6835  106.7963  106.1796 N   0  0  0  0  0  0  0  0  0  0  0  0
  123.6525  107.4655  105.4286 N   0  0  0  0  0  0  0  0  0  0  0  0
  118.0418  105.1743  104.2843 N   0  0  0  0  0  0  0  0  0  0  0  0
  119.2087  105.8226  104.4390 N   0  0  0  0  0  0  0  0  0  0  0  0
  122.1584  104.4450  107.0033 N   0  3  0  0  0  0  0  0  0  0  0  0
  118.8810  104.7448  107.4730 H   0  0  0  0  0  0  0  0  0  0  0  0
  125.0462  104.8703  106.8367 H   0  0  0  0  0  0  0  0  0  0  0  0
  115.7494  104.5247  106.0625 H   0  0  0  0  0  0  0  0  0  0  0  0
  116.2666  103.3319  104.8455 H   0  0  0  0  0  0  0  0  0  0  0  0
  116.7414  103.1214  106.5301 H   0  0  0  0  0  0  0  0  0  0  0  0
  120.4467  105.7918  102.7890 H   0  0  0  0  0  0  0  0  0  0  0  0
  119.0006  106.8467  102.6384 H   0  0  0  0  0  0  0  0  0  0  0  0
  120.3679  107.3629  103.6578 H   0  0  0  0  0  0  0  0  0  0  0  0
  120.9424  106.7611  107.1468 H   0  0  0  0  0  0  0  0  0  0  0  0
  121.1359  107.3157  105.5016 H   0  0  0  0  0  0  0  0  0  0  0  0
  122.1305  104.9190  104.9934 H   0  0  0  0  0  0  0  0  0  0  0  0
  122.3742  104.8607  107.9093 H   0  0  0  0  0  0  0  0  0  0  0  0
  122.8277  103.6981  106.8162 H   0  0  0  0  0  0  0  0  0  0  0  0
  121.2207  104.0450  107.0396 H   0  0  0  0  0  0  0  0  0  0  0  0
  1  3  1  0  0  0  0
  1  5  2  0  0  0  0
  2  4  1  0  0  0  0
  2 11  2  0  0  0  0
  3  6  1  0  0  0  0
  3 13  2  0  0  0  0
  4  9  1  0  0  0  0
  4 12  2  0  0  0  0
  5  8  1  0  0  0  0
  5 14  1  0  0  0  0
  7 14  1  0  0  0  0
  8  9  1  0  0  0  0
  9 15  1  0  0  0  0
 10 11  1  0  0  0  0
 10 12  1  0  0  0  0
 13 14  1  0  0  0  0
  1 16  1  0  0  0  0
  2 17  1  0  0  0  0
  6 18  1  0  0  0  0
  6 19  1  0  0  0  0
  6 20  1  0  0  0  0
  7 21  1  0  0  0  0
  7 22  1  0  0  0  0
  7 23  1  0  0  0  0
  8 24  1  0  0  0  0
  8 25  1  0  0  0  0
  9 26  1  0  0  0  0
 15 27  1  0  0  0  0
 15 28  1  0  0  0  0
 15 29  1  0  0  0  0
M  CHG  2  10  -1  15   1
M  END
> <FRED Chemgauss4 score>
-5.945649

$$$$
C41050725	P62314175
  -OEChem-05182014473D

 18 18  0     1  0  0  0  0  0999 V2000
  123.3087  106.7810  105.4194 C   0  0  0  0  0  0  0  0  0  0  0  0
  125.0333  107.3721  106.4359 C   0  0  0  0  0  0  0  0  0  0  0  0
  120.9138  106.7148  104.6117 C   0  0  0  0  0  0  0  0  0  0  0  0
  122.1694  105.9087  104.9379 C   0  0  2  0  0  0  0  0  0  0  0  0
  124.2589  106.3227  106.2864 N   0  0  0  0  0  0  0  0  0  0  0  0
  123.4466  108.0480  105.0230 N   0  0  0  0  0  0  0  0  0  0  0  0
  124.5569  108.4029  105.6874 N   0  0  0  0  0  0  0  0  0  0  0  0
  126.1482  107.5498  107.1747 N   0  0  0  0  0  0  0  0  0  0  0  0
  121.8699  104.8642  105.8903 N   0  0  0  0  0  0  0  0  0  0  0  0
  120.5560  107.2609  105.4914 H   0  0  0  0  0  0  0  0  0  0  0  0
  121.1207  107.4442  103.8205 H   0  0  0  0  0  0  0  0  0  0  0  0
  120.0977  106.0763  104.2553 H   0  0  0  0  0  0  0  0  0  0  0  0
  122.4776  105.3874  104.0232 H   0  0  0  0  0  0  0  0  0  0  0  0
  124.9205  109.3425  105.5817 H   0  0  0  0  0  0  0  0  0  0  0  0
  126.5192  106.8140  107.7947 H   0  0  0  0  0  0  0  0  0  0  0  0
  126.6311  108.4593  107.2295 H   0  0  0  0  0  0  0  0  0  0  0  0
  122.6234  104.4542  106.4125 H   0  0  0  0  0  0  0  0  0  0  0  0
  120.9637  104.4320  105.8661 H   0  0  0  0  0  0  0  0  0  0  0  0
  1  4  1  0  0  0  0
  1  5  1  0  0  0  0
  1  6  2  0  0  0  0
  2  5  2  0  0  0  0
  2  7  1  0  0  0  0
  2  8  1  0  0  0  0
  3  4  1  0  0  0  0
  4  9  1  0  0  0  0
  6  7  1  0  0  0  0
  3 10  1  0  0  0  0
  3 11  1  0  0  0  0
  3 12  1  0  0  0  0
  4 13  1  0  0  0  0
  7 14  1  0  0  0  0
  8 15  1  0  0  0  0
  8 16  1  0  0  0  0
  9 17  1  0  0  0  0
  9 18  1  0  0  0  0
M  END
> <FRED Chemgauss4 score>
-5.939776

$$$$
C37730151	P56098300
  -OEChem-05182014473D

 24 24  0     1  0  0  0  0  0999 V2000
  121.0045  104.1602  106.6938 C   0  0  0  0  0  0  0  0  0  0  0  0
  119.0157  103.9139  106.1095 C   0  0  0  0  0  0  0  0  0  0  0  0
  122.2972  107.1092  106.1274 C   0  0  0  0  0  0  0  0  0  0  0  0
  124.7574  106.8417  105.9397 C   0  0  0  0  0  0  0  0  0  0  0  0
  121.6274  106.7841  108.5412 C   0  0  0  0  0  0  0  0  0  0  0  0
  121.1583  106.7554  107.0845 C   0  0  2  0  0  0  0  0  0  0  0  0
  120.1025  103.2071  106.3160 N   0  0  0  0  0  0  0  0  0  0  0  0
  119.2701  105.2270  106.3561 N   0  0  0  0  0  0  0  0  0  0  0  0
  120.5441  105.4123  106.7340 N   0  0  0  0  0  0  0  0  0  0  0  0
  117.8546  103.3455  105.7113 N   0  0  0  0  0  0  0  0  0  0  0  0
  125.8062  106.2863  106.6521 N   0  0  0  0  0  0  0  0  0  0  0  0
  123.5354  106.6615  106.5945 N   0  0  0  0  0  0  0  0  0  0  0  0
  122.1194  107.7218  105.0769 O   0  0  0  0  0  0  0  0  0  0  0  0
  124.9101  107.4181  104.8646 O   0  0  0  0  0  0  0  0  0  0  0  0
  122.0282  103.9128  106.9447 H   0  0  0  0  0  0  0  0  0  0  0  0
  122.3941  106.0279  108.7439 H   0  0  0  0  0  0  0  0  0  0  0  0
  120.7912  106.6037  109.2258 H   0  0  0  0  0  0  0  0  0  0  0  0
  122.0606  107.7603  108.7862 H   0  0  0  0  0  0  0  0  0  0  0  0
  120.3974  107.5411  106.9789 H   0  0  0  0  0  0  0  0  0  0  0  0
  117.7819  102.3394  105.5062 H   0  0  0  0  0  0  0  0  0  0  0  0
  117.0162  103.9056  105.5041 H   0  0  0  0  0  0  0  0  0  0  0  0
  125.6137  105.8237  107.5342 H   0  0  0  0  0  0  0  0  0  0  0  0
  126.7622  106.3293  106.3156 H   0  0  0  0  0  0  0  0  0  0  0  0
  123.5622  106.1671  107.4821 H   0  0  0  0  0  0  0  0  0  0  0  0
  1  7  2  0  0  0  0
  1  9  1  0  0  0  0
  2  7  1  0  0  0  0
  2  8  2  0  0  0  0
  2 10  1  0  0  0  0
  3  6  1  0  0  0  0
  3 12  1  0  0  0  0
  3 13  2  0  0  0  0
  4 11  1  0  0  0  0
  4 12  1  0  0  0  0
  4 14  2  0  0  0  0
  5  6  1  0  0  0  0
  6  9  1  0  0  0  0
  8  9  1  0  0  0  0
  1 15  1  0  0  0  0
  5 16  1  0  0  0  0
  5 17  1  0  0  0  0
  5 18  1  0  0  0  0
  6 19  1  0  0  0  0
 10 20  1  0  0  0  0
 10 21  1  0  0  0  0
 11 22  1  0  0  0  0
 11 23  1  0  0  0  0
 12 24  1  0  0  0  0
M  END
> <FRED Chemgauss4 score>
-5.936431

$$$$
C05134886	P141865301
  -OEChem-05182014473D

 22 22  0     1  0  0  0  0  0999 V2000
  119.1756  103.6050  106.5304 C   0  0  0  0  0  0  0  0  0  0  0  0
  120.1411  103.6674  105.3800 C   0  0  2  0  0  0  0  0  0  0  0  0
  121.5871  104.0631  105.5902 C   0  0  0  0  0  0  0  0  0  0  0  0
  124.9014  106.8842  105.8232 C   0  0  0  0  0  0  0  0  0  0  0  0
  122.9845  105.5466  106.7602 C   0  0  0  0  0  0  0  0  0  0  0  0
  123.4690  106.4149  105.6047 C   0  0  1  0  0  0  0  0  0  0  0  0
  119.1965  104.7156  105.6197 O   0  0  0  0  0  0  0  0  0  0  0  0
  125.3079  107.6645  104.7039 O   0  0  0  0  0  0  0  0  0  0  0  0
  122.6338  107.5719  105.5190 O   0  0  0  0  0  0  0  0  0  0  0  0
  121.6431  105.1321  106.5236 O   0  0  0  0  0  0  0  0  0  0  0  0
  118.3417  102.9189  106.4599 H   0  0  0  0  0  0  0  0  0  0  0  0
  119.5458  103.7733  107.5332 H   0  0  0  0  0  0  0  0  0  0  0  0
  119.9850  103.0228  104.5266 H   0  0  0  0  0  0  0  0  0  0  0  0
  122.0352  104.3937  104.6484 H   0  0  0  0  0  0  0  0  0  0  0  0
  122.1624  103.2203  105.9845 H   0  0  0  0  0  0  0  0  0  0  0  0
  125.5883  106.0357  105.9088 H   0  0  0  0  0  0  0  0  0  0  0  0
  124.9791  107.5094  106.7182 H   0  0  0  0  0  0  0  0  0  0  0  0
  123.0086  106.0899  107.7100 H   0  0  0  0  0  0  0  0  0  0  0  0
  123.5927  104.6415  106.8554 H   0  0  0  0  0  0  0  0  0  0  0  0
  123.3776  105.8882  104.6480 H   0  0  0  0  0  0  0  0  0  0  0  0
  126.2204  107.9447  104.8773 H   0  0  0  0  0  0  0  0  0  0  0  0
  122.9603  108.0878  104.7671 H   0  0  0  0  0  0  0  0  0  0  0  0
  1  2  1  0  0  0  0
  1  7  1  0  0  0  0
  2  3  1  0  0  0  0
  2  7  1  0  0  0  0
  3 10  1  0  0  0  0
  4  6  1  0  0  0  0
  4  8  1  0  0  0  0
  5  6  1  0  0  0  0
  5 10  1  0  0  0  0
  6  9  1  0  0  0  0
  1 11  1  0  0  0  0
  1 12  1  0  0  0  0
  2 13  1  0  0  0  0
  3 14  1  0  0  0  0
  3 15  1  0  0  0  0
  4 16  1  0  0  0  0
  4 17  1  0  0  0  0
  5 18  1  0  0  0  0
  5 19  1  0  0  0  0
  6 20  1  0  0  0  0
  8 21  1  0  0  0  0
  9 22  1  0  0  0  0
M  END
> <FRED Chemgauss4 score>
-5.935274

$$$$
C38007993	P120930287
  -OEChem-05182014473D

 26 27  0     1  0  0  0  0  0999 V2000
  118.7826  104.0198  105.8604 C   0  0  0  0  0  0  0  0  0  0  0  0
  120.3357  105.1592  106.8598 C   0  0  0  0  0  0  0  0  0  0  0  0
  125.6531  106.1084  106.6710 C   0  0  0  0  0  0  0  0  0  0  0  0
  123.7462  106.7955  105.8110 C   0  0  0  0  0  0  0  0  0  0  0  0
  124.6601  105.0278  107.0774 C   0  0  0  0  0  0  0  0  0  0  0  0
  123.3366  105.5920  106.6050 C   0  0  1  0  0  0  0  0  0  0  0  0
  118.4075  106.4945  105.9438 C   0  0  0  0  0  0  0  0  0  0  0  0
  121.0929  106.3270  107.4200 C   0  0  0  0  0  0  0  0  0  0  0  0
  119.6955  103.1681  106.2697 N   0  0  0  0  0  0  0  0  0  0  0  0
  120.6836  103.8930  106.9056 N   0  0  0  0  0  0  0  0  0  0  0  0
  125.0923  107.0399  105.9545 N   0  0  0  0  0  0  0  0  0  0  0  0
  119.1451  105.2850  106.2107 N   0  0  0  0  0  0  0  0  0  0  0  0
  122.5047  105.9976  107.7614 N   0  3  0  0  0  0  0  0  0  0  0  0
  126.8433  106.0000  107.0223 O   0  5  0  0  0  0  0  0  0  0  0  0
  122.9618  107.4808  105.1666 O   0  0  0  0  0  0  0  0  0  0  0  0
  117.8735  103.7830  105.3262 H   0  0  0  0  0  0  0  0  0  0  0  0
  124.9023  104.1032  106.5395 H   0  0  0  0  0  0  0  0  0  0  0  0
  124.6996  104.8290  108.1540 H   0  0  0  0  0  0  0  0  0  0  0  0
  122.7598  104.8830  106.0057 H   0  0  0  0  0  0  0  0  0  0  0  0
  117.7330  106.6710  106.7857 H   0  0  0  0  0  0  0  0  0  0  0  0
  119.1052  107.3291  105.8314 H   0  0  0  0  0  0  0  0  0  0  0  0
  117.8402  106.3747  105.0166 H   0  0  0  0  0  0  0  0  0  0  0  0
  121.1274  107.1562  106.7051 H   0  0  0  0  0  0  0  0  0  0  0  0
  120.6254  106.6977  108.3386 H   0  0  0  0  0  0  0  0  0  0  0  0
  122.5096  105.2464  108.4677 H   0  0  0  0  0  0  0  0  0  0  0  0
  122.9344  106.8132  108.2235 H   0  0  0  0  0  0  0  0  0  0  0  0
  1  9  2  0  0  0  0
  1 12  1  0  0  0  0
  2  8  1  0  0  0  0
  2 10  2  0  0  0  0
  2 12  1  0  0  0  0
  3  5  1  0  0  0  0
  3 11  2  0  0  0  0
  3 14  1  0  0  0  0
  4  6  1  0  0  0  0
  4 11  1  0  0  0  0
  4 15  2  0  0  0  0
  5  6  1  0  0  0  0
  6 13  1  0  0  0  0
  7 12  1  0  0  0  0
  8 13  1  0  0  0  0
  9 10  1  0  0  0  0
  1 16  1  0  0  0  0
  5 17  1  0  0  0  0
  5 18  1  0  0  0  0
  6 19  1  0  0  0  0
  7 20  1  0  0  0  0
  7 21  1  0  0  0  0
  7 22  1  0  0  0  0
  8 23  1  0  0  0  0
  8 24  1  0  0  0  0
 13 25  1  0  0  0  0
 13 26  1  0  0  0  0
M  CHG  2  13   1  14  -1
M  END
> <FRED Chemgauss4 score>
-5.926326

$$$$
C43444164	P128429507
  -OEChem-05182014473D

 28 27  0     0  0  0  0  0  0999 V2000
  125.4403  106.9175  107.3342 C   0  0  0  0  0  0  0  0  0  0  0  0
  118.4539  104.5547  106.2020 C   0  0  0  0  0  0  0  0  0  0  0  0
  119.5646  103.5372  106.4266 C   0  0  0  0  0  0  0  0  0  0  0  0
  121.5486  104.8126  105.9792 C   0  0  0  0  0  0  0  0  0  0  0  0
  122.7661  105.4971  106.5773 C   0  0  0  0  0  0  0  0  0  0  0  0
  117.1910  103.9319  105.6194 C   0  0  0  0  0  0  0  0  0  0  0  0
  120.7461  104.1278  106.9936 N   0  0  0  0  0  0  0  0  0  0  0  0
  123.5408  106.1857  105.5807 N   0  0  0  0  0  0  0  0  0  0  0  0
  123.5734  108.5827  106.5647 O   0  0  0  0  0  0  0  0  0  0  0  0
  125.3673  107.9138  104.9244 O   0  0  0  0  0  0  0  0  0  0  0  0
  117.5126  103.3248  104.3749 O   0  0  0  0  0  0  0  0  0  0  0  0
  124.4610  107.5813  106.0067 S   0  0  0  0  0  0  0  0  0  0  0  0
  126.0890  107.7090  107.7128 H   0  0  0  0  0  0  0  0  0  0  0  0
  124.7664  106.5679  108.1178 H   0  0  0  0  0  0  0  0  0  0  0  0
  126.0345  106.0902  106.9433 H   0  0  0  0  0  0  0  0  0  0  0  0
  118.2052  105.0358  107.1562 H   0  0  0  0  0  0  0  0  0  0  0  0
  118.7999  105.3600  105.5416 H   0  0  0  0  0  0  0  0  0  0  0  0
  119.2296  102.7624  107.1233 H   0  0  0  0  0  0  0  0  0  0  0  0
  119.8503  103.0526  105.4875 H   0  0  0  0  0  0  0  0  0  0  0  0
  121.8368  104.0666  105.2317 H   0  0  0  0  0  0  0  0  0  0  0  0
  120.8988  105.5520  105.5009 H   0  0  0  0  0  0  0  0  0  0  0  0
  122.4567  106.2431  107.3158 H   0  0  0  0  0  0  0  0  0  0  0  0
  123.4278  104.7762  107.0684 H   0  0  0  0  0  0  0  0  0  0  0  0
  116.7853  103.1623  106.2833 H   0  0  0  0  0  0  0  0  0  0  0  0
  116.4246  104.6941  105.4462 H   0  0  0  0  0  0  0  0  0  0  0  0
  121.3280  103.4055  107.4326 H   0  0  0  0  0  0  0  0  0  0  0  0
  123.9811  105.5824  104.8521 H   0  0  0  0  0  0  0  0  0  0  0  0
  116.6909  102.9389  104.0311 H   0  0  0  0  0  0  0  0  0  0  0  0
  1 12  1  0  0  0  0
  2  3  1  0  0  0  0
  2  6  1  0  0  0  0
  3  7  1  0  0  0  0
  4  5  1  0  0  0  0
  4  7  1  0  0  0  0
  5  8  1  0  0  0  0
  6 11  1  0  0  0  0
  8 12  1  0  0  0  0
  9 12  2  0  0  0  0
 10 12  2  0  0  0  0
  1 13  1  0  0  0  0
  1 14  1  0  0  0  0
  1 15  1  0  0  0  0
  2 16  1  0  0  0  0
  2 17  1  0  0  0  0
  3 18  1  0  0  0  0
  3 19  1  0  0  0  0
  4 20  1  0  0  0  0
  4 21  1  0  0  0  0
  5 22  1  0  0  0  0
  5 23  1  0  0  0  0
  6 24  1  0  0  0  0
  6 25  1  0  0  0  0
  7 26  1  0  0  0  0
  8 27  1  0  0  0  0
 11 28  1  0  0  0  0
M  END
> <FRED Chemgauss4 score>
-5.925777

$$$$
cmpd10_frontiers2018	P10000039
  -OEChem-05182014473D

 48 50  0     1  0  0  0  0  0999 V2000
  125.6722  103.4722  109.9215 C   0  0  0  0  0  0  0  0  0  0  0  0
  119.5431  103.7304  106.1705 C   0  0  0  0  0  0  0  0  0  0  0  0
  124.3395  103.6643  109.5575 C   0  0  0  0  0  0  0  0  0  0  0  0
  126.6779  104.2160  109.3043 C   0  0  0  0  0  0  0  0  0  0  0  0
  119.4057  103.3058  104.8490 C   0  0  0  0  0  0  0  0  0  0  0  0
  119.4058  105.0820  106.4867 C   0  0  0  0  0  0  0  0  0  0  0  0
  124.0124  104.6001  108.5762 C   0  0  0  0  0  0  0  0  0  0  0  0
  126.3509  105.1518  108.3230 C   0  0  0  0  0  0  0  0  0  0  0  0
  119.1309  104.2328  103.8436 C   0  0  0  0  0  0  0  0  0  0  0  0
  119.1310  106.0090  105.4813 C   0  0  0  0  0  0  0  0  0  0  0  0
  125.0181  105.3439  107.9589 C   0  0  0  0  0  0  0  0  0  0  0  0
  118.9936  105.5844  104.1598 C   0  0  0  0  0  0  0  0  0  0  0  0
  125.6530  107.5123  106.8679 C   0  0  0  0  0  0  0  0  0  0  0  0
  122.5164  107.3210  106.0796 C   0  0  0  0  0  0  0  0  0  0  0  0
  117.6692  108.1749  105.5532 C   0  0  0  0  0  0  0  0  0  0  0  0
  118.0323  107.8557  106.9697 C   0  0  0  0  0  0  0  0  0  0  0  0
  118.9856  107.4790  105.8498 C   0  0  0  0  0  0  0  0  0  0  0  0
  118.6994  106.5568  103.0648 C   0  0  0  0  0  0  0  0  0  0  0  0
  120.2480  108.2928  105.7094 C   0  0  0  0  0  0  0  0  0  0  0  0
  124.6642  106.3586  106.8946 C   0  0  2  0  0  0  0  0  0  0  0  0
  125.3131  108.5350  107.7276 N   0  0  0  0  0  0  0  0  0  0  0  0
  121.2951  107.7821  106.5637 N   0  0  0  0  0  0  0  0  0  0  0  0
  123.3387  106.8866  107.1161 N   0  0  0  0  0  0  0  0  0  0  0  0
  126.6580  107.5287  106.1606 O   0  0  0  0  0  0  0  0  0  0  0  0
  122.8305  107.2999  104.8902 O   0  0  0  0  0  0  0  0  0  0  0  0
  125.9265  102.7445  110.6866 H   0  0  0  0  0  0  0  0  0  0  0  0
  119.7568  103.0084  106.9533 H   0  0  0  0  0  0  0  0  0  0  0  0
  123.5561  103.0860  110.0388 H   0  0  0  0  0  0  0  0  0  0  0  0
  127.7155  104.0676  109.5882 H   0  0  0  0  0  0  0  0  0  0  0  0
  119.5124  102.2533  104.6030 H   0  0  0  0  0  0  0  0  0  0  0  0
  119.5147  105.4020  107.5197 H   0  0  0  0  0  0  0  0  0  0  0  0
  122.9713  104.7429  108.2988 H   0  0  0  0  0  0  0  0  0  0  0  0
  127.1411  105.7267  107.8474 H   0  0  0  0  0  0  0  0  0  0  0  0
  119.0255  103.8916  102.8172 H   0  0  0  0  0  0  0  0  0  0  0  0
  116.8667  107.6043  105.0994 H   0  0  0  0  0  0  0  0  0  0  0  0
  117.6904  109.2155  105.2505 H   0  0  0  0  0  0  0  0  0  0  0  0
  118.2966  108.6819  107.6197 H   0  0  0  0  0  0  0  0  0  0  0  0
  117.4732  107.0710  107.4661 H   0  0  0  0  0  0  0  0  0  0  0  0
  117.6165  106.6667  102.9354 H   0  0  0  0  0  0  0  0  0  0  0  0
  119.1272  107.5426  103.2848 H   0  0  0  0  0  0  0  0  0  0  0  0
  119.1335  106.2254  102.1134 H   0  0  0  0  0  0  0  0  0  0  0  0
  120.0660  109.3344  105.9907 H   0  0  0  0  0  0  0  0  0  0  0  0
  120.6151  108.2650  104.6793 H   0  0  0  0  0  0  0  0  0  0  0  0
  124.6610  105.8806  105.9073 H   0  0  0  0  0  0  0  0  0  0  0  0
  124.4851  108.5022  108.3138 H   0  0  0  0  0  0  0  0  0  0  0  0
  125.8937  109.3633  107.8066 H   0  0  0  0  0  0  0  0  0  0  0  0
  121.1326  107.7582  107.5656 H   0  0  0  0  0  0  0  0  0  0  0  0
  123.0129  106.9850  108.0726 H   0  0  0  0  0  0  0  0  0  0  0  0
  1  3  1  0  0  0  0
  1  4  2  0  0  0  0
  2  5  1  0  0  0  0
  2  6  2  0  0  0  0
  3  7  2  0  0  0  0
  4  8  1  0  0  0  0
  5  9  2  0  0  0  0
  6 10  1  0  0  0  0
  7 11  1  0  0  0  0
  8 11  2  0  0  0  0
  9 12  1  0  0  0  0
 10 12  2  0  0  0  0
 10 17  1  0  0  0  0
 11 20  1  0  0  0  0
 12 18  1  0  0  0  0
 13 20  1  0  0  0  0
 13 21  1  0  0  0  0
 13 24  2  0  0  0  0
 14 22  1  0  0  0  0
 14 23  1  0  0  0  0
 14 25  2  0  0  0  0
 15 16  1  0  0  0  0
 15 17  1  0  0  0  0
 16 17  1  0  0  0  0
 17 19  1  0  0  0  0
 19 22  1  0  0  0  0
 20 23  1  0  0  0  0
  1 26  1  0  0  0  0
  2 27  1  0  0  0  0
  3 28  1  0  0  0  0
  4 29  1  0  0  0  0
  5 30  1  0  0  0  0
  6 31  1  0  0  0  0
  7 32  1  0  0  0  0
  8 33  1  0  0  0  0
  9 34  1  0  0  0  0
 15 35  1  0  0  0  0
 15 36  1  0  0  0  0
 16 37  1  0  0  0  0
 16 38  1  0  0  0  0
 18 39  1  0  0  0  0
 18 40  1  0  0  0  0
 18 41  1  0  0  0  0
 19 42  1  0  0  0  0
 19 43  1  0  0  0  0
 20 44  1  0  0  0  0
 21 45  1  0  0  0  0
 21 46  1  0  0  0  0
 22 47  1  0  0  0  0
 23 48  1  0  0  0  0
M  END
> <FRED Chemgauss4 score>
-5.920190

$$$$
C36763891	P58578312
  -OEChem-05182014473D

 24 24  0     1  0  0  0  0  0999 V2000
  123.2103  106.6684  105.8322 C   0  0  0  0  0  0  0  0  0  0  0  0
  121.2731  106.5256  105.1205 C   0  0  0  0  0  0  0  0  0  0  0  0
  124.9007  107.5310  107.5027 C   0  0  0  0  0  0  0  0  0  0  0  0
  118.8015  106.8681  105.4776 C   0  0  0  0  0  0  0  0  0  0  0  0
  119.6124  105.4278  103.5742 C   0  0  0  0  0  0  0  0  0  0  0  0
  124.5761  107.1635  106.0369 C   0  0  2  0  0  0  0  0  0  0  0  0
  119.9159  106.6442  104.4524 C   0  0  0  0  0  0  0  0  0  0  0  0
  122.3298  107.2878  104.9938 N   0  0  0  0  0  0  0  0  0  0  0  0
  122.7506  105.5798  106.4562 N   0  0  0  0  0  0  0  0  0  0  0  0
  124.9027  108.3063  105.1848 N   0  0  0  0  0  0  0  0  0  0  0  0
  121.4389  105.4822  105.9752 O   0  0  0  0  0  0  0  0  0  0  0  0
  124.1946  108.2841  107.8693 H   0  0  0  0  0  0  0  0  0  0  0  0
  124.8451  106.6617  108.1676 H   0  0  0  0  0  0  0  0  0  0  0  0
  125.9120  107.9426  107.5953 H   0  0  0  0  0  0  0  0  0  0  0  0
  118.7187  106.0333  106.1822 H   0  0  0  0  0  0  0  0  0  0  0  0
  117.8336  106.9768  104.9762 H   0  0  0  0  0  0  0  0  0  0  0  0
  118.9819  107.7791  106.0592 H   0  0  0  0  0  0  0  0  0  0  0  0
  119.5861  104.5100  104.1722 H   0  0  0  0  0  0  0  0  0  0  0  0
  120.3842  105.3055  102.8065 H   0  0  0  0  0  0  0  0  0  0  0  0
  118.6479  105.5213  103.0633 H   0  0  0  0  0  0  0  0  0  0  0  0
  125.3323  106.4008  105.7449 H   0  0  0  0  0  0  0  0  0  0  0  0
  119.9270  107.5220  103.7927 H   0  0  0  0  0  0  0  0  0  0  0  0
  124.5416  108.3150  104.2567 H   0  0  0  0  0  0  0  0  0  0  0  0
  125.6268  108.9207  105.4852 H   0  0  0  0  0  0  0  0  0  0  0  0
  1  6  1  0  0  0  0
  1  8  1  0  0  0  0
  1  9  2  0  0  0  0
  2  7  1  0  0  0  0
  2  8  2  0  0  0  0
  2 11  1  0  0  0  0
  3  6  1  0  0  0  0
  4  7  1  0  0  0  0
  5  7  1  0  0  0  0
  6 10  1  0  0  0  0
  9 11  1  0  0  0  0
  3 12  1  0  0  0  0
  3 13  1  0  0  0  0
  3 14  1  0  0  0  0
  4 15  1  0  0  0  0
  4 16  1  0  0  0  0
  4 17  1  0  0  0  0
  5 18  1  0  0  0  0
  5 19  1  0  0  0  0
  5 20  1  0  0  0  0
  6 21  1  0  0  0  0
  7 22  1  0  0  0  0
 10 23  1  0  0  0  0
 10 24  1  0  0  0  0
M  END
> <FRED Chemgauss4 score>
-5.912399

$$$$
C03843087	P04506273
  -OEChem-05182014473D

 23 23  0     1  0  0  0  0  0999 V2000
  121.4844  105.9823  105.5794 C   0  0  0  0  0  0  0  0  0  0  0  0
  124.8975  107.1018  105.8766 C   0  0  0  0  0  0  0  0  0  0  0  0
  122.6921  106.4058  106.3511 C   0  0  1  0  0  0  0  0  0  0  0  0
  125.5136  106.0174  106.7502 C   0  0  2  0  0  0  0  0  0  0  0  0
  123.1581  105.2954  107.2875 C   0  0  1  0  0  0  0  0  0  0  0  0
  124.5449  105.6027  107.8574 C   0  0  1  0  0  0  0  0  0  0  0  0
  120.9827  104.7499  105.8953 N   0  0  0  0  0  0  0  0  0  0  0  0
  123.6547  106.6685  105.3344 O   0  0  0  0  0  0  0  0  0  0  0  0
  126.7165  106.5271  107.3146 O   0  0  0  0  0  0  0  0  0  0  0  0
  122.2265  105.1832  108.3624 O   0  0  0  0  0  0  0  0  0  0  0  0
  125.0305  104.4232  108.4998 O   0  0  0  0  0  0  0  0  0  0  0  0
  120.8000  106.9547  104.4065 S   0  0  0  0  0  0  0  0  0  0  0  0
  124.7574  108.0374  106.4329 H   0  0  0  0  0  0  0  0  0  0  0  0
  125.5704  107.3383  105.0450 H   0  0  0  0  0  0  0  0  0  0  0  0
  122.4418  107.3289  106.8877 H   0  0  0  0  0  0  0  0  0  0  0  0
  125.7738  105.1476  106.1361 H   0  0  0  0  0  0  0  0  0  0  0  0
  123.1785  104.3273  106.7685 H   0  0  0  0  0  0  0  0  0  0  0  0
  124.4821  106.3770  108.6320 H   0  0  0  0  0  0  0  0  0  0  0  0
  121.4180  104.1767  106.6104 H   0  0  0  0  0  0  0  0  0  0  0  0
  120.1662  104.3592  105.4362 H   0  0  0  0  0  0  0  0  0  0  0  0
  127.2975  106.7555  106.5718 H   0  0  0  0  0  0  0  0  0  0  0  0
  122.2198  106.0426  108.8107 H   0  0  0  0  0  0  0  0  0  0  0  0
  125.0853  103.7412  107.8137 H   0  0  0  0  0  0  0  0  0  0  0  0
  1  3  1  0  0  0  0
  1  7  1  0  0  0  0
  1 12  2  0  0  0  0
  2  4  1  0  0  0  0
  2  8  1  0  0  0  0
  3  5  1  0  0  0  0
  3  8  1  0  0  0  0
  4  6  1  0  0  0  0
  4  9  1  0  0  0  0
  5  6  1  0  0  0  0
  5 10  1  0  0  0  0
  6 11  1  0  0  0  0
  2 13  1  0  0  0  0
  2 14  1  0  0  0  0
  3 15  1  0  0  0  0
  4 16  1  0  0  0  0
  5 17  1  0  0  0  0
  6 18  1  0  0  0  0
  7 19  1  0  0  0  0
  7 20  1  0  0  0  0
  9 21  1  0  0  0  0
 10 22  1  0  0  0  0
 11 23  1  0  0  0  0
M  END
> <FRED Chemgauss4 score>
-5.912366

$$$$
C45626663	P120958679
  -OEChem-05182014473D

 24 24  0     1  0  0  0  0  0999 V2000
  125.2383  106.0022  106.2219 C   0  0  0  0  0  0  0  0  0  0  0  0
  123.0739  106.7446  105.9471 C   0  0  0  0  0  0  0  0  0  0  0  0
  124.4293  105.2001  107.2029 C   0  0  0  0  0  0  0  0  0  0  0  0
  122.9901  105.6489  106.9774 C   0  0  2  0  0  0  0  0  0  0  0  0
  118.4121  104.0742  106.1241 C   0  0  0  0  0  0  0  0  0  0  0  0
  120.7451  104.9106  106.5574 C   0  0  0  0  0  0  0  0  0  0  0  0
  119.8986  103.7642  106.0098 C   0  0  1  0  0  0  0  0  0  0  0  0
  124.3915  106.8712  105.5823 N   0  0  0  0  0  0  0  0  0  0  0  0
  122.1597  104.5844  106.4336 N   0  0  0  0  0  0  0  0  0  0  0  0
  126.4437  105.8893  106.0542 O   0  0  0  0  0  0  0  0  0  0  0  0
  122.1269  107.3820  105.5098 O   0  0  0  0  0  0  0  0  0  0  0  0
  120.1789  102.5886  106.7673 O   0  0  0  0  0  0  0  0  0  0  0  0
  124.5848  104.1313  107.0236 H   0  0  0  0  0  0  0  0  0  0  0  0
  124.7590  105.4381  108.2195 H   0  0  0  0  0  0  0  0  0  0  0  0
  122.5539  106.0434  107.9009 H   0  0  0  0  0  0  0  0  0  0  0  0
  118.1272  104.2808  107.1602 H   0  0  0  0  0  0  0  0  0  0  0  0
  118.1429  104.9377  105.5057 H   0  0  0  0  0  0  0  0  0  0  0  0
  117.8155  103.2300  105.7618 H   0  0  0  0  0  0  0  0  0  0  0  0
  120.5506  105.8361  106.0048 H   0  0  0  0  0  0  0  0  0  0  0  0
  120.5195  105.0876  107.6140 H   0  0  0  0  0  0  0  0  0  0  0  0
  120.1561  103.5616  104.9638 H   0  0  0  0  0  0  0  0  0  0  0  0
  124.7110  107.5489  104.8990 H   0  0  0  0  0  0  0  0  0  0  0  0
  122.3492  103.7185  106.9383 H   0  0  0  0  0  0  0  0  0  0  0  0
  119.6405  101.8795  106.3839 H   0  0  0  0  0  0  0  0  0  0  0  0
  1  3  1  0  0  0  0
  1  8  1  0  0  0  0
  1 10  2  0  0  0  0
  2  4  1  0  0  0  0
  2  8  1  0  0  0  0
  2 11  2  0  0  0  0
  3  4  1  0  0  0  0
  4  9  1  0  0  0  0
  5  7  1  0  0  0  0
  6  7  1  0  0  0  0
  6  9  1  0  0  0  0
  7 12  1  0  0  0  0
  3 13  1  0  0  0  0
  3 14  1  0  0  0  0
  4 15  1  0  0  0  0
  5 16  1  0  0  0  0
  5 17  1  0  0  0  0
  5 18  1  0  0  0  0
  6 19  1  0  0  0  0
  6 20  1  0  0  0  0
  7 21  1  0  0  0  0
  8 22  1  0  0  0  0
  9 23  1  0  0  0  0
 12 24  1  0  0  0  0
M  END
> <FRED Chemgauss4 score>
-5.909910

$$$$
C54503976	P82019619
  -OEChem-05182014473D

 29 30  0     1  0  0  0  0  0999 V2000
  122.0380  104.8965  106.0977 C   0  0  0  0  0  0  0  0  0  0  0  0
  123.6625  106.3328  106.0140 C   0  0  0  0  0  0  0  0  0  0  0  0
  123.5302  108.2978  108.1258 C   0  0  0  0  0  0  0  0  0  0  0  0
  123.8237  109.2854  107.0312 C   0  0  0  0  0  0  0  0  0  0  0  0
  124.7956  108.1755  107.3227 C   0  0  0  0  0  0  0  0  0  0  0  0
  121.2152  103.7551  106.5358 C   0  0  0  0  0  0  0  0  0  0  0  0
  125.0120  103.7176  107.3891 C   0  0  0  0  0  0  0  0  0  0  0  0
  123.8451  104.5914  107.8162 C   0  0  0  0  0  0  0  0  0  0  0  0
  124.9655  107.0543  106.3572 C   0  0  2  0  0  0  0  0  0  0  0  0
  121.7832  105.7234  105.1090 N   0  0  0  0  0  0  0  0  0  0  0  0
  122.8167  106.6373  105.0558 N   0  0  0  0  0  0  0  0  0  0  0  0
  123.2117  105.2431  106.6952 N   0  0  0  0  0  0  0  0  0  0  0  0
  125.6265  107.4851  105.1302 N   0  0  0  0  0  0  0  0  0  0  0  0
  123.5965  108.6463  109.1491 H   0  0  0  0  0  0  0  0  0  0  0  0
  122.7495  107.5680  107.9501 H   0  0  0  0  0  0  0  0  0  0  0  0
  123.2395  109.2177  106.1217 H   0  0  0  0  0  0  0  0  0  0  0  0
  124.0868  110.2950  107.3216 H   0  0  0  0  0  0  0  0  0  0  0  0
  125.7273  108.4381  107.8092 H   0  0  0  0  0  0  0  0  0  0  0  0
  121.5020  102.8297  106.0081 H   0  0  0  0  0  0  0  0  0  0  0  0
  121.3114  103.5642  107.6192 H   0  0  0  0  0  0  0  0  0  0  0  0
  120.1391  103.9232  106.3526 H   0  0  0  0  0  0  0  0  0  0  0  0
  124.6880  102.9379  106.6916 H   0  0  0  0  0  0  0  0  0  0  0  0
  125.4605  103.2309  108.2607 H   0  0  0  0  0  0  0  0  0  0  0  0
  125.7876  104.3092  106.8914 H   0  0  0  0  0  0  0  0  0  0  0  0
  124.1790  105.3680  108.5135 H   0  0  0  0  0  0  0  0  0  0  0  0
  123.0850  103.9950  108.3334 H   0  0  0  0  0  0  0  0  0  0  0  0
  125.6606  106.3014  106.7815 H   0  0  0  0  0  0  0  0  0  0  0  0
  125.5054  106.9296  104.3104 H   0  0  0  0  0  0  0  0  0  0  0  0
  126.3295  108.1900  105.1971 H   0  0  0  0  0  0  0  0  0  0  0  0
  1  6  1  0  0  0  0
  1 10  2  0  0  0  0
  1 12  1  0  0  0  0
  2  9  1  0  0  0  0
  2 11  2  0  0  0  0
  2 12  1  0  0  0  0
  3  4  1  0  0  0  0
  3  5  1  0  0  0  0
  4  5  1  0  0  0  0
  5  9  1  0  0  0  0
  7  8  1  0  0  0  0
  8 12  1  0  0  0  0
  9 13  1  0  0  0  0
 10 11  1  0  0  0  0
  3 14  1  0  0  0  0
  3 15  1  0  0  0  0
  4 16  1  0  0  0  0
  4 17  1  0  0  0  0
  5 18  1  0  0  0  0
  6 19  1  0  0  0  0
  6 20  1  0  0  0  0
  6 21  1  0  0  0  0
  7 22  1  0  0  0  0
  7 23  1  0  0  0  0
  7 24  1  0  0  0  0
  8 25  1  0  0  0  0
  8 26  1  0  0  0  0
  9 27  1  0  0  0  0
 13 28  1  0  0  0  0
 13 29  1  0  0  0  0
M  END
> <FRED Chemgauss4 score>
-5.909476

$$$$
C85170204	P133262360
  -OEChem-05182014473D

 32 33  0     1  0  0  0  0  0999 V2000
  125.4469  106.6207  105.9818 C   0  0  0  0  0  0  0  0  0  0  0  0
  126.7507  105.3092  107.0357 C   0  0  0  0  0  0  0  0  0  0  0  0
  124.6474  105.9469  106.8748 C   0  0  0  0  0  0  0  0  0  0  0  0
  119.6544  104.1473  104.8918 C   0  0  0  0  0  0  0  0  0  0  0  0
  118.8620  103.7871  106.1173 C   0  0  0  0  0  0  0  0  0  0  0  0
  120.3649  103.7558  106.1578 C   0  0  0  0  0  0  0  0  0  0  0  0
  125.1508  104.1813  108.5923 C   0  0  0  0  0  0  0  0  0  0  0  0
  121.1163  104.7763  106.9431 C   0  0  0  0  0  0  0  0  0  0  0  0
  122.5600  107.4163  106.8920 C   0  0  0  0  0  0  0  0  0  0  0  0
  123.1560  106.0239  107.1518 C   0  0  1  0  0  0  0  0  0  0  0  0
  126.7550  106.2189  106.0868 N   0  0  0  0  0  0  0  0  0  0  0  0
  125.4966  105.1101  107.5424 N   0  0  0  0  0  0  0  0  0  0  0  0
  122.2783  107.6331  105.4969 N   0  0  0  0  0  0  0  0  0  0  0  0
  122.4262  105.0221  106.3654 N   0  0  0  0  0  0  0  0  0  0  0  0
  125.1494  107.3750  105.2677 H   0  0  0  0  0  0  0  0  0  0  0  0
  127.6151  104.7669  107.3941 H   0  0  0  0  0  0  0  0  0  0  0  0
  119.6462  103.4490  104.0640 H   0  0  0  0  0  0  0  0  0  0  0  0
  119.6841  105.1897  104.5991 H   0  0  0  0  0  0  0  0  0  0  0  0
  118.3601  104.5880  106.6461 H   0  0  0  0  0  0  0  0  0  0  0  0
  118.3236  102.8475  106.1101 H   0  0  0  0  0  0  0  0  0  0  0  0
  120.8470  102.7860  106.1847 H   0  0  0  0  0  0  0  0  0  0  0  0
  125.2396  104.7043  109.5481 H   0  0  0  0  0  0  0  0  0  0  0  0
  124.1265  103.8283  108.4433 H   0  0  0  0  0  0  0  0  0  0  0  0
  125.8325  103.3269  108.5579 H   0  0  0  0  0  0  0  0  0  0  0  0
  121.2639  104.4358  107.9724 H   0  0  0  0  0  0  0  0  0  0  0  0
  120.5760  105.7274  106.9607 H   0  0  0  0  0  0  0  0  0  0  0  0
  121.6072  107.5322  107.4212 H   0  0  0  0  0  0  0  0  0  0  0  0
  123.2222  108.2240  107.2213 H   0  0  0  0  0  0  0  0  0  0  0  0
  122.9891  105.7795  108.2090 H   0  0  0  0  0  0  0  0  0  0  0  0
  122.2430  108.5758  105.1451 H   0  0  0  0  0  0  0  0  0  0  0  0
  121.9240  106.8694  104.9445 H   0  0  0  0  0  0  0  0  0  0  0  0
  122.9648  104.1606  106.3578 H   0  0  0  0  0  0  0  0  0  0  0  0
  1  3  2  0  0  0  0
  1 11  1  0  0  0  0
  2 11  2  0  0  0  0
  2 12  1  0  0  0  0
  3 10  1  0  0  0  0
  3 12  1  0  0  0  0
  4  5  1  0  0  0  0
  4  6  1  0  0  0  0
  5  6  1  0  0  0  0
  6  8  1  0  0  0  0
  7 12  1  0  0  0  0
  8 14  1  0  0  0  0
  9 10  1  0  0  0  0
  9 13  1  0  0  0  0
 10 14  1  0  0  0  0
  1 15  1  0  0  0  0
  2 16  1  0  0  0  0
  4 17  1  0  0  0  0
  4 18  1  0  0  0  0
  5 19  1  0  0  0  0
  5 20  1  0  0  0  0
  6 21  1  0  0  0  0
  7 22  1  0  0  0  0
  7 23  1  0  0  0  0
  7 24  1  0  0  0  0
  8 25  1  0  0  0  0
  8 26  1  0  0  0  0
  9 27  1  0  0  0  0
  9 28  1  0  0  0  0
 10 29  1  0  0  0  0
 13 30  1  0  0  0  0
 13 31  1  0  0  0  0
 14 32  1  0  0  0  0
M  END
> <FRED Chemgauss4 score>
-5.899807

$$$$
C72344410	P112473852
  -OEChem-05182014473D

 28 28  0     1  0  0  0  0  0999 V2000
  125.9950  105.6887  108.1098 C   0  0  0  0  0  0  0  0  0  0  0  0
  123.1232  107.2776  105.8412 C   0  0  0  0  0  0  0  0  0  0  0  0
  122.2469  104.0772  106.1358 C   0  0  0  0  0  0  0  0  0  0  0  0
  121.7547  105.4102  106.6891 C   0  0  0  0  0  0  0  0  0  0  0  0
  124.4924  104.0425  107.0667 C   0  0  0  0  0  0  0  0  0  0  0  0
  123.5861  106.2658  108.1262 C   0  0  0  0  0  0  0  0  0  0  0  0
  124.6068  105.1160  108.1549 C   0  0  2  0  0  0  0  0  0  0  0  0
  124.2370  108.2629  106.0888 C   0  0  0  0  0  0  0  0  0  0  0  0
  123.1845  103.3861  107.0250 N   0  0  0  0  0  0  0  0  0  0  0  0
  122.8347  106.3809  106.8719 N   0  0  0  0  0  0  0  0  0  0  0  0
  126.5012  106.0137  109.3461 N   0  0  0  0  0  0  0  0  0  0  0  0
  126.6094  105.8290  107.0552 O   0  0  0  0  0  0  0  0  0  0  0  0
  122.5186  107.3086  104.7659 O   0  0  0  0  0  0  0  0  0  0  0  0
  121.3714  103.4243  106.0089 H   0  0  0  0  0  0  0  0  0  0  0  0
  122.6643  104.1925  105.1244 H   0  0  0  0  0  0  0  0  0  0  0  0
  121.0518  105.8490  105.9962 H   0  0  0  0  0  0  0  0  0  0  0  0
  121.2597  105.2536  107.6355 H   0  0  0  0  0  0  0  0  0  0  0  0
  124.7420  104.4525  106.0840 H   0  0  0  0  0  0  0  0  0  0  0  0
  125.2409  103.2691  107.2607 H   0  0  0  0  0  0  0  0  0  0  0  0
  122.8773  106.1484  108.9710 H   0  0  0  0  0  0  0  0  0  0  0  0
  124.0715  107.2439  108.3367 H   0  0  0  0  0  0  0  0  0  0  0  0
  124.5411  104.6053  109.1564 H   0  0  0  0  0  0  0  0  0  0  0  0
  125.1739  107.8286  105.7570 H   0  0  0  0  0  0  0  0  0  0  0  0
  124.2851  108.4842  107.1499 H   0  0  0  0  0  0  0  0  0  0  0  0
  124.0331  109.1740  105.5361 H   0  0  0  0  0  0  0  0  0  0  0  0
  122.7946  103.3208  107.9646 H   0  0  0  0  0  0  0  0  0  0  0  0
  125.9261  105.8506  110.1660 H   0  0  0  0  0  0  0  0  0  0  0  0
  127.4270  106.4100  109.4716 H   0  0  0  0  0  0  0  0  0  0  0  0
  1  7  1  0  0  0  0
  1 11  1  0  0  0  0
  1 12  2  0  0  0  0
  2  8  1  0  0  0  0
  2 10  1  0  0  0  0
  2 13  2  0  0  0  0
  3  4  1  0  0  0  0
  3  9  1  0  0  0  0
  4 10  1  0  0  0  0
  5  7  1  0  0  0  0
  5  9  1  0  0  0  0
  6  7  1  0  0  0  0
  6 10  1  0  0  0  0
  3 14  1  0  0  0  0
  3 15  1  0  0  0  0
  4 16  1  0  0  0  0
  4 17  1  0  0  0  0
  5 18  1  0  0  0  0
  5 19  1  0  0  0  0
  6 20  1  0  0  0  0
  6 21  1  0  0  0  0
  7 22  1  0  0  0  0
  8 23  1  0  0  0  0
  8 24  1  0  0  0  0
  8 25  1  0  0  0  0
  9 26  1  0  0  0  0
 11 27  1  0  0  0  0
 11 28  1  0  0  0  0
M  END
> <FRED Chemgauss4 score>
-5.894935

$$$$
C19834702	P29491605
  -OEChem-05182014473D

 31 30  0     1  0  0  0  0  0999 V2000
  120.9195  106.5848  104.9481 C   0  0  0  0  0  0  0  0  0  0  0  0
  118.6475  107.1773  105.8249 C   0  0  0  0  0  0  0  0  0  0  0  0
  119.7484  105.1130  106.6003 C   0  0  0  0  0  0  0  0  0  0  0  0
  122.8714  107.8387  106.9647 C   0  0  0  0  0  0  0  0  0  0  0  0
  122.2584  106.0757  105.4521 C   0  0  0  0  0  0  0  0  0  0  0  0
  124.9023  105.7796  106.7727 C   0  0  0  0  0  0  0  0  0  0  0  0
  126.3510  105.2969  106.7489 C   0  0  0  0  0  0  0  0  0  0  0  0
  124.5568  106.7489  105.6442 C   0  0  0  0  0  0  0  0  0  0  0  0
  127.2943  106.3778  106.8361 N   0  0  0  0  0  0  0  0  0  0  0  0
  119.8153  106.3019  105.7597 N   0  0  0  0  0  0  0  0  0  0  0  0
  123.1488  107.1779  105.6787 N   0  0  2  0  0  0  0  0  0  0  0  0
  120.8401  107.2081  103.8862 O   0  0  0  0  0  0  0  0  0  0  0  0
  117.9137  106.8816  105.0705 H   0  0  0  0  0  0  0  0  0  0  0  0
  118.9418  108.2143  105.6421 H   0  0  0  0  0  0  0  0  0  0  0  0
  118.1822  107.1138  106.8123 H   0  0  0  0  0  0  0  0  0  0  0  0
  120.1645  105.3273  107.5881 H   0  0  0  0  0  0  0  0  0  0  0  0
  120.3188  104.2974  106.1475 H   0  0  0  0  0  0  0  0  0  0  0  0
  118.7101  104.7912  106.7180 H   0  0  0  0  0  0  0  0  0  0  0  0
  123.5610  108.6735  107.1147 H   0  0  0  0  0  0  0  0  0  0  0  0
  122.9930  107.1296  107.7881 H   0  0  0  0  0  0  0  0  0  0  0  0
  121.8473  108.2213  106.9800 H   0  0  0  0  0  0  0  0  0  0  0  0
  122.1320  105.5519  106.4031 H   0  0  0  0  0  0  0  0  0  0  0  0
  122.7233  105.4245  104.7073 H   0  0  0  0  0  0  0  0  0  0  0  0
  124.7110  106.2643  107.7379 H   0  0  0  0  0  0  0  0  0  0  0  0
  124.2310  104.9145  106.7081 H   0  0  0  0  0  0  0  0  0  0  0  0
  126.5570  104.6059  107.5719 H   0  0  0  0  0  0  0  0  0  0  0  0
  126.5539  104.7734  105.8092 H   0  0  0  0  0  0  0  0  0  0  0  0
  124.7177  106.2652  104.6755 H   0  0  0  0  0  0  0  0  0  0  0  0
  125.1812  107.6468  105.6815 H   0  0  0  0  0  0  0  0  0  0  0  0
  128.2135  106.2621  106.4389 H   0  0  0  0  0  0  0  0  0  0  0  0
  127.1049  107.1471  107.4594 H   0  0  0  0  0  0  0  0  0  0  0  0
  1  5  1  0  0  0  0
  1 10  1  0  0  0  0
  1 12  2  0  0  0  0
  2 10  1  0  0  0  0
  3 10  1  0  0  0  0
  4 11  1  0  0  0  0
  5 11  1  0  0  0  0
  6  7  1  0  0  0  0
  6  8  1  0  0  0  0
  7  9  1  0  0  0  0
  8 11  1  0  0  0  0
  2 13  1  0  0  0  0
  2 14  1  0  0  0  0
  2 15  1  0  0  0  0
  3 16  1  0  0  0  0
  3 17  1  0  0  0  0
  3 18  1  0  0  0  0
  4 19  1  0  0  0  0
  4 20  1  0  0  0  0
  4 21  1  0  0  0  0
  5 22  1  0  0  0  0
  5 23  1  0  0  0  0
  6 24  1  0  0  0  0
  6 25  1  0  0  0  0
  7 26  1  0  0  0  0
  7 27  1  0  0  0  0
  8 28  1  0  0  0  0
  8 29  1  0  0  0  0
  9 30  1  0  0  0  0
  9 31  1  0  0  0  0
M  END
> <FRED Chemgauss4 score>
-5.894266

$$$$
C87588455	P137001872
  -OEChem-05182014473D

 29 29  0     1  0  0  0  0  0999 V2000
  125.4360  106.5770  107.0835 C   0  0  0  0  0  0  0  0  0  0  0  0
  126.5650  105.2821  108.4092 C   0  0  0  0  0  0  0  0  0  0  0  0
  121.0544  105.2061  104.2087 C   0  0  0  0  0  0  0  0  0  0  0  0
  123.0205  106.5897  106.2346 C   0  0  0  0  0  0  0  0  0  0  0  0
  121.8388  107.4059  105.7167 C   0  0  0  0  0  0  0  0  0  0  0  0
  124.2977  107.4092  106.5236 C   0  0  2  0  0  0  0  0  0  0  0  0
  126.6209  106.3973  106.5449 N   0  0  0  0  0  0  0  0  0  0  0  0
  127.3393  105.5735  107.3884 N   0  0  0  0  0  0  0  0  0  0  0  0
  125.3571  105.8928  108.2585 N   0  0  0  0  0  0  0  0  0  0  0  0
  126.8200  104.5112  109.4909 N   0  0  0  0  0  0  0  0  0  0  0  0
  124.7125  108.0846  105.2861 N   0  0  0  0  0  0  0  0  0  0  0  0
  124.2464  105.8351  109.1317 N   0  0  0  0  0  0  0  0  0  0  0  0
  120.0323  105.7152  106.5600 O   0  0  0  0  0  0  0  0  0  0  0  0
  119.4676  107.2401  104.6293 O   0  0  0  0  0  0  0  0  0  0  0  0
  120.4254  106.4173  105.3493 S   0  0  0  0  0  0  0  0  0  0  0  0
  120.2359  104.5430  103.9244 H   0  0  0  0  0  0  0  0  0  0  0  0
  121.4456  105.7276  103.3338 H   0  0  0  0  0  0  0  0  0  0  0  0
  121.8469  104.6443  104.7054 H   0  0  0  0  0  0  0  0  0  0  0  0
  123.2374  105.8027  105.5006 H   0  0  0  0  0  0  0  0  0  0  0  0
  122.7107  106.0738  107.1536 H   0  0  0  0  0  0  0  0  0  0  0  0
  121.5238  108.1804  106.4206 H   0  0  0  0  0  0  0  0  0  0  0  0
  122.1142  107.8964  104.7774 H   0  0  0  0  0  0  0  0  0  0  0  0
  124.0449  108.1997  107.2400 H   0  0  0  0  0  0  0  0  0  0  0  0
  127.7082  104.0026  109.6015 H   0  0  0  0  0  0  0  0  0  0  0  0
  126.1047  104.3216  110.2066 H   0  0  0  0  0  0  0  0  0  0  0  0
  125.6530  108.3961  105.2252 H   0  0  0  0  0  0  0  0  0  0  0  0
  123.9991  108.3782  104.6613 H   0  0  0  0  0  0  0  0  0  0  0  0
  123.6796  106.6893  109.1214 H   0  0  0  0  0  0  0  0  0  0  0  0
  124.5177  105.7150  110.1133 H   0  0  0  0  0  0  0  0  0  0  0  0
  1  6  1  0  0  0  0
  1  7  2  0  0  0  0
  1  9  1  0  0  0  0
  2  8  2  0  0  0  0
  2  9  1  0  0  0  0
  2 10  1  0  0  0  0
  3 15  1  0  0  0  0
  4  5  1  0  0  0  0
  4  6  1  0  0  0  0
  5 15  1  0  0  0  0
  6 11  1  0  0  0  0
  7  8  1  0  0  0  0
  9 12  1  0  0  0  0
 13 15  2  0  0  0  0
 14 15  2  0  0  0  0
  3 16  1  0  0  0  0
  3 17  1  0  0  0  0
  3 18  1  0  0  0  0
  4 19  1  0  0  0  0
  4 20  1  0  0  0  0
  5 21  1  0  0  0  0
  5 22  1  0  0  0  0
  6 23  1  0  0  0  0
 10 24  1  0  0  0  0
 10 25  1  0  0  0  0
 11 26  1  0  0  0  0
 11 27  1  0  0  0  0
 12 28  1  0  0  0  0
 12 29  1  0  0  0  0
M  END
> <FRED Chemgauss4 score>
-5.891752

$$$$
C95673041	P150460172
  -OEChem-05182014473D

 23 23  0     1  0  0  0  0  0999 V2000
  122.3286  104.5486  106.3554 C   0  0  0  0  0  0  0  0  0  0  0  0
  121.3220  104.9890  105.5033 C   0  0  0  0  0  0  0  0  0  0  0  0
  123.5111  105.2728  106.4582 C   0  0  0  0  0  0  0  0  0  0  0  0
  121.5454  106.1503  104.7814 C   0  0  0  0  0  0  0  0  0  0  0  0
  123.6365  106.4213  105.6934 C   0  0  0  0  0  0  0  0  0  0  0  0
  126.1970  108.8548  107.3271 C   0  0  0  0  0  0  0  0  0  0  0  0
  124.9177  107.2394  105.7803 C   0  0  2  0  0  0  0  0  0  0  0  0
  125.1894  107.7111  107.2297 C   0  0  1  0  0  0  0  0  0  0  0  0
  122.6808  106.8805  104.8547 N   0  0  0  0  0  0  0  0  0  0  0  0
  124.8671  108.3639  104.8394 N   0  0  0  0  0  0  0  0  0  0  0  0
  125.7173  106.6165  107.9868 O   0  0  0  0  0  0  0  0  0  0  0  0
  122.1917  103.6428  106.9383 H   0  0  0  0  0  0  0  0  0  0  0  0
  120.3920  104.4405  105.4073 H   0  0  0  0  0  0  0  0  0  0  0  0
  124.3040  104.9400  107.1193 H   0  0  0  0  0  0  0  0  0  0  0  0
  120.7916  106.5360  104.1029 H   0  0  0  0  0  0  0  0  0  0  0  0
  127.1479  108.6034  106.8492 H   0  0  0  0  0  0  0  0  0  0  0  0
  126.3873  109.1213  108.3726 H   0  0  0  0  0  0  0  0  0  0  0  0
  125.7999  109.7536  106.8419 H   0  0  0  0  0  0  0  0  0  0  0  0
  125.7526  106.5951  105.4737 H   0  0  0  0  0  0  0  0  0  0  0  0
  124.2618  108.0218  107.7238 H   0  0  0  0  0  0  0  0  0  0  0  0
  124.3919  108.2248  103.9778 H   0  0  0  0  0  0  0  0  0  0  0  0
  125.4719  109.1345  105.0072 H   0  0  0  0  0  0  0  0  0  0  0  0
  125.8159  106.9389  108.8941 H   0  0  0  0  0  0  0  0  0  0  0  0
  1  2  1  0  0  0  0
  1  3  2  0  0  0  0
  2  4  2  0  0  0  0
  3  5  1  0  0  0  0
  4  9  1  0  0  0  0
  5  7  1  0  0  0  0
  5  9  2  0  0  0  0
  6  8  1  0  0  0  0
  7  8  1  0  0  0  0
  7 10  1  0  0  0  0
  8 11  1  0  0  0  0
  1 12  1  0  0  0  0
  2 13  1  0  0  0  0
  3 14  1  0  0  0  0
  4 15  1  0  0  0  0
  6 16  1  0  0  0  0
  6 17  1  0  0  0  0
  6 18  1  0  0  0  0
  7 19  1  0  0  0  0
  8 20  1  0  0  0  0
 10 21  1  0  0  0  0
 10 22  1  0  0  0  0
 11 23  1  0  0  0  0
M  END
> <FRED Chemgauss4 score>
-5.888349

$$$$
C72206524	P112174964
  -OEChem-05182014473D

 21 22  0     1  0  0  0  0  0999 V2000
  121.3669  106.4914  105.9149 C   0  0  0  0  0  0  0  0  0  0  0  0
  121.6012  105.6886  107.0066 C   0  0  0  0  0  0  0  0  0  0  0  0
  123.4964  106.4267  106.1185 C   0  0  0  0  0  0  0  0  0  0  0  0
  125.1998  104.8340  107.7679 C   0  0  0  0  0  0  0  0  0  0  0  0
  125.7342  106.1579  107.2153 C   0  0  0  0  0  0  0  0  0  0  0  0
  123.7229  104.9641  108.1376 C   0  0  0  0  0  0  0  0  0  0  0  0
  124.9759  106.5590  105.9379 C   0  0  2  0  0  0  0  0  0  0  0  0
  122.5428  106.9404  105.3652 N   0  0  0  0  0  0  0  0  0  0  0  0
  122.9585  105.6520  107.1176 N   0  0  0  0  0  0  0  0  0  0  0  0
  125.3439  107.9238  105.5642 N   0  0  0  0  0  0  0  0  0  0  0  0
  120.4108  106.7705  105.4968 H   0  0  0  0  0  0  0  0  0  0  0  0
  120.9421  105.1669  107.6864 H   0  0  0  0  0  0  0  0  0  0  0  0
  125.3255  104.0482  107.0123 H   0  0  0  0  0  0  0  0  0  0  0  0
  125.7758  104.5297  108.6486 H   0  0  0  0  0  0  0  0  0  0  0  0
  125.6298  106.9325  107.9875 H   0  0  0  0  0  0  0  0  0  0  0  0
  126.8057  106.0634  107.0009 H   0  0  0  0  0  0  0  0  0  0  0  0
  123.2762  103.9761  108.2905 H   0  0  0  0  0  0  0  0  0  0  0  0
  123.6080  105.5479  109.0581 H   0  0  0  0  0  0  0  0  0  0  0  0
  125.2747  105.8846  105.1256 H   0  0  0  0  0  0  0  0  0  0  0  0
  124.7187  108.4329  104.9792 H   0  0  0  0  0  0  0  0  0  0  0  0
  126.2807  108.2178  105.7326 H   0  0  0  0  0  0  0  0  0  0  0  0
  1  2  2  0  0  0  0
  1  8  1  0  0  0  0
  2  9  1  0  0  0  0
  3  7  1  0  0  0  0
  3  8  2  0  0  0  0
  3  9  1  0  0  0  0
  4  5  1  0  0  0  0
  4  6  1  0  0  0  0
  5  7  1  0  0  0  0
  6  9  1  0  0  0  0
  7 10  1  0  0  0  0
  1 11  1  0  0  0  0
  2 12  1  0  0  0  0
  4 13  1  0  0  0  0
  4 14  1  0  0  0  0
  5 15  1  0  0  0  0
  5 16  1  0  0  0  0
  6 17  1  0  0  0  0
  6 18  1  0  0  0  0
  7 19  1  0  0  0  0
 10 20  1  0  0  0  0
 10 21  1  0  0  0  0
M  END
> <FRED Chemgauss4 score>
-5.881462

$$$$
C54497644	P82017894
  -OEChem-05182014473D

 25 25  0     1  0  0  0  0  0999 V2000
  123.2835  107.4587  106.4113 C   0  0  0  0  0  0  0  0  0  0  0  0
  125.2624  106.6489  106.7820 C   0  0  0  0  0  0  0  0  0  0  0  0
  125.1872  103.6695  107.3295 C   0  0  0  0  0  0  0  0  0  0  0  0
  122.3497  105.1878  108.2827 C   0  0  0  0  0  0  0  0  0  0  0  0
  126.4635  104.4376  107.0083 C   0  0  0  0  0  0  0  0  0  0  0  0
  123.5171  106.1300  108.5212 C   0  0  0  0  0  0  0  0  0  0  0  0
  126.3970  105.9069  107.4589 C   0  0  1  0  0  0  0  0  0  0  0  0
  124.0534  107.8248  105.4115 N   0  0  0  0  0  0  0  0  0  0  0  0
  125.3124  107.3096  105.6473 N   0  0  0  0  0  0  0  0  0  0  0  0
  124.0037  106.7166  107.2976 N   0  0  0  0  0  0  0  0  0  0  0  0
  127.6526  106.5893  107.2389 N   0  0  0  0  0  0  0  0  0  0  0  0
  122.2365  107.6943  106.5383 H   0  0  0  0  0  0  0  0  0  0  0  0
  124.3153  104.1501  106.8744 H   0  0  0  0  0  0  0  0  0  0  0  0
  125.2538  102.6494  106.9382 H   0  0  0  0  0  0  0  0  0  0  0  0
  125.0213  103.6043  108.4092 H   0  0  0  0  0  0  0  0  0  0  0  0
  121.5114  105.7087  107.8081 H   0  0  0  0  0  0  0  0  0  0  0  0
  121.9990  104.7705  109.2317 H   0  0  0  0  0  0  0  0  0  0  0  0
  122.6388  104.3572  107.6304 H   0  0  0  0  0  0  0  0  0  0  0  0
  127.3097  103.9240  107.4816 H   0  0  0  0  0  0  0  0  0  0  0  0
  126.6304  104.3909  105.9245 H   0  0  0  0  0  0  0  0  0  0  0  0
  124.3505  105.6000  108.9961 H   0  0  0  0  0  0  0  0  0  0  0  0
  123.2248  106.9449  109.1932 H   0  0  0  0  0  0  0  0  0  0  0  0
  126.2413  105.9301  108.5447 H   0  0  0  0  0  0  0  0  0  0  0  0
  128.5077  106.0742  107.3438 H   0  0  0  0  0  0  0  0  0  0  0  0
  127.6556  107.5920  107.1892 H   0  0  0  0  0  0  0  0  0  0  0  0
  1  8  2  0  0  0  0
  1 10  1  0  0  0  0
  2  7  1  0  0  0  0
  2  9  2  0  0  0  0
  2 10  1  0  0  0  0
  3  5  1  0  0  0  0
  4  6  1  0  0  0  0
  5  7  1  0  0  0  0
  6 10  1  0  0  0  0
  7 11  1  0  0  0  0
  8  9  1  0  0  0  0
  1 12  1  0  0  0  0
  3 13  1  0  0  0  0
  3 14  1  0  0  0  0
  3 15  1  0  0  0  0
  4 16  1  0  0  0  0
  4 17  1  0  0  0  0
  4 18  1  0  0  0  0
  5 19  1  0  0  0  0
  5 20  1  0  0  0  0
  6 21  1  0  0  0  0
  6 22  1  0  0  0  0
  7 23  1  0  0  0  0
 11 24  1  0  0  0  0
 11 25  1  0  0  0  0
M  END
> <FRED Chemgauss4 score>
-5.881150

$$$$
C86576375	P135532690
  -OEChem-05182014473D

 28 28  0     1  0  0  0  0  0999 V2000
  125.7491  105.0490  108.5527 C   0  0  0  0  0  0  0  0  0  0  0  0
  124.7521  105.9801  108.8216 C   0  0  0  0  0  0  0  0  0  0  0  0
  126.5196  105.2337  107.4161 C   0  0  0  0  0  0  0  0  0  0  0  0
  124.5589  107.0524  107.9578 C   0  0  0  0  0  0  0  0  0  0  0  0
  125.3828  107.1476  106.8479 C   0  0  0  0  0  0  0  0  0  0  0  0
  120.9071  108.3713  108.2299 C   0  0  0  0  0  0  0  0  0  0  0  0
  121.2055  107.0992  105.5406 C   0  0  0  0  0  0  0  0  0  0  0  0
  123.4662  108.0699  108.2560 C   0  0  2  0  0  0  0  0  0  0  0  0
  122.1120  107.6413  107.6400 C   0  0  2  0  0  0  0  0  0  0  0  0
  126.3616  106.2627  106.5536 N   0  0  0  0  0  0  0  0  0  0  0  0
  125.1900  108.2395  105.9653 N   0  0  0  0  0  0  0  0  0  0  0  0
  123.8762  109.4034  107.8019 N   0  0  0  0  0  0  0  0  0  0  0  0
  122.1292  107.9195  106.2356 O   0  0  0  0  0  0  0  0  0  0  0  0
  125.9179  104.2056  109.2124 H   0  0  0  0  0  0  0  0  0  0  0  0
  124.1319  105.8615  109.7058 H   0  0  0  0  0  0  0  0  0  0  0  0
  127.3098  104.5353  107.1606 H   0  0  0  0  0  0  0  0  0  0  0  0
  121.0082  109.4573  108.1505 H   0  0  0  0  0  0  0  0  0  0  0  0
  120.7659  108.1064  109.2836 H   0  0  0  0  0  0  0  0  0  0  0  0
  119.9904  108.0761  107.7071 H   0  0  0  0  0  0  0  0  0  0  0  0
  121.2404  107.3330  104.4737 H   0  0  0  0  0  0  0  0  0  0  0  0
  120.1989  107.2721  105.9296 H   0  0  0  0  0  0  0  0  0  0  0  0
  121.4772  106.0517  105.6909 H   0  0  0  0  0  0  0  0  0  0  0  0
  123.3392  108.1213  109.3457 H   0  0  0  0  0  0  0  0  0  0  0  0
  121.9525  106.5625  107.7488 H   0  0  0  0  0  0  0  0  0  0  0  0
  124.4428  108.8749  106.1420 H   0  0  0  0  0  0  0  0  0  0  0  0
  125.7445  108.2934  105.1388 H   0  0  0  0  0  0  0  0  0  0  0  0
  124.8403  109.6366  107.8638 H   0  0  0  0  0  0  0  0  0  0  0  0
  123.1634  110.0785  107.6476 H   0  0  0  0  0  0  0  0  0  0  0  0
  1  2  2  0  0  0  0
  1  3  1  0  0  0  0
  2  4  1  0  0  0  0
  3 10  2  0  0  0  0
  4  5  2  0  0  0  0
  4  8  1  0  0  0  0
  5 10  1  0  0  0  0
  5 11  1  0  0  0  0
  6  9  1  0  0  0  0
  7 13  1  0  0  0  0
  8  9  1  0  0  0  0
  8 12  1  0  0  0  0
  9 13  1  0  0  0  0
  1 14  1  0  0  0  0
  2 15  1  0  0  0  0
  3 16  1  0  0  0  0
  6 17  1  0  0  0  0
  6 18  1  0  0  0  0
  6 19  1  0  0  0  0
  7 20  1  0  0  0  0
  7 21  1  0  0  0  0
  7 22  1  0  0  0  0
  8 23  1  0  0  0  0
  9 24  1  0  0  0  0
 11 25  1  0  0  0  0
 11 26  1  0  0  0  0
 12 27  1  0  0  0  0
 12 28  1  0  0  0  0
M  END
> <FRED Chemgauss4 score>
-5.876064

$$$$
C83945111	P131322502
  -OEChem-05182014473D

 18 18  0     1  0  0  0  0  0999 V2000
  126.0088  102.7918  107.9228 C   0  0  0  0  0  0  0  0  0  0  0  0
  125.9136  103.9585  108.1909 C   0  0  0  0  0  0  0  0  0  0  0  0
  123.7472  105.8785  107.2087 C   0  0  0  0  0  0  0  0  0  0  0  0
  125.6980  107.2357  106.8384 C   0  0  0  0  0  0  0  0  0  0  0  0
  123.1001  106.6428  106.2511 C   0  0  0  0  0  0  0  0  0  0  0  0
  124.9636  107.9390  105.8972 C   0  0  0  0  0  0  0  0  0  0  0  0
  125.0708  106.1871  107.5021 C   0  0  0  0  0  0  0  0  0  0  0  0
  125.8145  105.3973  108.5250 C   0  0  2  0  0  0  0  0  0  0  0  0
  123.6762  107.6687  105.5854 N   0  0  0  0  0  0  0  0  0  0  0  0
  127.1442  105.9307  108.7651 N   0  0  0  0  0  0  0  0  0  0  0  0
  126.0933  101.7573  107.6849 H   0  0  0  0  0  0  0  0  0  0  0  0
  123.2293  105.0674  107.7094 H   0  0  0  0  0  0  0  0  0  0  0  0
  126.7293  107.5003  107.0452 H   0  0  0  0  0  0  0  0  0  0  0  0
  122.0667  106.4433  105.9868 H   0  0  0  0  0  0  0  0  0  0  0  0
  125.4070  108.7656  105.3520 H   0  0  0  0  0  0  0  0  0  0  0  0
  125.3110  105.4708  109.5053 H   0  0  0  0  0  0  0  0  0  0  0  0
  127.8400  105.3222  109.1481 H   0  0  0  0  0  0  0  0  0  0  0  0
  127.2721  106.9227  108.7364 H   0  0  0  0  0  0  0  0  0  0  0  0
  1  2  3  0  0  0  0
  2  8  1  0  0  0  0
  3  5  2  0  0  0  0
  3  7  1  0  0  0  0
  4  6  1  0  0  0  0
  4  7  2  0  0  0  0
  5  9  1  0  0  0  0
  6  9  2  0  0  0  0
  7  8  1  0  0  0  0
  8 10  1  0  0  0  0
  1 11  1  0  0  0  0
  3 12  1  0  0  0  0
  4 13  1  0  0  0  0
  5 14  1  0  0  0  0
  6 15  1  0  0  0  0
  8 16  1  0  0  0  0
 10 17  1  0  0  0  0
 10 18  1  0  0  0  0
M  END
> <FRED Chemgauss4 score>
-5.874200

$$$$
C76576824	P119452343
  -OEChem-05182014473D

 25 25  0     1  0  0  0  0  0999 V2000
  126.0360  104.4486  108.7587 C   0  0  0  0  0  0  0  0  0  0  0  0
  125.2243  105.7189  108.7984 C   0  0  0  0  0  0  0  0  0  0  0  0
  125.5569  103.8112  107.4715 C   0  0  0  0  0  0  0  0  0  0  0  0
  123.8904  105.2429  108.2494 C   0  0  1  0  0  0  0  0  0  0  0  0
  123.0752  106.3446  107.6005 C   0  0  0  0  0  0  0  0  0  0  0  0
  124.7636  107.5170  106.0797 C   0  0  0  0  0  0  0  0  0  0  0  0
  123.5243  106.6229  106.1617 C   0  0  2  0  0  0  0  0  0  0  0  0
  124.8664  108.1565  104.7882 N   0  0  0  0  0  0  0  0  0  0  0  0
  124.1962  104.2262  107.2800 O   0  0  0  0  0  0  0  0  0  0  0  0
  122.4530  107.2285  105.4408 O   0  0  0  0  0  0  0  0  0  0  0  0
  127.1162  104.6151  108.7765 H   0  0  0  0  0  0  0  0  0  0  0  0
  125.7732  103.8122  109.6120 H   0  0  0  0  0  0  0  0  0  0  0  0
  125.1423  106.1511  109.7995 H   0  0  0  0  0  0  0  0  0  0  0  0
  125.6788  106.4664  108.1368 H   0  0  0  0  0  0  0  0  0  0  0  0
  126.1370  104.1674  106.6136 H   0  0  0  0  0  0  0  0  0  0  0  0
  125.6091  102.7192  107.4991 H   0  0  0  0  0  0  0  0  0  0  0  0
  123.3039  104.7645  109.0438 H   0  0  0  0  0  0  0  0  0  0  0  0
  123.1838  107.2467  108.2140 H   0  0  0  0  0  0  0  0  0  0  0  0
  122.0173  106.0575  107.6117 H   0  0  0  0  0  0  0  0  0  0  0  0
  125.6689  106.9294  106.2639 H   0  0  0  0  0  0  0  0  0  0  0  0
  124.7103  108.2992  106.8445 H   0  0  0  0  0  0  0  0  0  0  0  0
  123.7498  105.6705  105.6668 H   0  0  0  0  0  0  0  0  0  0  0  0
  124.6184  107.6336  103.9674 H   0  0  0  0  0  0  0  0  0  0  0  0
  125.3685  109.0234  104.7155 H   0  0  0  0  0  0  0  0  0  0  0  0
  121.7175  106.5972  105.4590 H   0  0  0  0  0  0  0  0  0  0  0  0
  1  2  1  0  0  0  0
  1  3  1  0  0  0  0
  2  4  1  0  0  0  0
  3  9  1  0  0  0  0
  4  5  1  0  0  0  0
  4  9  1  0  0  0  0
  5  7  1  0  0  0  0
  6  7  1  0  0  0  0
  6  8  1  0  0  0  0
  7 10  1  0  0  0  0
  1 11  1  0  0  0  0
  1 12  1  0  0  0  0
  2 13  1  0  0  0  0
  2 14  1  0  0  0  0
  3 15  1  0  0  0  0
  3 16  1  0  0  0  0
  4 17  1  0  0  0  0
  5 18  1  0  0  0  0
  5 19  1  0  0  0  0
  6 20  1  0  0  0  0
  6 21  1  0  0  0  0
  7 22  1  0  0  0  0
  8 23  1  0  0  0  0
  8 24  1  0  0  0  0
 10 25  1  0  0  0  0
M  END
> <FRED Chemgauss4 score>
-5.872203

$$$$
C39059147	P59177984
  -OEChem-05182014473D

 21 21  0     1  0  0  0  0  0999 V2000
  123.9797  105.4428  106.3475 C   0  0  0  0  0  0  0  0  0  0  0  0
  123.7464  106.5480  105.3200 C   0  0  2  0  0  0  0  0  0  0  0  0
  124.3821  107.8077  105.9268 C   0  0  1  0  0  0  0  0  0  0  0  0
  124.8539  107.3918  107.3286 C   0  0  1  0  0  0  0  0  0  0  0  0
  123.7981  107.7313  108.3876 C   0  0  0  0  0  0  0  0  0  0  0  0
  125.1071  105.9578  107.1172 N   0  0  1  0  0  0  0  0  0  0  0  0
  122.3542  106.7398  105.1117 O   0  0  0  0  0  0  0  0  0  0  0  0
  125.5091  108.1923  105.1398 O   0  0  0  0  0  0  0  0  0  0  0  0
  123.5821  109.1304  108.3757 O   0  0  0  0  0  0  0  0  0  0  0  0
  125.1063  105.2843  108.3944 O   0  0  0  0  0  0  0  0  0  0  0  0
  123.1155  105.2230  106.9563 H   0  0  0  0  0  0  0  0  0  0  0  0
  124.3022  104.5427  105.8372 H   0  0  0  0  0  0  0  0  0  0  0  0
  124.1979  106.2779  104.3527 H   0  0  0  0  0  0  0  0  0  0  0  0
  123.6827  108.6463  105.9486 H   0  0  0  0  0  0  0  0  0  0  0  0
  125.7628  107.8956  107.5744 H   0  0  0  0  0  0  0  0  0  0  0  0
  124.1505  107.4292  109.3738 H   0  0  0  0  0  0  0  0  0  0  0  0
  122.8634  107.2200  108.1581 H   0  0  0  0  0  0  0  0  0  0  0  0
  122.0007  105.8955  104.7880 H   0  0  0  0  0  0  0  0  0  0  0  0
  125.8831  108.9884  105.5522 H   0  0  0  0  0  0  0  0  0  0  0  0
  122.9110  109.3216  109.0531 H   0  0  0  0  0  0  0  0  0  0  0  0
  125.2038  104.3695  108.0843 H   0  0  0  0  0  0  0  0  0  0  0  0
  1  2  1  0  0  0  0
  1  6  1  0  0  0  0
  2  3  1  0  0  0  0
  2  7  1  0  0  0  0
  3  4  1  0  0  0  0
  3  8  1  0  0  0  0
  4  5  1  0  0  0  0
  4  6  1  0  0  0  0
  5  9  1  0  0  0  0
  6 10  1  0  0  0  0
  1 11  1  0  0  0  0
  1 12  1  0  0  0  0
  2 13  1  0  0  0  0
  3 14  1  0  0  0  0
  4 15  1  0  0  0  0
  5 16  1  0  0  0  0
  5 17  1  0  0  0  0
  7 18  1  0  0  0  0
  8 19  1  0  0  0  0
  9 20  1  0  0  0  0
 10 21  1  0  0  0  0
M  END
> <FRED Chemgauss4 score>
-5.870727

$$$$
C59086297	P89572875
  -OEChem-05182014473D

 19 18  0     1  0  0  0  0  0999 V2000
  125.9882  104.9986  108.1023 C   0  0  0  0  0  0  0  0  0  0  0  0
  126.2061  105.9828  107.2226 C   0  0  0  0  0  0  0  0  0  0  0  0
  123.5131  106.5941  105.8330 C   0  0  0  0  0  0  0  0  0  0  0  0
  125.5320  107.3243  107.2820 C   0  0  1  0  0  0  0  0  0  0  0  0
  124.6234  107.6223  106.0723 C   0  0  1  0  0  0  0  0  0  0  0  0
  122.4201  107.1409  105.0410 N   0  0  0  0  0  0  0  0  0  0  0  0
  124.7400  107.3526  108.4717 O   0  0  0  0  0  0  0  0  0  0  0  0
  125.4092  107.6938  104.8786 O   0  0  0  0  0  0  0  0  0  0  0  0
  126.4963  104.0440  108.0232 H   0  0  0  0  0  0  0  0  0  0  0  0
  125.2924  105.1392  108.9221 H   0  0  0  0  0  0  0  0  0  0  0  0
  126.9155  105.8085  106.4173 H   0  0  0  0  0  0  0  0  0  0  0  0
  123.9336  105.7223  105.3174 H   0  0  0  0  0  0  0  0  0  0  0  0
  123.1259  106.2157  106.7859 H   0  0  0  0  0  0  0  0  0  0  0  0
  126.2798  108.1191  107.3862 H   0  0  0  0  0  0  0  0  0  0  0  0
  124.1750  108.6161  106.1985 H   0  0  0  0  0  0  0  0  0  0  0  0
  121.5162  106.7259  105.1320 H   0  0  0  0  0  0  0  0  0  0  0  0
  122.6436  107.7653  104.2939 H   0  0  0  0  0  0  0  0  0  0  0  0
  125.3534  107.2226  109.2099 H   0  0  0  0  0  0  0  0  0  0  0  0
  124.8059  107.9704  104.1737 H   0  0  0  0  0  0  0  0  0  0  0  0
  1  2  2  0  0  0  0
  2  4  1  0  0  0  0
  3  5  1  0  0  0  0
  3  6  1  0  0  0  0
  4  5  1  0  0  0  0
  4  7  1  0  0  0  0
  5  8  1  0  0  0  0
  1  9  1  0  0  0  0
  1 10  1  0  0  0  0
  2 11  1  0  0  0  0
  3 12  1  0  0  0  0
  3 13  1  0  0  0  0
  4 14  1  0  0  0  0
  5 15  1  0  0  0  0
  6 16  1  0  0  0  0
  6 17  1  0  0  0  0
  7 18  1  0  0  0  0
  8 19  1  0  0  0  0
M  END
> <FRED Chemgauss4 score>
-5.870509

$$$$
C84175605	P131725011
  -OEChem-05182014473D

 22 22  0     0  0  0  0  0  0999 V2000
  119.6445  103.9189  105.3138 C   0  0  0  0  0  0  0  0  0  0  0  0
  119.2684  104.5982  106.5970 C   0  0  0  0  0  0  0  0  0  0  0  0
  120.6911  104.1680  106.3651 C   0  0  0  0  0  0  0  0  0  0  0  0
  122.8560  104.9633  107.0293 C   0  0  0  0  0  0  0  0  0  0  0  0
  124.0992  105.6932  106.5581 C   0  0  0  0  0  0  0  0  0  0  0  0
  125.1260  107.8275  105.3576 N   0  0  0  0  0  0  0  0  0  0  0  0
  121.7414  105.1629  106.1437 N   0  0  0  0  0  0  0  0  0  0  0  0
  122.5834  107.6409  105.7001 O   0  0  0  0  0  0  0  0  0  0  0  0
  124.0784  108.0448  107.6969 O   0  0  0  0  0  0  0  0  0  0  0  0
  123.8378  107.4324  106.4020 S   0  0  0  0  0  0  0  0  0  0  0  0
  119.2940  102.9057  105.1584 H   0  0  0  0  0  0  0  0  0  0  0  0
  119.6807  104.5216  104.4144 H   0  0  0  0  0  0  0  0  0  0  0  0
  119.0507  105.6589  106.5610 H   0  0  0  0  0  0  0  0  0  0  0  0
  118.6619  104.0413  107.3007 H   0  0  0  0  0  0  0  0  0  0  0  0
  121.0290  103.3014  106.9245 H   0  0  0  0  0  0  0  0  0  0  0  0
  123.0279  103.8852  107.1062 H   0  0  0  0  0  0  0  0  0  0  0  0
  122.5514  105.3350  108.0124 H   0  0  0  0  0  0  0  0  0  0  0  0
  124.3962  105.3384  105.5667 H   0  0  0  0  0  0  0  0  0  0  0  0
  124.9372  105.5558  107.2481 H   0  0  0  0  0  0  0  0  0  0  0  0
  124.8958  108.0828  104.3894 H   0  0  0  0  0  0  0  0  0  0  0  0
  125.9140  108.3578  105.7495 H   0  0  0  0  0  0  0  0  0  0  0  0
  122.0483  105.0959  105.1669 H   0  0  0  0  0  0  0  0  0  0  0  0
  1  2  1  0  0  0  0
  1  3  1  0  0  0  0
  2  3  1  0  0  0  0
  3  7  1  0  0  0  0
  4  5  1  0  0  0  0
  4  7  1  0  0  0  0
  5 10  1  0  0  0  0
  6 10  1  0  0  0  0
  8 10  2  0  0  0  0
  9 10  2  0  0  0  0
  1 11  1  0  0  0  0
  1 12  1  0  0  0  0
  2 13  1  0  0  0  0
  2 14  1  0  0  0  0
  3 15  1  0  0  0  0
  4 16  1  0  0  0  0
  4 17  1  0  0  0  0
  5 18  1  0  0  0  0
  5 19  1  0  0  0  0
  6 20  1  0  0  0  0
  6 21  1  0  0  0  0
  7 22  1  0  0  0  0
M  END
> <FRED Chemgauss4 score>
-5.869420

$$$$
C42040413	P63623377
  -OEChem-05182014473D

 26 26  0     1  0  0  0  0  0999 V2000
  123.8650  106.4740  106.5938 C   0  0  0  0  0  0  0  0  0  0  0  0
  126.0009  106.6670  106.9278 C   0  0  0  0  0  0  0  0  0  0  0  0
  119.6948  105.0191  105.4161 C   0  0  0  0  0  0  0  0  0  0  0  0
  120.9772  106.3984  107.8605 C   0  0  0  0  0  0  0  0  0  0  0  0
  120.6476  104.3438  106.3944 C   0  0  0  0  0  0  0  0  0  0  0  0
  122.5963  105.9680  105.9800 C   0  0  1  0  0  0  0  0  0  0  0  0
  121.6712  105.3134  107.0265 C   0  0  1  0  0  0  0  0  0  0  0  0
  123.9247  107.3636  107.5404 N   0  0  0  0  0  0  0  0  0  0  0  0
  125.0578  106.0075  106.1717 N   0  0  0  0  0  0  0  0  0  0  0  0
  125.2630  107.5063  107.7728 N   0  0  0  0  0  0  0  0  0  0  0  0
  122.0043  107.0810  105.2906 N   0  0  0  0  0  0  0  0  0  0  0  0
  127.2158  106.5507  106.8779 O   0  0  0  0  0  0  0  0  0  0  0  0
  119.1444  105.8187  105.9224 H   0  0  0  0  0  0  0  0  0  0  0  0
  120.2315  105.4711  104.5772 H   0  0  0  0  0  0  0  0  0  0  0  0
  118.9658  104.3053  105.0203 H   0  0  0  0  0  0  0  0  0  0  0  0
  120.3256  107.0155  107.2324 H   0  0  0  0  0  0  0  0  0  0  0  0
  120.3467  105.9586  108.6393 H   0  0  0  0  0  0  0  0  0  0  0  0
  121.7050  107.0577  108.3449 H   0  0  0  0  0  0  0  0  0  0  0  0
  121.1764  103.5533  105.8498 H   0  0  0  0  0  0  0  0  0  0  0  0
  120.0566  103.8501  107.1752 H   0  0  0  0  0  0  0  0  0  0  0  0
  122.8849  105.2337  105.2193 H   0  0  0  0  0  0  0  0  0  0  0  0
  122.3059  104.7327  107.7105 H   0  0  0  0  0  0  0  0  0  0  0  0
  125.2249  105.3168  105.4499 H   0  0  0  0  0  0  0  0  0  0  0  0
  125.6655  108.1310  108.4597 H   0  0  0  0  0  0  0  0  0  0  0  0
  121.0312  107.0381  105.0303 H   0  0  0  0  0  0  0  0  0  0  0  0
  122.6022  107.7920  104.8987 H   0  0  0  0  0  0  0  0  0  0  0  0
  1  6  1  0  0  0  0
  1  8  2  0  0  0  0
  1  9  1  0  0  0  0
  2  9  1  0  0  0  0
  2 10  1  0  0  0  0
  2 12  2  0  0  0  0
  3  5  1  0  0  0  0
  4  7  1  0  0  0  0
  5  7  1  0  0  0  0
  6  7  1  0  0  0  0
  6 11  1  0  0  0  0
  8 10  1  0  0  0  0
  3 13  1  0  0  0  0
  3 14  1  0  0  0  0
  3 15  1  0  0  0  0
  4 16  1  0  0  0  0
  4 17  1  0  0  0  0
  4 18  1  0  0  0  0
  5 19  1  0  0  0  0
  5 20  1  0  0  0  0
  6 21  1  0  0  0  0
  7 22  1  0  0  0  0
  9 23  1  0  0  0  0
 10 24  1  0  0  0  0
 11 25  1  0  0  0  0
 11 26  1  0  0  0  0
M  END
> <FRED Chemgauss4 score>
-5.867860

$$$$
C95922224	P151021538
  -OEChem-05182014473D

 16 16  0     1  0  0  0  0  0999 V2000
  124.9894  107.0571  105.7996 C   0  0  0  0  0  0  0  0  0  0  0  0
  125.8235  105.7745  107.7740 C   0  0  0  0  0  0  0  0  0  0  0  0
  125.5388  104.7993  108.6333 C   0  0  0  0  0  0  0  0  0  0  0  0
  123.6722  105.5852  106.5498 C   0  0  0  0  0  0  0  0  0  0  0  0
  123.5860  106.5743  105.3523 C   0  0  1  0  0  0  0  0  0  0  0  0
  124.9876  106.1425  106.7910 N   0  0  0  0  0  0  0  0  0  0  0  0
  122.5426  107.5616  105.6121 N   0  0  0  0  0  0  0  0  0  0  0  0
  125.7856  107.8944  105.4434 O   0  0  0  0  0  0  0  0  0  0  0  0
  124.3812  104.1165  108.5658 F   0  0  0  0  0  0  0  0  0  0  0  0
  126.7541  106.3256  107.8254 H   0  0  0  0  0  0  0  0  0  0  0  0
  126.1555  104.4468  109.4468 H   0  0  0  0  0  0  0  0  0  0  0  0
  122.9738  105.7354  107.3794 H   0  0  0  0  0  0  0  0  0  0  0  0
  123.6947  104.5284  106.2662 H   0  0  0  0  0  0  0  0  0  0  0  0
  123.5638  106.1199  104.3584 H   0  0  0  0  0  0  0  0  0  0  0  0
  121.6467  107.2330  105.9015 H   0  0  0  0  0  0  0  0  0  0  0  0
  122.6930  108.4969  105.3002 H   0  0  0  0  0  0  0  0  0  0  0  0
  1  5  1  0  0  0  0
  1  6  1  0  0  0  0
  1  8  2  0  0  0  0
  2  3  2  0  0  0  0
  2  6  1  0  0  0  0
  3  9  1  0  0  0  0
  4  5  1  0  0  0  0
  4  6  1  0  0  0  0
  5  7  1  0  0  0  0
  2 10  1  0  0  0  0
  3 11  1  0  0  0  0
  4 12  1  0  0  0  0
  4 13  1  0  0  0  0
  5 14  1  0  0  0  0
  7 15  1  0  0  0  0
  7 16  1  0  0  0  0
M  END
> <FRED Chemgauss4 score>
-5.865771

$$$$
C87666342	P137137137
  -OEChem-05182014473D

 25 25  0     1  0  0  0  0  0999 V2000
  121.1129  104.0487  105.2823 C   0  0  0  0  0  0  0  0  0  0  0  0
  121.6495  104.3226  106.4776 C   0  0  0  0  0  0  0  0  0  0  0  0
  121.8250  106.2152  105.2158 C   0  0  0  0  0  0  0  0  0  0  0  0
  120.7181  105.2401  103.1270 C   0  0  0  0  0  0  0  0  0  0  0  0
  122.7284  106.2670  107.6073 C   0  0  0  0  0  0  0  0  0  0  0  0
  125.0488  106.1884  106.5572 C   0  0  0  0  0  0  0  0  0  0  0  0
  124.1918  105.8575  107.7794 C   0  0  1  0  0  0  0  0  0  0  0  0
  121.1966  105.1671  104.4839 N   0  0  0  0  0  0  0  0  0  0  0  0
  122.0950  105.6252  106.4838 N   0  0  0  0  0  0  0  0  0  0  0  0
  126.4174  105.7814  106.7881 N   0  0  0  0  0  0  0  0  0  0  0  0
  122.0733  107.3521  104.8438 O   0  0  0  0  0  0  0  0  0  0  0  0
  124.7382  106.5227  108.9183 O   0  0  0  0  0  0  0  0  0  0  0  0
  120.6700  103.1309  104.9311 H   0  0  0  0  0  0  0  0  0  0  0  0
  121.7510  103.6828  107.3389 H   0  0  0  0  0  0  0  0  0  0  0  0
  119.6763  105.5706  103.1133 H   0  0  0  0  0  0  0  0  0  0  0  0
  120.7821  104.2582  102.6503 H   0  0  0  0  0  0  0  0  0  0  0  0
  121.3199  105.9489  102.5517 H   0  0  0  0  0  0  0  0  0  0  0  0
  122.1461  106.0156  108.4993 H   0  0  0  0  0  0  0  0  0  0  0  0
  122.6499  107.3450  107.4335 H   0  0  0  0  0  0  0  0  0  0  0  0
  125.0423  107.2636  106.3502 H   0  0  0  0  0  0  0  0  0  0  0  0
  124.6743  105.6623  105.6731 H   0  0  0  0  0  0  0  0  0  0  0  0
  124.2342  104.7803  107.9820 H   0  0  0  0  0  0  0  0  0  0  0  0
  126.8105  105.9058  107.7031 H   0  0  0  0  0  0  0  0  0  0  0  0
  127.0008  105.5785  105.9971 H   0  0  0  0  0  0  0  0  0  0  0  0
  124.2070  106.2436  109.6793 H   0  0  0  0  0  0  0  0  0  0  0  0
  1  2  2  0  0  0  0
  1  8  1  0  0  0  0
  2  9  1  0  0  0  0
  3  8  1  0  0  0  0
  3  9  1  0  0  0  0
  3 11  2  0  0  0  0
  4  8  1  0  0  0  0
  5  7  1  0  0  0  0
  5  9  1  0  0  0  0
  6  7  1  0  0  0  0
  6 10  1  0  0  0  0
  7 12  1  0  0  0  0
  1 13  1  0  0  0  0
  2 14  1  0  0  0  0
  4 15  1  0  0  0  0
  4 16  1  0  0  0  0
  4 17  1  0  0  0  0
  5 18  1  0  0  0  0
  5 19  1  0  0  0  0
  6 20  1  0  0  0  0
  6 21  1  0  0  0  0
  7 22  1  0  0  0  0
 10 23  1  0  0  0  0
 10 24  1  0  0  0  0
 12 25  1  0  0  0  0
M  END
> <FRED Chemgauss4 score>
-5.865655

$$$$
C72200439	P112158916
  -OEChem-05182014473D

 24 24  0     1  0  0  0  0  0999 V2000
  125.4252  103.2818  107.2180 C   0  0  0  0  0  0  0  0  0  0  0  0
  125.1511  105.6022  106.4951 C   0  0  0  0  0  0  0  0  0  0  0  0
  123.2005  104.2130  106.8144 C   0  0  0  0  0  0  0  0  0  0  0  0
  124.5857  104.3745  106.8395 C   0  0  0  0  0  0  0  0  0  0  0  0
  124.3311  106.6686  106.1258 C   0  0  0  0  0  0  0  0  0  0  0  0
  122.9459  106.5071  106.1007 C   0  0  0  0  0  0  0  0  0  0  0  0
  122.3805  105.2793  106.4450 C   0  0  0  0  0  0  0  0  0  0  0  0
  125.8265  108.5259  106.9291 C   0  0  0  0  0  0  0  0  0  0  0  0
  125.0019  107.9773  105.7625 C   0  0  1  0  0  0  0  0  0  0  0  0
  126.1069  102.3944  107.5253 N   0  0  0  0  0  0  0  0  0  0  0  0
  125.8131  107.8239  104.5747 N   0  0  0  0  0  0  0  0  0  0  0  0
  124.9485  108.7239  108.1110 N   0  3  0  0  0  0  0  0  0  0  0  0
  122.1779  107.4779  105.7632 O   0  5  0  0  0  0  0  0  0  0  0  0
  121.0504  105.0958  106.4296 F   0  0  0  0  0  0  0  0  0  0  0  0
  126.2314  105.7321  106.5135 H   0  0  0  0  0  0  0  0  0  0  0  0
  122.7449  103.2621  107.0801 H   0  0  0  0  0  0  0  0  0  0  0  0
  126.6212  107.8426  107.2458 H   0  0  0  0  0  0  0  0  0  0  0  0
  126.2620  109.5038  106.6993 H   0  0  0  0  0  0  0  0  0  0  0  0
  124.2319  108.7129  105.4967 H   0  0  0  0  0  0  0  0  0  0  0  0
  126.5470  108.4862  104.4023 H   0  0  0  0  0  0  0  0  0  0  0  0
  125.5029  107.1959  103.8560 H   0  0  0  0  0  0  0  0  0  0  0  0
  125.1938  109.5863  108.6073 H   0  0  0  0  0  0  0  0  0  0  0  0
  125.0401  107.9423  108.7678 H   0  0  0  0  0  0  0  0  0  0  0  0
  123.9654  108.7883  107.8285 H   0  0  0  0  0  0  0  0  0  0  0  0
  1  4  1  0  0  0  0
  1 10  3  0  0  0  0
  2  4  1  0  0  0  0
  2  5  2  0  0  0  0
  3  4  2  0  0  0  0
  3  7  1  0  0  0  0
  5  6  1  0  0  0  0
  5  9  1  0  0  0  0
  6  7  2  0  0  0  0
  6 13  1  0  0  0  0
  7 14  1  0  0  0  0
  8  9  1  0  0  0  0
  8 12  1  0  0  0  0
  9 11  1  0  0  0  0
  2 15  1  0  0  0  0
  3 16  1  0  0  0  0
  8 17  1  0  0  0  0
  8 18  1  0  0  0  0
  9 19  1  0  0  0  0
 11 20  1  0  0  0  0
 11 21  1  0  0  0  0
 12 22  1  0  0  0  0
 12 23  1  0  0  0  0
 12 24  1  0  0  0  0
M  CHG  2  12   1  13  -1
M  END
> <FRED Chemgauss4 score>
-5.863211

$$$$
C69692471	P107338218
  -OEChem-05182014473D

 26 25  0     0  0  0  0  0  0999 V2000
  121.9201  106.1116  105.4139 C   0  0  0  0  0  0  0  0  0  0  0  0
  120.8983  104.0920  106.4916 C   0  0  0  0  0  0  0  0  0  0  0  0
  125.6627  106.5351  107.1188 C   0  0  0  0  0  0  0  0  0  0  0  0
  122.9838  106.1394  106.4899 C   0  0  0  0  0  0  0  0  0  0  0  0
  119.0923  104.3455  104.1328 C   0  0  0  0  0  0  0  0  0  0  0  0
  120.6065  104.4557  104.0714 C   0  0  0  0  0  0  0  0  0  0  0  0
  118.4660  105.6136  104.3940 N   0  0  0  0  0  0  0  0  0  0  0  0
  121.1708  104.9326  105.3281 N   0  0  0  0  0  0  0  0  0  0  0  0
  121.7457  107.0806  104.6709 O   0  0  0  0  0  0  0  0  0  0  0  0
  124.7556  106.7861  104.6802 O   0  0  0  0  0  0  0  0  0  0  0  0
  124.0962  108.5034  106.4087 O   0  0  0  0  0  0  0  0  0  0  0  0
  124.3756  107.1247  106.0419 S   0  0  0  0  0  0  0  0  0  0  0  0
  119.9698  104.4080  106.9742 H   0  0  0  0  0  0  0  0  0  0  0  0
  121.7150  104.1706  107.2143 H   0  0  0  0  0  0  0  0  0  0  0  0
  120.7987  103.0465  106.1876 H   0  0  0  0  0  0  0  0  0  0  0  0
  126.5733  107.0977  106.9073 H   0  0  0  0  0  0  0  0  0  0  0  0
  125.3469  106.6927  108.1512 H   0  0  0  0  0  0  0  0  0  0  0  0
  125.8153  105.4726  106.9232 H   0  0  0  0  0  0  0  0  0  0  0  0
  123.3636  105.1305  106.6717 H   0  0  0  0  0  0  0  0  0  0  0  0
  122.5800  106.5724  107.4089 H   0  0  0  0  0  0  0  0  0  0  0  0
  118.7737  103.6551  104.9203 H   0  0  0  0  0  0  0  0  0  0  0  0
  118.7024  103.9859  103.1755 H   0  0  0  0  0  0  0  0  0  0  0  0
  121.0499  103.4753  103.8717 H   0  0  0  0  0  0  0  0  0  0  0  0
  120.9244  105.1472  103.2845 H   0  0  0  0  0  0  0  0  0  0  0  0
  118.8923  106.2455  105.0528 H   0  0  0  0  0  0  0  0  0  0  0  0
  117.5212  105.7686  104.0799 H   0  0  0  0  0  0  0  0  0  0  0  0
  1  4  1  0  0  0  0
  1  8  1  0  0  0  0
  1  9  2  0  0  0  0
  2  8  1  0  0  0  0
  3 12  1  0  0  0  0
  4 12  1  0  0  0  0
  5  6  1  0  0  0  0
  5  7  1  0  0  0  0
  6  8  1  0  0  0  0
 10 12  2  0  0  0  0
 11 12  2  0  0  0  0
  2 13  1  0  0  0  0
  2 14  1  0  0  0  0
  2 15  1  0  0  0  0
  3 16  1  0  0  0  0
  3 17  1  0  0  0  0
  3 18  1  0  0  0  0
  4 19  1  0  0  0  0
  4 20  1  0  0  0  0
  5 21  1  0  0  0  0
  5 22  1  0  0  0  0
  6 23  1  0  0  0  0
  6 24  1  0  0  0  0
  7 25  1  0  0  0  0
  7 26  1  0  0  0  0
M  END
> <FRED Chemgauss4 score>
-5.862542

$$$$
C14241055	P21824158
  -OEChem-05182014473D

 20 20  0     1  0  0  0  0  0999 V2000
  124.2808  106.4289  106.4581 C   0  0  0  0  0  0  0  0  0  0  0  0
  122.9704  106.2466  106.1907 C   0  0  0  0  0  0  0  0  0  0  0  0
  124.7490  105.1558  107.0624 C   0  0  0  0  0  0  0  0  0  0  0  0
  125.0902  107.6137  106.2166 C   0  0  0  0  0  0  0  0  0  0  0  0
  123.6177  104.1649  107.1499 C   0  0  0  0  0  0  0  0  0  0  0  0
  121.2224  104.4199  106.4442 C   0  0  0  0  0  0  0  0  0  0  0  0
  122.5544  104.9639  106.5696 N   0  0  3  0  0  0  0  0  0  0  0  0
  122.1556  107.1886  105.6253 N   0  0  0  0  0  0  0  0  0  0  0  0
  124.6420  108.7388  106.8764 N   0  0  0  0  0  0  0  0  0  0  0  0
  125.8940  104.9521  107.4334 O   0  0  0  0  0  0  0  0  0  0  0  0
  126.0838  107.5918  105.4845 O   0  0  0  0  0  0  0  0  0  0  0  0
  123.8361  103.2817  106.5444 H   0  0  0  0  0  0  0  0  0  0  0  0
  123.4112  103.9130  108.1932 H   0  0  0  0  0  0  0  0  0  0  0  0
  121.1979  103.3949  106.8231 H   0  0  0  0  0  0  0  0  0  0  0  0
  120.9134  104.4149  105.3953 H   0  0  0  0  0  0  0  0  0  0  0  0
  120.5123  105.0235  107.0158 H   0  0  0  0  0  0  0  0  0  0  0  0
  122.5460  108.0733  105.3909 H   0  0  0  0  0  0  0  0  0  0  0  0
  121.2009  106.9564  105.4681 H   0  0  0  0  0  0  0  0  0  0  0  0
  123.8149  108.6679  107.4599 H   0  0  0  0  0  0  0  0  0  0  0  0
  125.1116  109.6357  106.7981 H   0  0  0  0  0  0  0  0  0  0  0  0
  1  2  2  0  0  0  0
  1  3  1  0  0  0  0
  1  4  1  0  0  0  0
  2  7  1  0  0  0  0
  2  8  1  0  0  0  0
  3  5  1  0  0  0  0
  3 10  2  0  0  0  0
  4  9  1  0  0  0  0
  4 11  2  0  0  0  0
  5  7  1  0  0  0  0
  6  7  1  0  0  0  0
  5 12  1  0  0  0  0
  5 13  1  0  0  0  0
  6 14  1  0  0  0  0
  6 15  1  0  0  0  0
  6 16  1  0  0  0  0
  8 17  1  0  0  0  0
  8 18  1  0  0  0  0
  9 19  1  0  0  0  0
  9 20  1  0  0  0  0
M  END
> <FRED Chemgauss4 score>
-5.860300

$$$$
C49691658	P74238157
  -OEChem-05182014473D

 28 28  0     1  0  0  0  0  0999 V2000
  120.5943  107.0881  105.6088 C   0  0  0  0  0  0  0  0  0  0  0  0
  121.9721  105.5707  104.2815 C   0  0  0  0  0  0  0  0  0  0  0  0
  119.9597  105.9725  106.4349 C   0  0  0  0  0  0  0  0  0  0  0  0
  121.4659  104.3135  104.9837 C   0  0  0  0  0  0  0  0  0  0  0  0
  122.9549  106.8018  106.1405 C   0  0  0  0  0  0  0  0  0  0  0  0
  125.4271  107.0682  106.6999 C   0  0  0  0  0  0  0  0  0  0  0  0
  124.3646  107.0475  105.6007 C   0  0  2  0  0  0  0  0  0  0  0  0
  121.9380  106.7952  105.0924 N   0  0  0  0  0  0  0  0  0  0  0  0
  125.1394  108.1239  107.6458 N   0  0  0  0  0  0  0  0  0  0  0  0
  119.3643  103.3579  106.3504 O   0  0  0  0  0  0  0  0  0  0  0  0
  124.3960  108.2966  104.9102 O   0  0  0  0  0  0  0  0  0  0  0  0
  119.7106  104.4841  105.4223 S   0  0  0  0  0  0  0  0  0  0  0  0
  119.9137  107.3755  104.7766 H   0  0  0  0  0  0  0  0  0  0  0  0
  120.6495  107.9841  106.2621 H   0  0  0  0  0  0  0  0  0  0  0  0
  123.0212  105.3723  103.9772 H   0  0  0  0  0  0  0  0  0  0  0  0
  121.4158  105.7212  103.3293 H   0  0  0  0  0  0  0  0  0  0  0  0
  120.5771  105.7137  107.3015 H   0  0  0  0  0  0  0  0  0  0  0  0
  118.9767  106.2851  106.7993 H   0  0  0  0  0  0  0  0  0  0  0  0
  121.5516  103.4490  104.3184 H   0  0  0  0  0  0  0  0  0  0  0  0
  122.0403  104.1021  105.8918 H   0  0  0  0  0  0  0  0  0  0  0  0
  122.8983  105.8390  106.6580 H   0  0  0  0  0  0  0  0  0  0  0  0
  122.6706  107.5913  106.8435 H   0  0  0  0  0  0  0  0  0  0  0  0
  126.4235  107.2458  106.2822 H   0  0  0  0  0  0  0  0  0  0  0  0
  125.4408  106.1144  107.2373 H   0  0  0  0  0  0  0  0  0  0  0  0
  124.6020  106.2660  104.8685 H   0  0  0  0  0  0  0  0  0  0  0  0
  124.7814  108.9961  107.3020 H   0  0  0  0  0  0  0  0  0  0  0  0
  125.4888  108.0409  108.5830 H   0  0  0  0  0  0  0  0  0  0  0  0
  123.7543  108.2262  104.1875 H   0  0  0  0  0  0  0  0  0  0  0  0
  1  3  1  0  0  0  0
  1  8  1  0  0  0  0
  2  4  1  0  0  0  0
  2  8  1  0  0  0  0
  3 12  1  0  0  0  0
  4 12  1  0  0  0  0
  5  7  1  0  0  0  0
  5  8  1  0  0  0  0
  6  7  1  0  0  0  0
  6  9  1  0  0  0  0
  7 11  1  0  0  0  0
 10 12  2  0  0  0  0
  1 13  1  0  0  0  0
  1 14  1  0  0  0  0
  2 15  1  0  0  0  0
  2 16  1  0  0  0  0
  3 17  1  0  0  0  0
  3 18  1  0  0  0  0
  4 19  1  0  0  0  0
  4 20  1  0  0  0  0
  5 21  1  0  0  0  0
  5 22  1  0  0  0  0
  6 23  1  0  0  0  0
  6 24  1  0  0  0  0
  7 25  1  0  0  0  0
  9 26  1  0  0  0  0
  9 27  1  0  0  0  0
 11 28  1  0  0  0  0
M  END
> <FRED Chemgauss4 score>
-5.859820

$$$$
C70125679	P108093639
  -OEChem-05182014473D

 20 20  0     0  0  0  0  0  0999 V2000
  124.2634  106.1186  106.8909 C   0  0  0  0  0  0  0  0  0  0  0  0
  123.4664  106.7340  105.9620 C   0  0  0  0  0  0  0  0  0  0  0  0
  121.9826  106.6684  105.9283 C   0  0  0  0  0  0  0  0  0  0  0  0
  119.9569  105.7365  107.0164 C   0  0  0  0  0  0  0  0  0  0  0  0
  119.5330  104.5089  106.2324 C   0  0  0  0  0  0  0  0  0  0  0  0
  125.5106  107.1783  105.5130 N   0  5  0  0  0  0  0  0  0  0  0  0
  125.5531  106.3878  106.6239 N   0  0  0  0  0  0  0  0  0  0  0  0
  124.2347  107.4056  105.0868 N   0  0  0  0  0  0  0  0  0  0  0  0
  121.4227  105.9208  106.9271 N   0  0  0  0  0  0  0  0  0  0  0  0
  120.2446  103.3139  106.7494 N   0  3  0  0  0  0  0  0  0  0  0  0
  121.3767  107.2480  105.0309 O   0  0  0  0  0  0  0  0  0  0  0  0
  123.9567  105.5030  107.7262 H   0  0  0  0  0  0  0  0  0  0  0  0
  119.4634  106.6390  106.6407 H   0  0  0  0  0  0  0  0  0  0  0  0
  119.6914  105.6177  108.0718 H   0  0  0  0  0  0  0  0  0  0  0  0
  119.8006  104.5995  105.1759 H   0  0  0  0  0  0  0  0  0  0  0  0
  118.4621  104.3044  106.3247 H   0  0  0  0  0  0  0  0  0  0  0  0
  121.9585  105.4135  107.6013 H   0  0  0  0  0  0  0  0  0  0  0  0
  120.3006  102.5821  106.0332 H   0  0  0  0  0  0  0  0  0  0  0  0
  119.7592  102.9227  107.5639 H   0  0  0  0  0  0  0  0  0  0  0  0
  121.2006  103.5513  107.0347 H   0  0  0  0  0  0  0  0  0  0  0  0
  1  2  1  0  0  0  0
  1  7  2  0  0  0  0
  2  3  1  0  0  0  0
  2  8  2  0  0  0  0
  3  9  1  0  0  0  0
  3 11  2  0  0  0  0
  4  5  1  0  0  0  0
  4  9  1  0  0  0  0
  5 10  1  0  0  0  0
  6  7  1  0  0  0  0
  6  8  1  0  0  0  0
  1 12  1  0  0  0  0
  4 13  1  0  0  0  0
  4 14  1  0  0  0  0
  5 15  1  0  0  0  0
  5 16  1  0  0  0  0
  9 17  1  0  0  0  0
 10 18  1  0  0  0  0
 10 19  1  0  0  0  0
 10 20  1  0  0  0  0
M  CHG  2   6  -1  10   1
M  END
> <FRED Chemgauss4 score>
-5.856910

$$$$
C37163577	P55271116
  -OEChem-05182014473D

 39 40  0     1  0  0  0  0  0999 V2000
  119.4064  107.3667  106.3738 C   0  0  0  0  0  0  0  0  0  0  0  0
  118.1157  106.9795  106.0801 C   0  0  0  0  0  0  0  0  0  0  0  0
  118.3354  108.9709  107.4176 C   0  0  0  0  0  0  0  0  0  0  0  0
  124.0867  104.4458  107.6676 C   0  0  0  0  0  0  0  0  0  0  0  0
  122.8847  105.3866  107.6340 C   0  0  0  0  0  0  0  0  0  0  0  0
  125.4024  105.2161  107.6914 C   0  0  0  0  0  0  0  0  0  0  0  0
  124.2978  107.1487  106.5015 C   0  0  0  0  0  0  0  0  0  0  0  0
  122.9756  106.3799  106.4725 C   0  0  2  0  0  0  0  0  0  0  0  0
  125.4980  106.2044  106.5302 C   0  0  1  0  0  0  0  0  0  0  0  0
  117.6226  105.8299  105.2953 C   0  0  0  0  0  0  0  0  0  0  0  0
  118.0713  110.1852  108.2199 C   0  0  0  0  0  0  0  0  0  0  0  0
  120.7936  106.5764  104.4117 C   0  0  0  0  0  0  0  0  0  0  0  0
  120.6701  106.6609  105.9316 C   0  0  1  0  0  0  0  0  0  0  0  0
  119.5344  108.5086  107.1403 N   0  0  0  0  0  0  0  0  0  0  0  0
  121.8552  107.2887  106.4954 N   0  0  0  0  0  0  0  0  0  0  0  0
  126.6842  106.9806  106.6591 O   0  0  0  0  0  0  0  0  0  0  0  0
  117.0092  108.0816  106.7890 S   0  0  0  0  0  0  0  0  0  0  0  0
  124.0228  103.7968  108.5483 H   0  0  0  0  0  0  0  0  0  0  0  0
  124.0628  103.7921  106.7869 H   0  0  0  0  0  0  0  0  0  0  0  0
  121.9652  104.7938  107.5537 H   0  0  0  0  0  0  0  0  0  0  0  0
  122.8295  105.9271  108.5884 H   0  0  0  0  0  0  0  0  0  0  0  0
  125.5034  105.7528  108.6440 H   0  0  0  0  0  0  0  0  0  0  0  0
  126.2475  104.5181  107.6543 H   0  0  0  0  0  0  0  0  0  0  0  0
  124.3766  107.8105  105.6292 H   0  0  0  0  0  0  0  0  0  0  0  0
  124.3387  107.8120  107.3772 H   0  0  0  0  0  0  0  0  0  0  0  0
  122.9346  105.8043  105.5266 H   0  0  0  0  0  0  0  0  0  0  0  0
  125.5582  105.6567  105.5822 H   0  0  0  0  0  0  0  0  0  0  0  0
  117.4679  104.9481  105.9380 H   0  0  0  0  0  0  0  0  0  0  0  0
  116.6654  106.0520  104.7940 H   0  0  0  0  0  0  0  0  0  0  0  0
  118.3266  105.5432  104.4957 H   0  0  0  0  0  0  0  0  0  0  0  0
  118.0229  111.0788  107.5781 H   0  0  0  0  0  0  0  0  0  0  0  0
  117.1200  110.1139  108.7720 H   0  0  0  0  0  0  0  0  0  0  0  0
  118.8541  110.3552  108.9772 H   0  0  0  0  0  0  0  0  0  0  0  0
  120.8029  107.5747  103.9605 H   0  0  0  0  0  0  0  0  0  0  0  0
  121.7225  106.0679  104.1296 H   0  0  0  0  0  0  0  0  0  0  0  0
  119.9686  106.0110  103.9641 H   0  0  0  0  0  0  0  0  0  0  0  0
  120.6662  105.6367  106.3246 H   0  0  0  0  0  0  0  0  0  0  0  0
  122.0907  108.1172  105.9526 H   0  0  0  0  0  0  0  0  0  0  0  0
  127.4275  106.3571  106.6427 H   0  0  0  0  0  0  0  0  0  0  0  0
  1  2  2  0  0  0  0
  1 13  1  0  0  0  0
  1 14  1  0  0  0  0
  2 10  1  0  0  0  0
  2 17  1  0  0  0  0
  3 11  1  0  0  0  0
  3 14  2  0  0  0  0
  3 17  1  0  0  0  0
  4  5  1  0  0  0  0
  4  6  1  0  0  0  0
  5  8  1  0  0  0  0
  6  9  1  0  0  0  0
  7  8  1  0  0  0  0
  7  9  1  0  0  0  0
  8 15  1  0  0  0  0
  9 16  1  0  0  0  0
 12 13  1  0  0  0  0
 13 15  1  0  0  0  0
  4 18  1  0  0  0  0
  4 19  1  0  0  0  0
  5 20  1  0  0  0  0
  5 21  1  0  0  0  0
  6 22  1  0  0  0  0
  6 23  1  0  0  0  0
  7 24  1  0  0  0  0
  7 25  1  0  0  0  0
  8 26  1  0  0  0  0
  9 27  1  0  0  0  0
 10 28  1  0  0  0  0
 10 29  1  0  0  0  0
 10 30  1  0  0  0  0
 11 31  1  0  0  0  0
 11 32  1  0  0  0  0
 11 33  1  0  0  0  0
 12 34  1  0  0  0  0
 12 35  1  0  0  0  0
 12 36  1  0  0  0  0
 13 37  1  0  0  0  0
 15 38  1  0  0  0  0
 16 39  1  0  0  0  0
M  END
> <FRED Chemgauss4 score>
-5.856760

$$$$
C04293662	P05643503
  -OEChem-05182014473D

 26 26  0     1  0  0  0  0  0999 V2000
  122.8337  106.6780  106.6250 C   0  0  2  0  0  0  0  0  0  0  0  0
  124.1573  107.1437  105.9980 C   0  0  2  0  0  0  0  0  0  0  0  0
  125.3098  107.0320  106.9998 C   0  0  2  0  0  0  0  0  0  0  0  0
  125.3599  105.6155  107.5815 C   0  0  1  0  0  0  0  0  0  0  0  0
  123.0185  105.2852  107.2532 C   0  0  1  0  0  0  0  0  0  0  0  0
  121.6978  106.6845  105.5961 C   0  0  0  0  0  0  0  0  0  0  0  0
  126.4327  105.4495  108.6511 C   0  0  0  0  0  0  0  0  0  0  0  0
  124.1016  105.2915  108.1851 O   0  0  0  0  0  0  0  0  0  0  0  0
  124.0358  108.4879  105.5431 O   0  0  0  0  0  0  0  0  0  0  0  0
  125.0989  107.9853  108.0432 O   0  0  0  0  0  0  0  0  0  0  0  0
  121.8144  104.9222  107.9253 O   0  0  0  0  0  0  0  0  0  0  0  0
  127.5944  106.1472  108.2386 O   0  0  0  0  0  0  0  0  0  0  0  0
  122.5466  107.3890  107.4124 H   0  0  0  0  0  0  0  0  0  0  0  0
  124.3802  106.5211  105.1220 H   0  0  0  0  0  0  0  0  0  0  0  0
  126.2546  107.2934  106.5095 H   0  0  0  0  0  0  0  0  0  0  0  0
  125.5600  104.8921  106.7807 H   0  0  0  0  0  0  0  0  0  0  0  0
  123.2113  104.5328  106.4780 H   0  0  0  0  0  0  0  0  0  0  0  0
  121.9327  105.9936  104.7906 H   0  0  0  0  0  0  0  0  0  0  0  0
  121.5809  107.6859  105.1899 H   0  0  0  0  0  0  0  0  0  0  0  0
  120.7713  106.3788  106.0753 H   0  0  0  0  0  0  0  0  0  0  0  0
  126.6739  104.3935  108.7776 H   0  0  0  0  0  0  0  0  0  0  0  0
  126.0833  105.8618  109.5983 H   0  0  0  0  0  0  0  0  0  0  0  0
  124.8934  108.7292  105.1592 H   0  0  0  0  0  0  0  0  0  0  0  0
  125.8427  107.8875  108.6560 H   0  0  0  0  0  0  0  0  0  0  0  0
  121.9661  104.0439  108.3072 H   0  0  0  0  0  0  0  0  0  0  0  0
  128.2618  106.0265  108.9353 H   0  0  0  0  0  0  0  0  0  0  0  0
  1  2  1  0  0  0  0
  1  5  1  0  0  0  0
  1  6  1  0  0  0  0
  2  3  1  0  0  0  0
  2  9  1  0  0  0  0
  3  4  1  0  0  0  0
  3 10  1  0  0  0  0
  4  7  1  0  0  0  0
  4  8  1  0  0  0  0
  5  8  1  0  0  0  0
  5 11  1  0  0  0  0
  7 12  1  0  0  0  0
  1 13  1  0  0  0  0
  2 14  1  0  0  0  0
  3 15  1  0  0  0  0
  4 16  1  0  0  0  0
  5 17  1  0  0  0  0
  6 18  1  0  0  0  0
  6 19  1  0  0  0  0
  6 20  1  0  0  0  0
  7 21  1  0  0  0  0
  7 22  1  0  0  0  0
  9 23  1  0  0  0  0
 10 24  1  0  0  0  0
 11 25  1  0  0  0  0
 12 26  1  0  0  0  0
M  END
> <FRED Chemgauss4 score>
-5.855476

$$$$
C69181716	P106379143
  -OEChem-05182014473D

 36 38  0     0  0  0  0  0  0999 V2000
  124.0904  106.6689  106.1042 C   0  0  0  0  0  0  0  0  0  0  0  0
  124.2901  105.6652  107.0288 C   0  0  0  0  0  0  0  0  0  0  0  0
  122.3270  105.4465  105.6501 C   0  0  0  0  0  0  0  0  0  0  0  0
  125.1222  108.5785  104.6376 C   0  0  0  0  0  0  0  0  0  0  0  0
  126.2629  107.7190  105.0847 C   0  0  0  0  0  0  0  0  0  0  0  0
  119.4890  105.0931  103.1431 C   0  0  0  0  0  0  0  0  0  0  0  0
  120.5558  105.8164  103.9705 C   0  0  0  0  0  0  0  0  0  0  0  0
  120.3635  103.9248  105.6615 C   0  0  0  0  0  0  0  0  0  0  0  0
  118.1647  104.7222  103.8266 C   0  0  0  0  0  0  0  0  0  0  0  0
  119.1520  104.4441  106.4363 C   0  0  0  0  0  0  0  0  0  0  0  0
  125.0322  107.8399  105.9525 C   0  0  0  0  0  0  0  0  0  0  0  0
  125.3696  105.4821  108.0202 C   0  0  0  0  0  0  0  0  0  0  0  0
  122.9654  106.5449  105.3125 N   0  0  0  0  0  0  0  0  0  0  0  0
  121.1398  105.0079  105.0499 N   0  0  0  0  0  0  0  0  0  0  0  0
  126.6091  105.0328  107.4252 N   0  0  0  0  0  0  0  0  0  0  0  0
  123.0231  104.5153  106.9124 S   0  0  0  0  0  0  0  0  0  0  0  0
  117.8992  105.3843  105.4979 S   0  0  0  0  0  0  0  0  0  0  0  0
  125.2576  109.6531  104.6703 H   0  0  0  0  0  0  0  0  0  0  0  0
  124.5253  108.2302  103.8031 H   0  0  0  0  0  0  0  0  0  0  0  0
  126.4335  106.7915  104.5508 H   0  0  0  0  0  0  0  0  0  0  0  0
  127.1676  108.2130  105.4190 H   0  0  0  0  0  0  0  0  0  0  0  0
  119.2406  105.7126  102.2661 H   0  0  0  0  0  0  0  0  0  0  0  0
  119.9439  104.1809  102.7244 H   0  0  0  0  0  0  0  0  0  0  0  0
  121.3517  106.1834  103.2963 H   0  0  0  0  0  0  0  0  0  0  0  0
  120.1173  106.7368  104.3990 H   0  0  0  0  0  0  0  0  0  0  0  0
  121.0075  103.3680  106.3546 H   0  0  0  0  0  0  0  0  0  0  0  0
  120.0498  103.1962  104.9035 H   0  0  0  0  0  0  0  0  0  0  0  0
  117.3155  105.0135  103.1870 H   0  0  0  0  0  0  0  0  0  0  0  0
  118.1096  103.6237  103.8924 H   0  0  0  0  0  0  0  0  0  0  0  0
  118.6292  103.5731  106.8884 H   0  0  0  0  0  0  0  0  0  0  0  0
  119.4797  105.0566  107.3069 H   0  0  0  0  0  0  0  0  0  0  0  0
  125.1458  108.4603  106.8582 H   0  0  0  0  0  0  0  0  0  0  0  0
  125.5954  106.4192  108.5589 H   0  0  0  0  0  0  0  0  0  0  0  0
  125.1036  104.7417  108.7948 H   0  0  0  0  0  0  0  0  0  0  0  0
  127.2518  104.5059  107.9878 H   0  0  0  0  0  0  0  0  0  0  0  0
  126.8910  105.4226  106.5444 H   0  0  0  0  0  0  0  0  0  0  0  0
  1  2  2  0  0  0  0
  1 11  1  0  0  0  0
  1 13  1  0  0  0  0
  2 12  1  0  0  0  0
  2 16  1  0  0  0  0
  3 13  2  0  0  0  0
  3 14  1  0  0  0  0
  3 16  1  0  0  0  0
  4  5  1  0  0  0  0
  4 11  1  0  0  0  0
  5 11  1  0  0  0  0
  6  7  1  0  0  0  0
  6  9  1  0  0  0  0
  7 14  1  0  0  0  0
  8 10  1  0  0  0  0
  8 14  1  0  0  0  0
  9 17  1  0  0  0  0
 10 17  1  0  0  0  0
 12 15  1  0  0  0  0
  4 18  1  0  0  0  0
  4 19  1  0  0  0  0
  5 20  1  0  0  0  0
  5 21  1  0  0  0  0
  6 22  1  0  0  0  0
  6 23  1  0  0  0  0
  7 24  1  0  0  0  0
  7 25  1  0  0  0  0
  8 26  1  0  0  0  0
  8 27  1  0  0  0  0
  9 28  1  0  0  0  0
  9 29  1  0  0  0  0
 10 30  1  0  0  0  0
 10 31  1  0  0  0  0
 11 32  1  0  0  0  0
 12 33  1  0  0  0  0
 12 34  1  0  0  0  0
 15 35  1  0  0  0  0
 15 36  1  0  0  0  0
M  END
> <FRED Chemgauss4 score>
-5.852995

$$$$
C88067605	P137750906
  -OEChem-05182014473D

 27 27  0     1  0  0  0  0  0999 V2000
  120.1444  106.9168  104.1078 C   0  0  0  0  0  0  0  0  0  0  0  0
  121.4478  106.3493  105.6362 C   0  0  0  0  0  0  0  0  0  0  0  0
  124.6047  106.2865  108.8264 C   0  0  0  0  0  0  0  0  0  0  0  0
  120.1636  104.3040  106.3656 C   0  0  0  0  0  0  0  0  0  0  0  0
  122.5591  106.2190  106.6372 C   0  0  0  0  0  0  0  0  0  0  0  0
  125.5857  105.9647  106.4922 C   0  0  0  0  0  0  0  0  0  0  0  0
  125.0143  106.9529  107.5154 C   0  0  1  0  0  0  0  0  0  0  0  0
  121.3072  107.2823  104.7234 N   0  0  0  0  0  0  0  0  0  0  0  0
  119.5567  105.8164  104.5824 N   0  0  0  0  0  0  0  0  0  0  0  0
  120.4104  105.4733  105.5590 N   0  0  0  0  0  0  0  0  0  0  0  0
  126.9904  105.6692  106.7551 N   0  0  0  0  0  0  0  0  0  0  0  0
  123.9508  108.1442  105.3705 O   0  0  0  0  0  0  0  0  0  0  0  0
  123.5648  107.8063  106.7714 S   0  0  1  0  0  0  0  0  0  0  0  0
  119.7119  107.4696  103.2876 H   0  0  0  0  0  0  0  0  0  0  0  0
  123.8713  105.4899  108.6592 H   0  0  0  0  0  0  0  0  0  0  0  0
  125.4692  105.8485  109.3356 H   0  0  0  0  0  0  0  0  0  0  0  0
  124.1542  107.0117  109.5131 H   0  0  0  0  0  0  0  0  0  0  0  0
  119.5666  104.6096  107.2289 H   0  0  0  0  0  0  0  0  0  0  0  0
  119.6251  103.5595  105.7726 H   0  0  0  0  0  0  0  0  0  0  0  0
  121.1183  103.8808  106.6902 H   0  0  0  0  0  0  0  0  0  0  0  0
  122.1590  105.9899  107.6306 H   0  0  0  0  0  0  0  0  0  0  0  0
  123.2392  105.4050  106.3647 H   0  0  0  0  0  0  0  0  0  0  0  0
  125.0178  105.0270  106.5062 H   0  0  0  0  0  0  0  0  0  0  0  0
  125.4984  106.3762  105.4796 H   0  0  0  0  0  0  0  0  0  0  0  0
  125.7466  107.7419  107.7229 H   0  0  0  0  0  0  0  0  0  0  0  0
  127.5603  105.3766  105.9906 H   0  0  0  0  0  0  0  0  0  0  0  0
  127.2805  105.5717  107.7045 H   0  0  0  0  0  0  0  0  0  0  0  0
  1  8  1  0  0  0  0
  1  9  2  0  0  0  0
  2  5  1  0  0  0  0
  2  8  2  0  0  0  0
  2 10  1  0  0  0  0
  3  7  1  0  0  0  0
  4 10  1  0  0  0  0
  5 13  1  0  0  0  0
  6  7  1  0  0  0  0
  6 11  1  0  0  0  0
  7 13  1  0  0  0  0
  9 10  1  0  0  0  0
 12 13  2  0  0  0  0
  1 14  1  0  0  0  0
  3 15  1  0  0  0  0
  3 16  1  0  0  0  0
  3 17  1  0  0  0  0
  4 18  1  0  0  0  0
  4 19  1  0  0  0  0
  4 20  1  0  0  0  0
  5 21  1  0  0  0  0
  5 22  1  0  0  0  0
  6 23  1  0  0  0  0
  6 24  1  0  0  0  0
  7 25  1  0  0  0  0
 11 26  1  0  0  0  0
 11 27  1  0  0  0  0
M  END
> <FRED Chemgauss4 score>
-5.850287

$$$$
C83947682	P131340967
  -OEChem-05182014473D

 21 21  0     1  0  0  0  0  0999 V2000
  124.5656  107.2496  105.6129 C   0  0  0  0  0  0  0  0  0  0  0  0
  123.4588  105.4715  106.2827 C   0  0  0  0  0  0  0  0  0  0  0  0
  124.6538  106.1260  106.4565 C   0  0  0  0  0  0  0  0  0  0  0  0
  125.2612  103.2773  107.5560 C   0  0  0  0  0  0  0  0  0  0  0  0
  125.5153  104.4607  108.1277 C   0  0  0  0  0  0  0  0  0  0  0  0
  121.4328  105.9245  104.8796 C   0  0  0  0  0  0  0  0  0  0  0  0
  125.8113  105.7236  107.3563 C   0  0  1  0  0  0  0  0  0  0  0  0
  123.4063  107.3086  104.9522 N   0  0  0  0  0  0  0  0  0  0  0  0
  122.7551  106.2138  105.3805 N   0  0  0  0  0  0  0  0  0  0  0  0
  127.0718  105.5956  106.6124 N   0  0  0  0  0  0  0  0  0  0  0  0
  125.2967  108.0287  105.4498 H   0  0  0  0  0  0  0  0  0  0  0  0
  123.0597  104.5628  106.7125 H   0  0  0  0  0  0  0  0  0  0  0  0
  125.0535  102.4057  108.1670 H   0  0  0  0  0  0  0  0  0  0  0  0
  125.2573  103.1562  106.4786 H   0  0  0  0  0  0  0  0  0  0  0  0
  125.5038  104.5170  109.2143 H   0  0  0  0  0  0  0  0  0  0  0  0
  120.7085  106.4084  105.5401 H   0  0  0  0  0  0  0  0  0  0  0  0
  121.3373  106.3092  103.8604 H   0  0  0  0  0  0  0  0  0  0  0  0
  121.2790  104.8419  104.8696 H   0  0  0  0  0  0  0  0  0  0  0  0
  125.9793  106.5332  108.0788 H   0  0  0  0  0  0  0  0  0  0  0  0
  127.7937  105.0499  107.0206 H   0  0  0  0  0  0  0  0  0  0  0  0
  127.2206  106.2136  105.8497 H   0  0  0  0  0  0  0  0  0  0  0  0
  1  3  1  0  0  0  0
  1  8  2  0  0  0  0
  2  3  2  0  0  0  0
  2  9  1  0  0  0  0
  3  7  1  0  0  0  0
  4  5  2  0  0  0  0
  5  7  1  0  0  0  0
  6  9  1  0  0  0  0
  7 10  1  0  0  0  0
  8  9  1  0  0  0  0
  1 11  1  0  0  0  0
  2 12  1  0  0  0  0
  4 13  1  0  0  0  0
  4 14  1  0  0  0  0
  5 15  1  0  0  0  0
  6 16  1  0  0  0  0
  6 17  1  0  0  0  0
  6 18  1  0  0  0  0
  7 19  1  0  0  0  0
 10 20  1  0  0  0  0
 10 21  1  0  0  0  0
M  END
> <FRED Chemgauss4 score>
-5.848917

$$$$
C05517275	P08195379
  -OEChem-05182014473D

 21 21  0     1  0  0  0  0  0999 V2000
  125.8488  105.8586  107.1563 C   0  0  0  0  0  0  0  0  0  0  0  0
  124.4654  107.9628  107.0948 C   0  0  0  0  0  0  0  0  0  0  0  0
  123.9727  106.0467  108.6277 C   0  0  0  0  0  0  0  0  0  0  0  0
  124.6170  104.6829  108.8063 C   0  0  0  0  0  0  0  0  0  0  0  0
  125.0566  106.8860  107.9413 C   0  0  1  0  0  0  0  0  0  0  0  0
  125.5285  104.6222  107.7032 N   0  0  0  0  0  0  0  0  0  0  0  0
  126.1389  103.4558  107.3157 N   0  0  0  0  0  0  0  0  0  0  0  0
  124.4966  110.3134  106.7256 N   0  0  0  0  0  0  0  0  0  0  0  0
  124.9315  109.2167  107.4409 N   0  0  0  0  0  0  0  0  0  0  0  0
  126.6251  106.1086  106.2464 O   0  0  0  0  0  0  0  0  0  0  0  0
  123.6773  107.7096  106.1865 O   0  0  0  0  0  0  0  0  0  0  0  0
  123.0850  105.9598  107.9875 H   0  0  0  0  0  0  0  0  0  0  0  0
  123.6474  106.4783  109.5795 H   0  0  0  0  0  0  0  0  0  0  0  0
  125.1895  104.6283  109.7383 H   0  0  0  0  0  0  0  0  0  0  0  0
  123.8881  103.8683  108.7643 H   0  0  0  0  0  0  0  0  0  0  0  0
  125.7271  107.3377  108.6834 H   0  0  0  0  0  0  0  0  0  0  0  0
  126.4071  103.4774  106.3152 H   0  0  0  0  0  0  0  0  0  0  0  0
  125.4930  102.6486  107.3786 H   0  0  0  0  0  0  0  0  0  0  0  0
  124.4484  111.0932  107.3800 H   0  0  0  0  0  0  0  0  0  0  0  0
  123.5356  110.1219  106.4454 H   0  0  0  0  0  0  0  0  0  0  0  0
  125.5843  109.3292  108.2102 H   0  0  0  0  0  0  0  0  0  0  0  0
  1  5  1  0  0  0  0
  1  6  1  0  0  0  0
  1 10  2  0  0  0  0
  2  5  1  0  0  0  0
  2  9  1  0  0  0  0
  2 11  2  0  0  0  0
  3  4  1  0  0  0  0
  3  5  1  0  0  0  0
  4  6  1  0  0  0  0
  6  7  1  0  0  0  0
  8  9  1  0  0  0  0
  3 12  1  0  0  0  0
  3 13  1  0  0  0  0
  4 14  1  0  0  0  0
  4 15  1  0  0  0  0
  5 16  1  0  0  0  0
  7 17  1  0  0  0  0
  7 18  1  0  0  0  0
  8 19  1  0  0  0  0
  8 20  1  0  0  0  0
  9 21  1  0  0  0  0
M  END
> <FRED Chemgauss4 score>
-5.836486

$$$$
C20286247	P30221172
  -OEChem-05182014473D

 17 17  0     0  0  0  0  0  0999 V2000
  123.8543  106.4372  106.2932 C   0  0  0  0  0  0  0  0  0  0  0  0
  124.7211  107.4540  106.1091 C   0  0  0  0  0  0  0  0  0  0  0  0
  124.5455  105.4895  107.2095 C   0  0  0  0  0  0  0  0  0  0  0  0
  122.5233  106.2800  105.7290 C   0  0  0  0  0  0  0  0  0  0  0  0
  125.9139  106.0125  107.5736 C   0  0  0  0  0  0  0  0  0  0  0  0
  125.8895  107.2379  106.8192 N   0  0  0  0  0  0  0  0  0  0  0  0
  124.5014  108.5561  105.3360 N   0  0  0  0  0  0  0  0  0  0  0  0
  121.8872  105.1183  106.1147 N   0  0  0  0  0  0  0  0  0  0  0  0
  124.0629  104.4402  107.6043 O   0  0  0  0  0  0  0  0  0  0  0  0
  122.0254  107.1218  104.9751 O   0  0  0  0  0  0  0  0  0  0  0  0
  125.9823  106.2016  108.6469 H   0  0  0  0  0  0  0  0  0  0  0  0
  126.6936  105.3360  107.2179 H   0  0  0  0  0  0  0  0  0  0  0  0
  126.6475  107.9068  106.7920 H   0  0  0  0  0  0  0  0  0  0  0  0
  123.6312  108.6372  104.8565 H   0  0  0  0  0  0  0  0  0  0  0  0
  125.2177  109.2466  105.2741 H   0  0  0  0  0  0  0  0  0  0  0  0
  122.3689  104.4794  106.7387 H   0  0  0  0  0  0  0  0  0  0  0  0
  120.9530  104.8812  105.7952 H   0  0  0  0  0  0  0  0  0  0  0  0
  1  2  2  0  0  0  0
  1  3  1  0  0  0  0
  1  4  1  0  0  0  0
  2  6  1  0  0  0  0
  2  7  1  0  0  0  0
  3  5  1  0  0  0  0
  3  9  2  0  0  0  0
  4  8  1  0  0  0  0
  4 10  2  0  0  0  0
  5  6  1  0  0  0  0
  5 11  1  0  0  0  0
  5 12  1  0  0  0  0
  6 13  1  0  0  0  0
  7 14  1  0  0  0  0
  7 15  1  0  0  0  0
  8 16  1  0  0  0  0
  8 17  1  0  0  0  0
M  END
> <FRED Chemgauss4 score>
-5.833315

$$$$
C85170083	P133262211
  -OEChem-05182014473D

 29 30  0     1  0  0  0  0  0999 V2000
  122.8640  105.8797  108.9871 C   0  0  0  0  0  0  0  0  0  0  0  0
  124.1948  104.2434  109.2737 C   0  0  0  0  0  0  0  0  0  0  0  0
  123.5483  105.7505  107.8015 C   0  0  0  0  0  0  0  0  0  0  0  0
  121.3764  105.5512  104.2539 C   0  0  0  0  0  0  0  0  0  0  0  0
  120.1408  106.2157  104.7881 C   0  0  0  0  0  0  0  0  0  0  0  0
  121.2898  105.9146  105.7111 C   0  0  0  0  0  0  0  0  0  0  0  0
  125.3404  104.1544  107.0523 C   0  0  0  0  0  0  0  0  0  0  0  0
  124.4418  107.7212  106.4504 C   0  0  0  0  0  0  0  0  0  0  0  0
  123.4706  106.5313  106.5011 C   0  0  2  0  0  0  0  0  0  0  0  0
  123.2713  104.9388  109.8995 N   0  0  0  0  0  0  0  0  0  0  0  0
  124.3974  104.6985  108.0005 N   0  0  0  0  0  0  0  0  0  0  0  0
  124.6686  108.1780  105.1040 N   0  0  0  0  0  0  0  0  0  0  0  0
  122.0996  106.9925  106.2520 N   0  0  0  0  0  0  0  0  0  0  0  0
  122.0984  106.6016  109.2325 H   0  0  0  0  0  0  0  0  0  0  0  0
  124.7450  103.4090  109.6869 H   0  0  0  0  0  0  0  0  0  0  0  0
  121.3039  104.5077  103.9720 H   0  0  0  0  0  0  0  0  0  0  0  0
  122.0336  106.1399  103.6255 H   0  0  0  0  0  0  0  0  0  0  0  0
  119.9682  107.2506  104.5187 H   0  0  0  0  0  0  0  0  0  0  0  0
  119.2410  105.6172  104.8638 H   0  0  0  0  0  0  0  0  0  0  0  0
  121.1486  105.0918  106.4046 H   0  0  0  0  0  0  0  0  0  0  0  0
  124.8316  103.3734  106.4810 H   0  0  0  0  0  0  0  0  0  0  0  0
  125.6879  104.9497  106.3871 H   0  0  0  0  0  0  0  0  0  0  0  0
  126.1963  103.7391  107.5916 H   0  0  0  0  0  0  0  0  0  0  0  0
  124.0331  108.5756  107.0018 H   0  0  0  0  0  0  0  0  0  0  0  0
  125.4189  107.4837  106.8842 H   0  0  0  0  0  0  0  0  0  0  0  0
  123.7300  105.8540  105.6768 H   0  0  0  0  0  0  0  0  0  0  0  0
  125.5199  108.6718  104.8914 H   0  0  0  0  0  0  0  0  0  0  0  0
  123.9012  108.1810  104.4522 H   0  0  0  0  0  0  0  0  0  0  0  0
  122.1317  107.7627  105.5901 H   0  0  0  0  0  0  0  0  0  0  0  0
  1  3  2  0  0  0  0
  1 10  1  0  0  0  0
  2 10  2  0  0  0  0
  2 11  1  0  0  0  0
  3  9  1  0  0  0  0
  3 11  1  0  0  0  0
  4  5  1  0  0  0  0
  4  6  1  0  0  0  0
  5  6  1  0  0  0  0
  6 13  1  0  0  0  0
  7 11  1  0  0  0  0
  8  9  1  0  0  0  0
  8 12  1  0  0  0  0
  9 13  1  0  0  0  0
  1 14  1  0  0  0  0
  2 15  1  0  0  0  0
  4 16  1  0  0  0  0
  4 17  1  0  0  0  0
  5 18  1  0  0  0  0
  5 19  1  0  0  0  0
  6 20  1  0  0  0  0
  7 21  1  0  0  0  0
  7 22  1  0  0  0  0
  7 23  1  0  0  0  0
  8 24  1  0  0  0  0
  8 25  1  0  0  0  0
  9 26  1  0  0  0  0
 12 27  1  0  0  0  0
 12 28  1  0  0  0  0
 13 29  1  0  0  0  0
M  END
> <FRED Chemgauss4 score>
-5.829515

$$$$
C86437548	P135333756
  -OEChem-05182014473D

 36 38  0     1  0  0  0  0  0999 V2000
  122.4004  106.6048  106.5730 C   0  0  0  0  0  0  0  0  0  0  0  0
  123.6667  106.9517  106.2765 C   0  0  0  0  0  0  0  0  0  0  0  0
  122.2198  106.3248  108.0156 C   0  0  0  0  0  0  0  0  0  0  0  0
  121.3062  106.5160  105.6066 C   0  0  0  0  0  0  0  0  0  0  0  0
  125.6675  105.8922  107.2203 C   0  0  0  0  0  0  0  0  0  0  0  0
  117.9390  104.7112  105.7637 C   0  0  0  0  0  0  0  0  0  0  0  0
  117.9327  106.1347  105.2915 C   0  0  0  0  0  0  0  0  0  0  0  0
  125.7093  102.2982  106.7989 C   0  0  0  0  0  0  0  0  0  0  0  0
  125.7127  102.1921  108.2949 C   0  0  0  0  0  0  0  0  0  0  0  0
  124.6499  106.9696  107.4133 C   0  0  2  0  0  0  0  0  0  0  0  0
  119.1788  105.3038  105.1517 C   0  0  0  0  0  0  0  0  0  0  0  0
  126.1158  103.4817  107.6337 C   0  0  0  0  0  0  0  0  0  0  0  0
  124.1949  107.3606  104.9318 C   0  0  0  0  0  0  0  0  0  0  0  0
  121.1422  105.9393  108.6006 N   0  0  0  0  0  0  0  0  0  0  0  0
  120.3536  105.5708  105.9501 N   0  0  0  0  0  0  0  0  0  0  0  0
  125.2841  104.6608  107.7163 N   0  0  0  0  0  0  0  0  0  0  0  0
  121.2812  107.2339  104.6055 O   0  0  0  0  0  0  0  0  0  0  0  0
  126.7258  106.1539  106.6606 O   0  0  0  0  0  0  0  0  0  0  0  0
  123.7016  106.5950  108.9052 S   0  0  0  0  0  0  0  0  0  0  0  0
  117.9241  104.5353  106.8324 H   0  0  0  0  0  0  0  0  0  0  0  0
  117.3874  103.9838  105.1810 H   0  0  0  0  0  0  0  0  0  0  0  0
  117.3772  106.3654  104.3909 H   0  0  0  0  0  0  0  0  0  0  0  0
  117.9136  106.9143  106.0431 H   0  0  0  0  0  0  0  0  0  0  0  0
  126.4771  101.7622  106.2544 H   0  0  0  0  0  0  0  0  0  0  0  0
  124.7499  102.3403  106.2981 H   0  0  0  0  0  0  0  0  0  0  0  0
  124.7557  102.1630  108.8010 H   0  0  0  0  0  0  0  0  0  0  0  0
  126.4826  101.5848  108.7546 H   0  0  0  0  0  0  0  0  0  0  0  0
  125.1431  107.9403  107.5133 H   0  0  0  0  0  0  0  0  0  0  0  0
  119.4325  104.9725  104.1506 H   0  0  0  0  0  0  0  0  0  0  0  0
  127.1725  103.7259  107.6483 H   0  0  0  0  0  0  0  0  0  0  0  0
  124.1035  108.4381  104.8200 H   0  0  0  0  0  0  0  0  0  0  0  0
  123.6242  106.8621  104.1519 H   0  0  0  0  0  0  0  0  0  0  0  0
  125.2401  107.0716  104.8508 H   0  0  0  0  0  0  0  0  0  0  0  0
  121.3195  105.8264  109.6053 H   0  0  0  0  0  0  0  0  0  0  0  0
  120.4874  105.0391  106.8054 H   0  0  0  0  0  0  0  0  0  0  0  0
  124.3742  104.5804  108.1602 H   0  0  0  0  0  0  0  0  0  0  0  0
  1  2  2  0  0  0  0
  1  3  1  0  0  0  0
  1  4  1  0  0  0  0
  2 10  1  0  0  0  0
  2 13  1  0  0  0  0
  3 14  2  0  0  0  0
  3 19  1  0  0  0  0
  4 15  1  0  0  0  0
  4 17  2  0  0  0  0
  5 10  1  0  0  0  0
  5 16  1  0  0  0  0
  5 18  2  0  0  0  0
  6  7  1  0  0  0  0
  6 11  1  0  0  0  0
  7 11  1  0  0  0  0
  8  9  1  0  0  0  0
  8 12  1  0  0  0  0
  9 12  1  0  0  0  0
 10 19  1  0  0  0  0
 11 15  1  0  0  0  0
 12 16  1  0  0  0  0
  6 20  1  0  0  0  0
  6 21  1  0  0  0  0
  7 22  1  0  0  0  0
  7 23  1  0  0  0  0
  8 24  1  0  0  0  0
  8 25  1  0  0  0  0
  9 26  1  0  0  0  0
  9 27  1  0  0  0  0
 10 28  1  0  0  0  0
 11 29  1  0  0  0  0
 12 30  1  0  0  0  0
 13 31  1  0  0  0  0
 13 32  1  0  0  0  0
 13 33  1  0  0  0  0
 14 34  1  0  0  0  0
 15 35  1  0  0  0  0
 16 36  1  0  0  0  0
M  END
> <FRED Chemgauss4 score>
-5.822451

$$$$
C82381623	P128718450
  -OEChem-05182014473D

 29 30  0     1  0  0  0  0  0999 V2000
  120.1711  105.7175  103.8735 C   0  0  0  0  0  0  0  0  0  0  0  0
  121.2930  106.2198  104.5234 C   0  0  0  0  0  0  0  0  0  0  0  0
  119.7202  104.4588  104.2372 C   0  0  0  0  0  0  0  0  0  0  0  0
  127.1714  106.0575  108.1349 C   0  0  0  0  0  0  0  0  0  0  0  0
  121.3914  104.2119  105.7941 C   0  0  0  0  0  0  0  0  0  0  0  0
  126.4554  105.3198  109.0479 C   0  0  0  0  0  0  0  0  0  0  0  0
  121.9208  105.4589  105.5032 C   0  0  0  0  0  0  0  0  0  0  0  0
  125.4494  105.3728  107.0878 C   0  0  0  0  0  0  0  0  0  0  0  0
  124.2955  104.0689  108.9030 C   0  0  0  0  0  0  0  0  0  0  0  0
  124.3974  105.0917  106.0392 C   0  0  0  0  0  0  0  0  0  0  0  0
  123.1221  105.9687  106.2167 C   0  0  1  0  0  0  0  0  0  0  0  0
  120.3035  103.6903  105.1841 N   0  0  0  0  0  0  0  0  0  0  0  0
  126.5397  106.0869  106.9168 N   0  0  0  0  0  0  0  0  0  0  0  0
  125.3547  104.8881  108.3627 N   0  0  0  0  0  0  0  0  0  0  0  0
  123.4665  107.3517  105.8148 N   0  0  0  0  0  0  0  0  0  0  0  0
  119.6654  106.2931  103.1067 H   0  0  0  0  0  0  0  0  0  0  0  0
  121.6705  107.2041  104.2602 H   0  0  0  0  0  0  0  0  0  0  0  0
  118.8491  104.0223  103.7597 H   0  0  0  0  0  0  0  0  0  0  0  0
  128.1096  106.5690  108.2927 H   0  0  0  0  0  0  0  0  0  0  0  0
  121.8386  103.5730  106.5494 H   0  0  0  0  0  0  0  0  0  0  0  0
  126.6281  105.0747  110.0866 H   0  0  0  0  0  0  0  0  0  0  0  0
  123.5329  104.7336  109.3173 H   0  0  0  0  0  0  0  0  0  0  0  0
  123.8717  103.4501  108.1072 H   0  0  0  0  0  0  0  0  0  0  0  0
  124.7029  103.4196  109.6830 H   0  0  0  0  0  0  0  0  0  0  0  0
  124.1488  104.0227  106.0968 H   0  0  0  0  0  0  0  0  0  0  0  0
  124.8263  105.2364  105.0388 H   0  0  0  0  0  0  0  0  0  0  0  0
  122.9172  106.0290  107.3038 H   0  0  0  0  0  0  0  0  0  0  0  0
  124.3997  107.6411  105.9577 H   0  0  0  0  0  0  0  0  0  0  0  0
  122.7152  107.9630  105.6222 H   0  0  0  0  0  0  0  0  0  0  0  0
  1  2  2  0  0  0  0
  1  3  1  0  0  0  0
  2  7  1  0  0  0  0
  3 12  2  0  0  0  0
  4  6  2  0  0  0  0
  4 13  1  0  0  0  0
  5  7  2  0  0  0  0
  5 12  1  0  0  0  0
  6 14  1  0  0  0  0
  7 11  1  0  0  0  0
  8 10  1  0  0  0  0
  8 13  2  0  0  0  0
  8 14  1  0  0  0  0
  9 14  1  0  0  0  0
 10 11  1  0  0  0  0
 11 15  1  0  0  0  0
  1 16  1  0  0  0  0
  2 17  1  0  0  0  0
  3 18  1  0  0  0  0
  4 19  1  0  0  0  0
  5 20  1  0  0  0  0
  6 21  1  0  0  0  0
  9 22  1  0  0  0  0
  9 23  1  0  0  0  0
  9 24  1  0  0  0  0
 10 25  1  0  0  0  0
 10 26  1  0  0  0  0
 11 27  1  0  0  0  0
 15 28  1  0  0  0  0
 15 29  1  0  0  0  0
M  END
> <FRED Chemgauss4 score>
-5.819074

$$$$
C62939634	P96575290
  -OEChem-05182014473D

 25 26  0     0  0  0  0  0  0999 V2000
  123.4863  104.6113  108.9701 C   0  0  0  0  0  0  0  0  0  0  0  0
  122.3080  104.9426  108.3438 C   0  0  0  0  0  0  0  0  0  0  0  0
  124.0553  105.5177  107.1302 C   0  0  0  0  0  0  0  0  0  0  0  0
  121.8338  106.0167  106.2035 C   0  0  0  0  0  0  0  0  0  0  0  0
  119.8601  104.4763  106.5639 C   0  0  0  0  0  0  0  0  0  0  0  0
  124.8410  106.0810  105.9716 C   0  0  0  0  0  0  0  0  0  0  0  0
  124.8877  107.6070  105.9697 C   0  0  0  0  0  0  0  0  0  0  0  0
  124.5703  104.9722  108.2096 N   0  0  0  0  0  0  0  0  0  0  0  0
  122.0896  107.0137  105.3881 N   0  0  0  0  0  0  0  0  0  0  0  0
  120.9623  107.1563  104.6109 N   0  0  0  0  0  0  0  0  0  0  0  0
  120.0373  106.2644  104.9440 N   0  0  0  0  0  0  0  0  0  0  0  0
  122.6886  105.5227  107.1666 N   0  0  0  0  0  0  0  0  0  0  0  0
  120.5844  105.5534  105.9398 N   0  0  0  0  0  0  0  0  0  0  0  0
  125.6164  108.1355  104.8478 N   0  0  0  0  0  0  0  0  0  0  0  0
  123.6093  104.1314  109.9300 H   0  0  0  0  0  0  0  0  0  0  0  0
  121.2722  104.8174  108.6296 H   0  0  0  0  0  0  0  0  0  0  0  0
  119.2967  104.8909  107.4040 H   0  0  0  0  0  0  0  0  0  0  0  0
  119.1821  104.0232  105.8353 H   0  0  0  0  0  0  0  0  0  0  0  0
  120.5680  103.7195  106.9133 H   0  0  0  0  0  0  0  0  0  0  0  0
  124.3831  105.7311  105.0377 H   0  0  0  0  0  0  0  0  0  0  0  0
  125.8594  105.6720  105.9801 H   0  0  0  0  0  0  0  0  0  0  0  0
  123.8725  108.0111  105.9053 H   0  0  0  0  0  0  0  0  0  0  0  0
  125.3537  107.9981  106.8801 H   0  0  0  0  0  0  0  0  0  0  0  0
  126.0243  109.0542  104.9159 H   0  0  0  0  0  0  0  0  0  0  0  0
  125.5382  107.6795  103.9528 H   0  0  0  0  0  0  0  0  0  0  0  0
  1  2  2  0  0  0  0
  1  8  1  0  0  0  0
  2 12  1  0  0  0  0
  3  6  1  0  0  0  0
  3  8  2  0  0  0  0
  3 12  1  0  0  0  0
  4  9  2  0  0  0  0
  4 12  1  0  0  0  0
  4 13  1  0  0  0  0
  5 13  1  0  0  0  0
  6  7  1  0  0  0  0
  7 14  1  0  0  0  0
  9 10  1  0  0  0  0
 10 11  2  0  0  0  0
 11 13  1  0  0  0  0
  1 15  1  0  0  0  0
  2 16  1  0  0  0  0
  5 17  1  0  0  0  0
  5 18  1  0  0  0  0
  5 19  1  0  0  0  0
  6 20  1  0  0  0  0
  6 21  1  0  0  0  0
  7 22  1  0  0  0  0
  7 23  1  0  0  0  0
 14 24  1  0  0  0  0
 14 25  1  0  0  0  0
M  END
> <FRED Chemgauss4 score>
-5.813915

$$$$
C36305538	P53957599
  -OEChem-05182014473D

 24 25  0     1  0  0  0  0  0999 V2000
  120.8883  106.2185  104.6259 C   0  0  0  0  0  0  0  0  0  0  0  0
  121.6719  105.3057  106.3318 C   0  0  0  0  0  0  0  0  0  0  0  0
  126.0384  106.5148  107.1906 C   0  0  0  0  0  0  0  0  0  0  0  0
  125.6762  105.6873  108.4250 C   0  0  0  0  0  0  0  0  0  0  0  0
  123.5358  106.7068  108.2793 C   0  0  0  0  0  0  0  0  0  0  0  0
  123.6005  106.9814  106.7619 C   0  0  1  0  0  0  0  0  0  0  0  0
  124.9207  106.4495  106.1493 C   0  0  1  0  0  0  0  0  0  0  0  0
  120.7053  105.1506  105.4571 N   0  0  0  0  0  0  0  0  0  0  0  0
  121.9073  107.0246  104.9314 N   0  0  0  0  0  0  0  0  0  0  0  0
  122.3917  106.4184  106.0260 N   0  0  0  0  0  0  0  0  0  0  0  0
  125.2783  107.2140  104.9530 N   0  0  0  0  0  0  0  0  0  0  0  0
  124.2686  105.5312  108.6125 O   0  0  0  0  0  0  0  0  0  0  0  0
  120.2584  106.4168  103.7718 H   0  0  0  0  0  0  0  0  0  0  0  0
  121.8864  104.6668  107.1768 H   0  0  0  0  0  0  0  0  0  0  0  0
  126.1898  107.5561  107.5050 H   0  0  0  0  0  0  0  0  0  0  0  0
  126.9852  106.1555  106.7705 H   0  0  0  0  0  0  0  0  0  0  0  0
  126.1514  104.6871  108.3852 H   0  0  0  0  0  0  0  0  0  0  0  0
  126.0778  106.1797  109.3295 H   0  0  0  0  0  0  0  0  0  0  0  0
  123.9788  107.5438  108.8303 H   0  0  0  0  0  0  0  0  0  0  0  0
  122.4999  106.6061  108.6270 H   0  0  0  0  0  0  0  0  0  0  0  0
  123.5297  108.0740  106.5805 H   0  0  0  0  0  0  0  0  0  0  0  0
  124.7722  105.4047  105.8443 H   0  0  0  0  0  0  0  0  0  0  0  0
  124.5399  107.5348  104.3681 H   0  0  0  0  0  0  0  0  0  0  0  0
  126.2308  107.2079  104.6646 H   0  0  0  0  0  0  0  0  0  0  0  0
  1  8  1  0  0  0  0
  1  9  2  0  0  0  0
  2  8  2  0  0  0  0
  2 10  1  0  0  0  0
  3  4  1  0  0  0  0
  3  7  1  0  0  0  0
  4 12  1  0  0  0  0
  5  6  1  0  0  0  0
  5 12  1  0  0  0  0
  6  7  1  0  0  0  0
  6 10  1  0  0  0  0
  7 11  1  0  0  0  0
  9 10  1  0  0  0  0
  1 13  1  0  0  0  0
  2 14  1  0  0  0  0
  3 15  1  0  0  0  0
  3 16  1  0  0  0  0
  4 17  1  0  0  0  0
  4 18  1  0  0  0  0
  5 19  1  0  0  0  0
  5 20  1  0  0  0  0
  6 21  1  0  0  0  0
  7 22  1  0  0  0  0
 11 23  1  0  0  0  0
 11 24  1  0  0  0  0
M  END
> <FRED Chemgauss4 score>
-5.810356

$$$$
C42294727	P63999288
  -OEChem-05182014473D

 28 28  0     1  0  0  0  0  0999 V2000
  120.1225  106.7186  104.6587 C   0  0  0  0  0  0  0  0  0  0  0  0
  124.4805  107.3877  106.1308 C   0  0  0  0  0  0  0  0  0  0  0  0
  120.8132  106.9782  107.9855 C   0  0  0  0  0  0  0  0  0  0  0  0
  120.2335  105.9440  107.0307 C   0  0  0  0  0  0  0  0  0  0  0  0
  121.5998  107.9216  107.0949 C   0  0  0  0  0  0  0  0  0  0  0  0
  120.9973  106.1232  105.7213 C   0  0  2  0  0  0  0  0  0  0  0  0
  118.0550  106.3278  103.3338 C   0  0  0  0  0  0  0  0  0  0  0  0
  123.3278  106.4241  106.2945 C   0  0  0  0  0  0  0  0  0  0  0  0
  122.0698  107.0990  105.9697 N   0  0  2  0  0  0  0  0  0  0  0  0
  125.5176  107.1157  106.9970 N   0  0  0  0  0  0  0  0  0  0  0  0
  119.0276  105.9419  104.3309 N   0  0  0  0  0  0  0  0  0  0  0  0
  120.4168  107.8040  104.1718 O   0  0  0  0  0  0  0  0  0  0  0  0
  124.5112  108.2831  105.2910 O   0  0  0  0  0  0  0  0  0  0  0  0
  119.9976  107.5192  108.4922 H   0  0  0  0  0  0  0  0  0  0  0  0
  121.4378  106.5181  108.7645 H   0  0  0  0  0  0  0  0  0  0  0  0
  120.4256  104.9383  107.4324 H   0  0  0  0  0  0  0  0  0  0  0  0
  119.1451  106.0587  106.9378 H   0  0  0  0  0  0  0  0  0  0  0  0
  120.9736  108.7663  106.7467 H   0  0  0  0  0  0  0  0  0  0  0  0
  122.4498  108.3572  107.6611 H   0  0  0  0  0  0  0  0  0  0  0  0
  121.3721  105.1532  105.3610 H   0  0  0  0  0  0  0  0  0  0  0  0
  117.2491  106.9024  103.7977 H   0  0  0  0  0  0  0  0  0  0  0  0
  117.6268  105.4402  102.8601 H   0  0  0  0  0  0  0  0  0  0  0  0
  118.5274  106.9429  102.5632 H   0  0  0  0  0  0  0  0  0  0  0  0
  123.2629  106.0643  107.3250 H   0  0  0  0  0  0  0  0  0  0  0  0
  123.4572  105.5798  105.6119 H   0  0  0  0  0  0  0  0  0  0  0  0
  125.4615  106.3419  107.6508 H   0  0  0  0  0  0  0  0  0  0  0  0
  126.3688  107.6683  107.0167 H   0  0  0  0  0  0  0  0  0  0  0  0
  118.9003  105.0575  104.8136 H   0  0  0  0  0  0  0  0  0  0  0  0
  1  6  1  0  0  0  0
  1 11  1  0  0  0  0
  1 12  2  0  0  0  0
  2  8  1  0  0  0  0
  2 10  1  0  0  0  0
  2 13  2  0  0  0  0
  3  4  1  0  0  0  0
  3  5  1  0  0  0  0
  4  6  1  0  0  0  0
  5  9  1  0  0  0  0
  6  9  1  0  0  0  0
  7 11  1  0  0  0  0
  8  9  1  0  0  0  0
  3 14  1  0  0  0  0
  3 15  1  0  0  0  0
  4 16  1  0  0  0  0
  4 17  1  0  0  0  0
  5 18  1  0  0  0  0
  5 19  1  0  0  0  0
  6 20  1  0  0  0  0
  7 21  1  0  0  0  0
  7 22  1  0  0  0  0
  7 23  1  0  0  0  0
  8 24  1  0  0  0  0
  8 25  1  0  0  0  0
 10 26  1  0  0  0  0
 10 27  1  0  0  0  0
 11 28  1  0  0  0  0
M  END
> <FRED Chemgauss4 score>
-5.807356

$$$$
C72200101	P112162253
  -OEChem-05182014473D

 24 24  0     1  0  0  0  0  0999 V2000
  123.8382  104.4538  109.2489 C   0  0  0  0  0  0  0  0  0  0  0  0
  125.1284  106.1525  108.0531 C   0  0  0  0  0  0  0  0  0  0  0  0
  125.2888  107.0113  106.9658 C   0  0  0  0  0  0  0  0  0  0  0  0
  123.0360  105.3740  107.1294 C   0  0  0  0  0  0  0  0  0  0  0  0
  124.0020  105.3338  108.1349 C   0  0  0  0  0  0  0  0  0  0  0  0
  123.1965  106.2329  106.0421 C   0  0  0  0  0  0  0  0  0  0  0  0
  124.3229  107.0516  105.9603 C   0  0  0  0  0  0  0  0  0  0  0  0
  120.9972  105.2457  105.3211 C   0  0  0  0  0  0  0  0  0  0  0  0
  122.1156  106.2333  104.9807 C   0  0  1  0  0  0  0  0  0  0  0  0
  123.7053  103.7392  110.1536 N   0  0  0  0  0  0  0  0  0  0  0  0
  121.5933  107.5677  104.7831 N   0  0  0  0  0  0  0  0  0  0  0  0
  119.9813  105.2496  104.2371 N   0  3  0  0  0  0  0  0  0  0  0  0
  124.4897  107.8486  104.9690 O   0  5  0  0  0  0  0  0  0  0  0  0
  125.8898  106.1322  108.8292 H   0  0  0  0  0  0  0  0  0  0  0  0
  126.1778  107.6392  106.9276 H   0  0  0  0  0  0  0  0  0  0  0  0
  122.1562  104.7363  107.1892 H   0  0  0  0  0  0  0  0  0  0  0  0
  121.3533  104.2139  105.4069 H   0  0  0  0  0  0  0  0  0  0  0  0
  120.4707  105.5233  106.2400 H   0  0  0  0  0  0  0  0  0  0  0  0
  122.5587  105.9481  104.0180 H   0  0  0  0  0  0  0  0  0  0  0  0
  120.6862  107.6745  104.3673 H   0  0  0  0  0  0  0  0  0  0  0  0
  122.2174  108.3485  104.8723 H   0  0  0  0  0  0  0  0  0  0  0  0
  119.0346  105.1850  104.6241 H   0  0  0  0  0  0  0  0  0  0  0  0
  120.1208  104.4554  103.6043 H   0  0  0  0  0  0  0  0  0  0  0  0
  120.0408  106.1107  103.6844 H   0  0  0  0  0  0  0  0  0  0  0  0
  1  5  1  0  0  0  0
  1 10  3  0  0  0  0
  2  3  1  0  0  0  0
  2  5  2  0  0  0  0
  3  7  2  0  0  0  0
  4  5  1  0  0  0  0
  4  6  2  0  0  0  0
  6  7  1  0  0  0  0
  6  9  1  0  0  0  0
  7 13  1  0  0  0  0
  8  9  1  0  0  0  0
  8 12  1  0  0  0  0
  9 11  1  0  0  0  0
  2 14  1  0  0  0  0
  3 15  1  0  0  0  0
  4 16  1  0  0  0  0
  8 17  1  0  0  0  0
  8 18  1  0  0  0  0
  9 19  1  0  0  0  0
 11 20  1  0  0  0  0
 11 21  1  0  0  0  0
 12 22  1  0  0  0  0
 12 23  1  0  0  0  0
 12 24  1  0  0  0  0
M  CHG  2  12   1  13  -1
M  END
> <FRED Chemgauss4 score>
-5.800861

$$$$
C55153518	P83084771
  -OEChem-05182014473D

 45 47  0     1  0  0  0  0  0999 V2000
  117.5157  107.4261  105.5062 C   0  0  0  0  0  0  0  0  0  0  0  0
  118.0169  107.0568  104.2246 C   0  0  0  0  0  0  0  0  0  0  0  0
  119.6005  104.2768  101.1057 C   0  0  0  0  0  0  0  0  0  0  0  0
  117.0711  106.3362  106.2217 C   0  0  0  0  0  0  0  0  0  0  0  0
  119.6844  105.0333  102.2490 C   0  0  0  0  0  0  0  0  0  0  0  0
  118.3784  105.0235  102.7742 C   0  0  0  0  0  0  0  0  0  0  0  0
  117.9364  105.6985  104.0094 C   0  0  0  0  0  0  0  0  0  0  0  0
  121.8258  106.0441  105.0836 C   0  0  0  0  0  0  0  0  0  0  0  0
  125.9966  105.2452  108.2972 C   0  0  0  0  0  0  0  0  0  0  0  0
  121.1466  104.9332  108.6791 C   0  0  0  0  0  0  0  0  0  0  0  0
  120.8503  105.4955  107.2932 C   0  0  0  0  0  0  0  0  0  0  0  0
  122.4238  105.5382  109.2634 C   0  0  0  0  0  0  0  0  0  0  0  0
  123.3232  105.9448  107.0484 C   0  0  0  0  0  0  0  0  0  0  0  0
  122.0730  105.3519  106.3888 C   0  0  2  0  0  0  0  0  0  0  0  0
  120.9072  105.7105  102.7972 C   0  0  0  0  0  0  0  0  0  0  0  0
  124.7901  105.8707  108.9586 C   0  0  0  0  0  0  0  0  0  0  0  0
  117.5270  104.3170  102.0260 N   0  0  0  0  0  0  0  0  0  0  0  0
  118.2997  103.8758  101.0189 N   0  0  0  0  0  0  0  0  0  0  0  0
  123.5669  105.3336  108.3629 N   0  0  1  0  0  0  0  0  0  0  0  0
  126.4134  104.1010  108.9429 N   0  0  0  0  0  0  0  0  0  0  0  0
  121.2347  105.2431  104.1251 N   0  0  0  0  0  0  0  0  0  0  0  0
  122.1456  107.2198  104.9531 O   0  0  0  0  0  0  0  0  0  0  0  0
  126.5193  105.6792  107.2743 O   0  0  0  0  0  0  0  0  0  0  0  0
  117.2586  104.8748  105.3489 S   0  0  0  0  0  0  0  0  0  0  0  0
  117.4837  108.4397  105.8842 H   0  0  0  0  0  0  0  0  0  0  0  0
  118.4150  107.7592  103.5024 H   0  0  0  0  0  0  0  0  0  0  0  0
  120.3313  103.9927  100.3620 H   0  0  0  0  0  0  0  0  0  0  0  0
  116.6457  106.3277  107.2152 H   0  0  0  0  0  0  0  0  0  0  0  0
  120.3019  105.1346  109.3474 H   0  0  0  0  0  0  0  0  0  0  0  0
  121.2514  103.8425  108.6168 H   0  0  0  0  0  0  0  0  0  0  0  0
  119.9890  104.9769  106.8555 H   0  0  0  0  0  0  0  0  0  0  0  0
  120.5652  106.5522  107.3803 H   0  0  0  0  0  0  0  0  0  0  0  0
  122.2677  106.6071  109.4603 H   0  0  0  0  0  0  0  0  0  0  0  0
  122.6198  105.0545  110.2281 H   0  0  0  0  0  0  0  0  0  0  0  0
  124.1827  105.7617  106.3904 H   0  0  0  0  0  0  0  0  0  0  0  0
  123.2243  107.0358  107.1392 H   0  0  0  0  0  0  0  0  0  0  0  0
  122.2437  104.2905  106.1689 H   0  0  0  0  0  0  0  0  0  0  0  0
  121.7729  105.5260  102.1517 H   0  0  0  0  0  0  0  0  0  0  0  0
  120.7657  106.7951  102.8494 H   0  0  0  0  0  0  0  0  0  0  0  0
  124.7869  106.9552  108.8193 H   0  0  0  0  0  0  0  0  0  0  0  0
  124.7929  105.6315  110.0255 H   0  0  0  0  0  0  0  0  0  0  0  0
  117.8729  103.3019  100.3025 H   0  0  0  0  0  0  0  0  0  0  0  0
  125.9277  103.7605  109.7661 H   0  0  0  0  0  0  0  0  0  0  0  0
  127.2106  103.5580  108.6268 H   0  0  0  0  0  0  0  0  0  0  0  0
  121.0203  104.2800  104.3652 H   0  0  0  0  0  0  0  0  0  0  0  0
  1  2  1  0  0  0  0
  1  4  2  0  0  0  0
  2  7  2  0  0  0  0
  3  5  2  0  0  0  0
  3 18  1  0  0  0  0
  4 24  1  0  0  0  0
  5  6  1  0  0  0  0
  5 15  1  0  0  0  0
  6  7  1  0  0  0  0
  6 17  2  0  0  0  0
  7 24  1  0  0  0  0
  8 14  1  0  0  0  0
  8 21  1  0  0  0  0
  8 22  2  0  0  0  0
  9 16  1  0  0  0  0
  9 20  1  0  0  0  0
  9 23  2  0  0  0  0
 10 11  1  0  0  0  0
 10 12  1  0  0  0  0
 11 14  1  0  0  0  0
 12 19  1  0  0  0  0
 13 14  1  0  0  0  0
 13 19  1  0  0  0  0
 15 21  1  0  0  0  0
 16 19  1  0  0  0  0
 17 18  1  0  0  0  0
  1 25  1  0  0  0  0
  2 26  1  0  0  0  0
  3 27  1  0  0  0  0
  4 28  1  0  0  0  0
 10 29  1  0  0  0  0
 10 30  1  0  0  0  0
 11 31  1  0  0  0  0
 11 32  1  0  0  0  0
 12 33  1  0  0  0  0
 12 34  1  0  0  0  0
 13 35  1  0  0  0  0
 13 36  1  0  0  0  0
 14 37  1  0  0  0  0
 15 38  1  0  0  0  0
 15 39  1  0  0  0  0
 16 40  1  0  0  0  0
 16 41  1  0  0  0  0
 18 42  1  0  0  0  0
 20 43  1  0  0  0  0
 20 44  1  0  0  0  0
 21 45  1  0  0  0  0
M  END
> <FRED Chemgauss4 score>
-5.800536

$$$$
C39059111	P59177949
  -OEChem-05182014473D

 22 22  0     1  0  0  0  0  0999 V2000
  122.8710  106.5034  106.0358 C   0  0  0  0  0  0  0  0  0  0  0  0
  124.0442  107.4854  106.0302 C   0  0  1  0  0  0  0  0  0  0  0  0
  124.9390  107.2347  107.2489 C   0  0  1  0  0  0  0  0  0  0  0  0
  125.2997  105.7404  107.3519 C   0  0  1  0  0  0  0  0  0  0  0  0
  126.0826  105.4337  108.6311 C   0  0  0  0  0  0  0  0  0  0  0  0
  123.3442  105.1154  106.1277 N   0  0  0  0  0  0  0  0  0  0  0  0
  124.0728  104.9262  107.3574 N   0  0  0  0  0  0  0  0  0  0  0  0
  124.7997  107.3092  104.8307 O   0  0  0  0  0  0  0  0  0  0  0  0
  126.1058  108.0416  107.1334 O   0  0  0  0  0  0  0  0  0  0  0  0
  127.2804  106.1852  108.6112 O   0  0  0  0  0  0  0  0  0  0  0  0
  122.2212  106.7171  106.8986 H   0  0  0  0  0  0  0  0  0  0  0  0
  122.2221  106.6461  105.1553 H   0  0  0  0  0  0  0  0  0  0  0  0
  123.6722  108.5073  106.0391 H   0  0  0  0  0  0  0  0  0  0  0  0
  124.4088  107.5792  108.1584 H   0  0  0  0  0  0  0  0  0  0  0  0
  125.8845  105.4345  106.5285 H   0  0  0  0  0  0  0  0  0  0  0  0
  126.3196  104.3723  108.6704 H   0  0  0  0  0  0  0  0  0  0  0  0
  125.4908  105.7152  109.4999 H   0  0  0  0  0  0  0  0  0  0  0  0
  122.5590  104.4656  106.0695 H   0  0  0  0  0  0  0  0  0  0  0  0
  124.3144  103.9405  107.4572 H   0  0  0  0  0  0  0  0  0  0  0  0
  124.1956  107.4862  104.0921 H   0  0  0  0  0  0  0  0  0  0  0  0
  125.7976  108.9588  107.1038 H   0  0  0  0  0  0  0  0  0  0  0  0
  127.7633  105.9776  109.4299 H   0  0  0  0  0  0  0  0  0  0  0  0
  1  2  1  0  0  0  0
  1  6  1  0  0  0  0
  2  3  1  0  0  0  0
  2  8  1  0  0  0  0
  3  4  1  0  0  0  0
  3  9  1  0  0  0  0
  4  5  1  0  0  0  0
  4  7  1  0  0  0  0
  5 10  1  0  0  0  0
  6  7  1  0  0  0  0
  1 11  1  0  0  0  0
  1 12  1  0  0  0  0
  2 13  1  0  0  0  0
  3 14  1  0  0  0  0
  4 15  1  0  0  0  0
  5 16  1  0  0  0  0
  5 17  1  0  0  0  0
  6 18  1  0  0  0  0
  7 19  1  0  0  0  0
  8 20  1  0  0  0  0
  9 21  1  0  0  0  0
 10 22  1  0  0  0  0
M  END
> <FRED Chemgauss4 score>
-5.795947

$$$$
C83747622	P131020498
  -OEChem-05182014473D

 25 25  0     0  0  0  0  0  0999 V2000
  123.6727  106.4987  105.4830 C   0  0  0  0  0  0  0  0  0  0  0  0
  126.2101  106.2507  107.8797 C   0  0  0  0  0  0  0  0  0  0  0  0
  122.1645  106.3763  105.4808 C   0  0  0  0  0  0  0  0  0  0  0  0
  122.8505  105.6197  108.3728 C   0  0  0  0  0  0  0  0  0  0  0  0
  121.5192  106.1239  107.8125 C   0  0  0  0  0  0  0  0  0  0  0  0
  123.6791  104.8323  107.3622 C   0  0  0  0  0  0  0  0  0  0  0  0
  125.8072  105.7836  106.5000 C   0  0  0  0  0  0  0  0  0  0  0  0
  121.6382  107.0349  106.6726 N   0  0  0  0  0  0  0  0  0  0  0  0
  124.3549  105.7134  106.4096 N   0  0  0  0  0  0  0  0  0  0  0  0
  125.7194  107.5052  108.1719 N   0  0  0  0  0  0  0  0  0  0  0  0
  124.2220  107.2637  104.6860 O   0  0  0  0  0  0  0  0  0  0  0  0
  126.8614  105.5729  108.6698 O   0  0  0  0  0  0  0  0  0  0  0  0
  121.7248  106.7335  104.5443 H   0  0  0  0  0  0  0  0  0  0  0  0
  121.9289  105.3068  105.5420 H   0  0  0  0  0  0  0  0  0  0  0  0
  123.4307  106.4949  108.6906 H   0  0  0  0  0  0  0  0  0  0  0  0
  122.6722  105.0146  109.2707 H   0  0  0  0  0  0  0  0  0  0  0  0
  120.9439  105.2510  107.4814 H   0  0  0  0  0  0  0  0  0  0  0  0
  120.9283  106.5928  108.6095 H   0  0  0  0  0  0  0  0  0  0  0  0
  124.4278  104.2098  107.8638 H   0  0  0  0  0  0  0  0  0  0  0  0
  123.0219  104.1559  106.8031 H   0  0  0  0  0  0  0  0  0  0  0  0
  126.2079  104.7877  106.2924 H   0  0  0  0  0  0  0  0  0  0  0  0
  126.1693  106.4949  105.7528 H   0  0  0  0  0  0  0  0  0  0  0  0
  122.2828  107.7804  106.9381 H   0  0  0  0  0  0  0  0  0  0  0  0
  125.1551  108.0139  107.4995 H   0  0  0  0  0  0  0  0  0  0  0  0
  125.8976  107.9658  109.0587 H   0  0  0  0  0  0  0  0  0  0  0  0
  1  3  1  0  0  0  0
  1  9  1  0  0  0  0
  1 11  2  0  0  0  0
  2  7  1  0  0  0  0
  2 10  1  0  0  0  0
  2 12  2  0  0  0  0
  3  8  1  0  0  0  0
  4  5  1  0  0  0  0
  4  6  1  0  0  0  0
  5  8  1  0  0  0  0
  6  9  1  0  0  0  0
  7  9  1  0  0  0  0
  3 13  1  0  0  0  0
  3 14  1  0  0  0  0
  4 15  1  0  0  0  0
  4 16  1  0  0  0  0
  5 17  1  0  0  0  0
  5 18  1  0  0  0  0
  6 19  1  0  0  0  0
  6 20  1  0  0  0  0
  7 21  1  0  0  0  0
  7 22  1  0  0  0  0
  8 23  1  0  0  0  0
 10 24  1  0  0  0  0
 10 25  1  0  0  0  0
M  END
> <FRED Chemgauss4 score>
-5.795188

$$$$
C85379802	P133639336
  -OEChem-05182014473D

 29 29  0     1  0  0  0  0  0999 V2000
  119.6008  104.7037  103.0663 C   0  0  0  0  0  0  0  0  0  0  0  0
  123.1110  106.4959  106.0727 C   0  0  0  0  0  0  0  0  0  0  0  0
  125.1184  105.3670  106.9825 C   0  0  0  0  0  0  0  0  0  0  0  0
  125.6673  107.6065  107.3722 C   0  0  0  0  0  0  0  0  0  0  0  0
  123.8379  106.1072  107.3298 C   0  0  1  0  0  0  0  0  0  0  0  0
  124.3723  107.2994  108.1028 C   0  0  2  0  0  0  0  0  0  0  0  0
  122.4969  108.2587  109.2534 C   0  0  0  0  0  0  0  0  0  0  0  0
  120.4335  104.5528  104.2688 C   0  0  0  0  0  0  0  0  0  0  0  0
  121.3660  105.7427  104.4694 C   0  0  0  0  0  0  0  0  0  0  0  0
  118.9428  104.8207  102.1178 N   0  0  0  0  0  0  0  0  0  0  0  0
  122.1774  105.5677  105.6527 N   0  0  0  0  0  0  0  0  0  0  0  0
  123.4778  108.4393  108.1893 N   0  0  0  0  0  0  0  0  0  0  0  0
  123.3765  107.5598  105.5256 O   0  0  0  0  0  0  0  0  0  0  0  0
  126.1653  106.3495  106.8886 O   0  0  0  0  0  0  0  0  0  0  0  0
  125.3970  104.6723  107.7823 H   0  0  0  0  0  0  0  0  0  0  0  0
  125.0677  104.8106  106.0416 H   0  0  0  0  0  0  0  0  0  0  0  0
  125.5143  108.2565  106.5030 H   0  0  0  0  0  0  0  0  0  0  0  0
  126.4162  108.0720  108.0203 H   0  0  0  0  0  0  0  0  0  0  0  0
  123.1522  105.4912  107.9208 H   0  0  0  0  0  0  0  0  0  0  0  0
  124.6183  106.9660  109.1198 H   0  0  0  0  0  0  0  0  0  0  0  0
  121.9054  107.3578  109.0703 H   0  0  0  0  0  0  0  0  0  0  0  0
  121.8235  109.1190  109.2968 H   0  0  0  0  0  0  0  0  0  0  0  0
  123.0005  108.1588  110.2187 H   0  0  0  0  0  0  0  0  0  0  0  0
  121.0360  103.6422  104.1709 H   0  0  0  0  0  0  0  0  0  0  0  0
  119.7915  104.4200  105.1475 H   0  0  0  0  0  0  0  0  0  0  0  0
  122.0300  105.8379  103.6040 H   0  0  0  0  0  0  0  0  0  0  0  0
  120.7967  106.6749  104.5547 H   0  0  0  0  0  0  0  0  0  0  0  0
  122.0556  104.7221  106.2017 H   0  0  0  0  0  0  0  0  0  0  0  0
  124.0198  109.2843  108.3774 H   0  0  0  0  0  0  0  0  0  0  0  0
  1  8  1  0  0  0  0
  1 10  3  0  0  0  0
  2  5  1  0  0  0  0
  2 11  1  0  0  0  0
  2 13  2  0  0  0  0
  3  5  1  0  0  0  0
  3 14  1  0  0  0  0
  4  6  1  0  0  0  0
  4 14  1  0  0  0  0
  5  6  1  0  0  0  0
  6 12  1  0  0  0  0
  7 12  1  0  0  0  0
  8  9  1  0  0  0  0
  9 11  1  0  0  0  0
  3 15  1  0  0  0  0
  3 16  1  0  0  0  0
  4 17  1  0  0  0  0
  4 18  1  0  0  0  0
  5 19  1  0  0  0  0
  6 20  1  0  0  0  0
  7 21  1  0  0  0  0
  7 22  1  0  0  0  0
  7 23  1  0  0  0  0
  8 24  1  0  0  0  0
  8 25  1  0  0  0  0
  9 26  1  0  0  0  0
  9 27  1  0  0  0  0
 11 28  1  0  0  0  0
 12 29  1  0  0  0  0
M  END
> <FRED Chemgauss4 score>
-5.792609

$$$$
C83824098	P131129758
  -OEChem-05182014473D

 22 22  0     0  0  0  0  0  0999 V2000
  118.2126  104.3606  105.6872 C   0  0  0  0  0  0  0  0  0  0  0  0
  120.2576  104.7218  105.8988 C   0  0  0  0  0  0  0  0  0  0  0  0
  121.6369  105.2726  105.8624 C   0  0  0  0  0  0  0  0  0  0  0  0
  124.2800  105.7786  107.8083 C   0  0  0  0  0  0  0  0  0  0  0  0
  123.9886  104.9322  106.5762 C   0  0  0  0  0  0  0  0  0  0  0  0
  125.7318  106.2359  107.8810 C   0  0  0  0  0  0  0  0  0  0  0  0
  119.1871  105.2605  105.3628 N   0  0  0  0  0  0  0  0  0  0  0  0
  119.9244  103.5545  106.5120 N   0  0  0  0  0  0  0  0  0  0  0  0
  118.6129  103.2990  106.3902 N   0  0  0  0  0  0  0  0  0  0  0  0
  122.6135  104.5198  106.5040 N   0  0  0  0  0  0  0  0  0  0  0  0
  121.8397  106.3462  105.3013 O   0  0  0  0  0  0  0  0  0  0  0  0
  126.5718  105.0895  107.9056 O   0  0  0  0  0  0  0  0  0  0  0  0
  117.1803  104.4973  105.3936 H   0  0  0  0  0  0  0  0  0  0  0  0
  123.6291  106.6618  107.8030 H   0  0  0  0  0  0  0  0  0  0  0  0
  124.0271  105.2254  108.7217 H   0  0  0  0  0  0  0  0  0  0  0  0
  124.1976  105.5058  105.6678 H   0  0  0  0  0  0  0  0  0  0  0  0
  124.6095  104.0307  106.5621 H   0  0  0  0  0  0  0  0  0  0  0  0
  126.0013  106.8417  107.0103 H   0  0  0  0  0  0  0  0  0  0  0  0
  125.9120  106.8181  108.7904 H   0  0  0  0  0  0  0  0  0  0  0  0
  118.1694  102.4738  106.7840 H   0  0  0  0  0  0  0  0  0  0  0  0
  122.3516  103.6702  107.0006 H   0  0  0  0  0  0  0  0  0  0  0  0
  127.4859  105.4131  107.9518 H   0  0  0  0  0  0  0  0  0  0  0  0
  1  7  2  0  0  0  0
  1  9  1  0  0  0  0
  2  3  1  0  0  0  0
  2  7  1  0  0  0  0
  2  8  2  0  0  0  0
  3 10  1  0  0  0  0
  3 11  2  0  0  0  0
  4  5  1  0  0  0  0
  4  6  1  0  0  0  0
  5 10  1  0  0  0  0
  6 12  1  0  0  0  0
  8  9  1  0  0  0  0
  1 13  1  0  0  0  0
  4 14  1  0  0  0  0
  4 15  1  0  0  0  0
  5 16  1  0  0  0  0
  5 17  1  0  0  0  0
  6 18  1  0  0  0  0
  6 19  1  0  0  0  0
  9 20  1  0  0  0  0
 10 21  1  0  0  0  0
 12 22  1  0  0  0  0
M  END
> <FRED Chemgauss4 score>
-5.790760

$$$$
C35904583	P53307746
  -OEChem-05182014473D

 22 22  0     0  0  0  0  0  0999 V2000
  125.1420  105.3331  107.7715 C   0  0  0  0  0  0  0  0  0  0  0  0
  123.8292  105.1113  107.8631 C   0  0  0  0  0  0  0  0  0  0  0  0
  125.6502  106.2317  106.7155 C   0  0  0  0  0  0  0  0  0  0  0  0
  123.2902  106.5493  105.9792 C   0  0  0  0  0  0  0  0  0  0  0  0
  120.9726  104.3613  106.1944 C   0  0  0  0  0  0  0  0  0  0  0  0
  121.4983  105.3563  107.2206 C   0  0  0  0  0  0  0  0  0  0  0  0
  119.4983  104.0310  106.3932 C   0  0  0  0  0  0  0  0  0  0  0  0
  124.6712  106.7725  105.8964 N   0  0  0  0  0  0  0  0  0  0  0  0
  122.9044  105.6824  107.0132 N   0  0  0  0  0  0  0  0  0  0  0  0
  126.8514  106.4569  106.6042 O   0  0  0  0  0  0  0  0  0  0  0  0
  122.5098  107.0877  105.1913 O   0  0  0  0  0  0  0  0  0  0  0  0
  119.1037  103.0879  105.4056 O   0  0  0  0  0  0  0  0  0  0  0  0
  125.8500  104.8725  108.4494 H   0  0  0  0  0  0  0  0  0  0  0  0
  123.4346  104.4546  108.6313 H   0  0  0  0  0  0  0  0  0  0  0  0
  121.1118  104.7727  105.1868 H   0  0  0  0  0  0  0  0  0  0  0  0
  121.5597  103.4347  106.2234 H   0  0  0  0  0  0  0  0  0  0  0  0
  120.9401  106.2953  107.1544 H   0  0  0  0  0  0  0  0  0  0  0  0
  121.3919  104.9659  108.2378 H   0  0  0  0  0  0  0  0  0  0  0  0
  119.3194  103.5921  107.3796 H   0  0  0  0  0  0  0  0  0  0  0  0
  118.8798  104.9276  106.2840 H   0  0  0  0  0  0  0  0  0  0  0  0
  124.9862  107.3966  105.1589 H   0  0  0  0  0  0  0  0  0  0  0  0
  118.1638  102.8989  105.5587 H   0  0  0  0  0  0  0  0  0  0  0  0
  1  2  2  0  0  0  0
  1  3  1  0  0  0  0
  2  9  1  0  0  0  0
  3  8  1  0  0  0  0
  3 10  2  0  0  0  0
  4  8  1  0  0  0  0
  4  9  1  0  0  0  0
  4 11  2  0  0  0  0
  5  6  1  0  0  0  0
  5  7  1  0  0  0  0
  6  9  1  0  0  0  0
  7 12  1  0  0  0  0
  1 13  1  0  0  0  0
  2 14  1  0  0  0  0
  5 15  1  0  0  0  0
  5 16  1  0  0  0  0
  6 17  1  0  0  0  0
  6 18  1  0  0  0  0
  7 19  1  0  0  0  0
  7 20  1  0  0  0  0
  8 21  1  0  0  0  0
 12 22  1  0  0  0  0
M  END
> <FRED Chemgauss4 score>
-5.780983

$$$$
C36850793	P90345064
  -OEChem-05182014473D

 25 25  0     1  0  0  0  0  0999 V2000
  119.3705  103.8824  105.1714 C   0  0  0  0  0  0  0  0  0  0  0  0
  120.9269  105.5772  104.9807 C   0  0  0  0  0  0  0  0  0  0  0  0
  120.0870  103.9042  106.4928 C   0  0  0  0  0  0  0  0  0  0  0  0
  121.1921  104.9351  106.3171 C   0  0  1  0  0  0  0  0  0  0  0  0
  119.3761  105.2003  103.0670 C   0  0  0  0  0  0  0  0  0  0  0  0
  124.8693  104.7539  106.8121 C   0  0  0  0  0  0  0  0  0  0  0  0
  123.5330  105.3656  106.4263 C   0  0  0  0  0  0  0  0  0  0  0  0
  119.8746  104.9042  104.3965 N   0  0  0  0  0  0  0  0  0  0  0  0
  125.8848  105.7522  107.0150 N   0  0  0  0  0  0  0  0  0  0  0  0
  122.5024  104.3531  106.2419 N   0  0  0  0  0  0  0  0  0  0  0  0
  118.4837  103.0895  104.8863 O   0  0  0  0  0  0  0  0  0  0  0  0
  121.5950  106.4841  104.5024 O   0  0  0  0  0  0  0  0  0  0  0  0
  119.3832  104.2142  107.2721 H   0  0  0  0  0  0  0  0  0  0  0  0
  120.4592  102.9036  106.7342 H   0  0  0  0  0  0  0  0  0  0  0  0
  121.1515  105.6974  107.0981 H   0  0  0  0  0  0  0  0  0  0  0  0
  118.5575  105.9223  103.1249 H   0  0  0  0  0  0  0  0  0  0  0  0
  119.0078  104.2882  102.5896 H   0  0  0  0  0  0  0  0  0  0  0  0
  120.1739  105.6215  102.4494 H   0  0  0  0  0  0  0  0  0  0  0  0
  125.2333  104.0696  106.0392 H   0  0  0  0  0  0  0  0  0  0  0  0
  124.7720  104.1995  107.7507 H   0  0  0  0  0  0  0  0  0  0  0  0
  123.1836  106.0400  107.2141 H   0  0  0  0  0  0  0  0  0  0  0  0
  123.6085  105.9323  105.4926 H   0  0  0  0  0  0  0  0  0  0  0  0
  125.9222  106.5473  106.3974 H   0  0  0  0  0  0  0  0  0  0  0  0
  126.6578  105.5485  107.6283 H   0  0  0  0  0  0  0  0  0  0  0  0
  122.5959  103.6429  106.9673 H   0  0  0  0  0  0  0  0  0  0  0  0
  1  3  1  0  0  0  0
  1  8  1  0  0  0  0
  1 11  2  0  0  0  0
  2  4  1  0  0  0  0
  2  8  1  0  0  0  0
  2 12  2  0  0  0  0
  3  4  1  0  0  0  0
  4 10  1  0  0  0  0
  5  8  1  0  0  0  0
  6  7  1  0  0  0  0
  6  9  1  0  0  0  0
  7 10  1  0  0  0  0
  3 13  1  0  0  0  0
  3 14  1  0  0  0  0
  4 15  1  0  0  0  0
  5 16  1  0  0  0  0
  5 17  1  0  0  0  0
  5 18  1  0  0  0  0
  6 19  1  0  0  0  0
  6 20  1  0  0  0  0
  7 21  1  0  0  0  0
  7 22  1  0  0  0  0
  9 23  1  0  0  0  0
  9 24  1  0  0  0  0
 10 25  1  0  0  0  0
M  END
> <FRED Chemgauss4 score>
-5.778203

$$$$
C94992751	P148902415
  -OEChem-05182014473D

 24 24  0     1  0  0  0  0  0999 V2000
  125.5236  105.9136  108.3094 C   0  0  0  0  0  0  0  0  0  0  0  0
  123.8255  106.4269  106.0116 C   0  0  0  0  0  0  0  0  0  0  0  0
  126.0179  106.8201  107.2037 C   0  0  0  0  0  0  0  0  0  0  0  0
  124.0079  105.0075  106.5026 C   0  0  0  0  0  0  0  0  0  0  0  0
  124.8715  107.4574  106.4232 C   0  0  2  0  0  0  0  0  0  0  0  0
  124.3877  104.9510  107.9798 C   0  0  2  0  0  0  0  0  0  0  0  0
  124.2178  108.5973  107.2028 C   0  0  0  0  0  0  0  0  0  0  0  0
  123.1862  105.2149  108.8859 C   0  0  0  0  0  0  0  0  0  0  0  0
  126.0692  105.9138  109.4141 O   0  0  0  0  0  0  0  0  0  0  0  0
  122.8987  106.7157  105.2527 O   0  0  0  0  0  0  0  0  0  0  0  0
  125.4097  107.9770  105.2101 O   0  0  0  0  0  0  0  0  0  0  0  0
  124.8899  103.6444  108.2480 O   0  0  0  0  0  0  0  0  0  0  0  0
  126.6549  107.5822  107.6853 H   0  0  0  0  0  0  0  0  0  0  0  0
  126.6722  106.2324  106.5369 H   0  0  0  0  0  0  0  0  0  0  0  0
  123.0564  104.4829  106.3057 H   0  0  0  0  0  0  0  0  0  0  0  0
  124.7756  104.5192  105.8773 H   0  0  0  0  0  0  0  0  0  0  0  0
  124.9717  109.3280  107.4925 H   0  0  0  0  0  0  0  0  0  0  0  0
  123.7389  108.2059  108.0993 H   0  0  0  0  0  0  0  0  0  0  0  0
  123.4673  109.0869  106.5834 H   0  0  0  0  0  0  0  0  0  0  0  0
  122.3804  104.5233  108.6435 H   0  0  0  0  0  0  0  0  0  0  0  0
  122.8332  106.2357  108.7449 H   0  0  0  0  0  0  0  0  0  0  0  0
  123.4712  105.0778  109.9282 H   0  0  0  0  0  0  0  0  0  0  0  0
  124.6684  108.3737  104.7270 H   0  0  0  0  0  0  0  0  0  0  0  0
  125.1287  103.6283  109.1877 H   0  0  0  0  0  0  0  0  0  0  0  0
  1  3  1  0  0  0  0
  1  6  1  0  0  0  0
  1  9  2  0  0  0  0
  2  4  1  0  0  0  0
  2  5  1  0  0  0  0
  2 10  2  0  0  0  0
  3  5  1  0  0  0  0
  4  6  1  0  0  0  0
  5  7  1  0  0  0  0
  5 11  1  0  0  0  0
  6  8  1  0  0  0  0
  6 12  1  0  0  0  0
  3 13  1  0  0  0  0
  3 14  1  0  0  0  0
  4 15  1  0  0  0  0
  4 16  1  0  0  0  0
  7 17  1  0  0  0  0
  7 18  1  0  0  0  0
  7 19  1  0  0  0  0
  8 20  1  0  0  0  0
  8 21  1  0  0  0  0
  8 22  1  0  0  0  0
 11 23  1  0  0  0  0
 12 24  1  0  0  0  0
M  END
> <FRED Chemgauss4 score>
-5.775261

$$$$
C42450415	P64209324
  -OEChem-05182014473D

 29 28  0     1  0  0  0  0  0999 V2000
  122.2338  106.2276  108.8753 C   0  0  0  0  0  0  0  0  0  0  0  0
  125.6069  103.4375  106.9169 C   0  0  0  0  0  0  0  0  0  0  0  0
  123.4792  106.1436  109.6526 C   0  0  0  0  0  0  0  0  0  0  0  0
  125.4534  104.3654  108.0736 C   0  0  0  0  0  0  0  0  0  0  0  0
  124.6985  106.5214  108.8182 C   0  0  0  0  0  0  0  0  0  0  0  0
  123.5146  106.5678  105.1771 C   0  0  0  0  0  0  0  0  0  0  0  0
  125.6016  106.2625  106.6069 C   0  0  0  0  0  0  0  0  0  0  0  0
  124.7190  107.2433  105.8344 C   0  0  1  0  0  0  0  0  0  0  0  0
  121.2499  106.2931  108.2637 N   0  0  0  0  0  0  0  0  0  0  0  0
  122.6762  107.4918  104.4610 N   0  0  0  0  0  0  0  0  0  0  0  0
  124.8357  105.6312  107.6590 N   0  0  1  0  0  0  0  0  0  0  0  0
  125.5090  107.8816  104.8311 O   0  0  0  0  0  0  0  0  0  0  0  0
  124.6335  103.2007  106.4740 H   0  0  0  0  0  0  0  0  0  0  0  0
  126.2561  103.8739  106.1500 H   0  0  0  0  0  0  0  0  0  0  0  0
  126.0630  102.4983  107.2523 H   0  0  0  0  0  0  0  0  0  0  0  0
  123.6019  105.1166  110.0157 H   0  0  0  0  0  0  0  0  0  0  0  0
  123.4071  106.7898  110.5353 H   0  0  0  0  0  0  0  0  0  0  0  0
  126.4290  104.5977  108.5111 H   0  0  0  0  0  0  0  0  0  0  0  0
  124.8177  103.9216  108.8454 H   0  0  0  0  0  0  0  0  0  0  0  0
  124.5906  107.5491  108.4560 H   0  0  0  0  0  0  0  0  0  0  0  0
  125.6128  106.4763  109.4203 H   0  0  0  0  0  0  0  0  0  0  0  0
  123.8380  105.8005  104.4667 H   0  0  0  0  0  0  0  0  0  0  0  0
  122.8799  106.0954  105.9337 H   0  0  0  0  0  0  0  0  0  0  0  0
  126.4537  106.7752  107.0651 H   0  0  0  0  0  0  0  0  0  0  0  0
  125.9832  105.4831  105.9393 H   0  0  0  0  0  0  0  0  0  0  0  0
  124.3569  108.0282  106.5098 H   0  0  0  0  0  0  0  0  0  0  0  0
  121.7019  107.2712  104.3310 H   0  0  0  0  0  0  0  0  0  0  0  0
  123.1047  108.2333  103.9304 H   0  0  0  0  0  0  0  0  0  0  0  0
  124.9341  108.5345  104.4042 H   0  0  0  0  0  0  0  0  0  0  0  0
  1  3  1  0  0  0  0
  1  9  3  0  0  0  0
  2  4  1  0  0  0  0
  3  5  1  0  0  0  0
  4 11  1  0  0  0  0
  5 11  1  0  0  0  0
  6  8  1  0  0  0  0
  6 10  1  0  0  0  0
  7  8  1  0  0  0  0
  7 11  1  0  0  0  0
  8 12  1  0  0  0  0
  2 13  1  0  0  0  0
  2 14  1  0  0  0  0
  2 15  1  0  0  0  0
  3 16  1  0  0  0  0
  3 17  1  0  0  0  0
  4 18  1  0  0  0  0
  4 19  1  0  0  0  0
  5 20  1  0  0  0  0
  5 21  1  0  0  0  0
  6 22  1  0  0  0  0
  6 23  1  0  0  0  0
  7 24  1  0  0  0  0
  7 25  1  0  0  0  0
  8 26  1  0  0  0  0
 10 27  1  0  0  0  0
 10 28  1  0  0  0  0
 12 29  1  0  0  0  0
M  END
> <FRED Chemgauss4 score>
-5.774343

$$$$
C38038649	P57193787
  -OEChem-05182014473D

 24 24  0     0  0  0  0  0  0999 V2000
  123.7999  106.3539  107.4322 C   0  0  0  0  0  0  0  0  0  0  0  0
  124.9626  107.4021  106.0515 C   0  0  0  0  0  0  0  0  0  0  0  0
  121.0799  106.4541  104.8030 C   0  0  0  0  0  0  0  0  0  0  0  0
  121.5221  106.2500  106.2361 C   0  0  0  0  0  0  0  0  0  0  0  0
  120.1218  105.1876  102.8886 C   0  0  0  0  0  0  0  0  0  0  0  0
  120.3748  103.7925  102.3468 C   0  0  0  0  0  0  0  0  0  0  0  0
  125.0601  106.8409  107.2343 N   0  0  0  0  0  0  0  0  0  0  0  0
  123.6975  107.2503  105.5758 N   0  0  0  0  0  0  0  0  0  0  0  0
  122.9287  106.5784  106.4463 N   0  0  0  0  0  0  0  0  0  0  0  0
  126.0113  108.0203  105.4616 N   0  0  0  0  0  0  0  0  0  0  0  0
  120.6055  105.2749  104.2470 N   0  0  0  0  0  0  0  0  0  0  0  0
  121.1434  107.5345  104.2224 O   0  0  0  0  0  0  0  0  0  0  0  0
  119.7219  102.8387  103.1750 O   0  0  0  0  0  0  0  0  0  0  0  0
  123.5272  105.8192  108.3333 H   0  0  0  0  0  0  0  0  0  0  0  0
  121.3697  105.2041  106.5256 H   0  0  0  0  0  0  0  0  0  0  0  0
  120.9232  106.8800  106.9035 H   0  0  0  0  0  0  0  0  0  0  0  0
  120.6387  105.9451  102.2911 H   0  0  0  0  0  0  0  0  0  0  0  0
  119.0495  105.4055  102.8936 H   0  0  0  0  0  0  0  0  0  0  0  0
  121.4471  103.5740  102.3605 H   0  0  0  0  0  0  0  0  0  0  0  0
  120.0014  103.6843  101.3233 H   0  0  0  0  0  0  0  0  0  0  0  0
  126.9210  108.1204  105.9328 H   0  0  0  0  0  0  0  0  0  0  0  0
  125.9219  108.5008  104.5558 H   0  0  0  0  0  0  0  0  0  0  0  0
  120.6251  104.4219  104.7982 H   0  0  0  0  0  0  0  0  0  0  0  0
  119.9082  101.9650  102.7954 H   0  0  0  0  0  0  0  0  0  0  0  0
  1  7  2  0  0  0  0
  1  9  1  0  0  0  0
  2  7  1  0  0  0  0
  2  8  2  0  0  0  0
  2 10  1  0  0  0  0
  3  4  1  0  0  0  0
  3 11  1  0  0  0  0
  3 12  2  0  0  0  0
  4  9  1  0  0  0  0
  5  6  1  0  0  0  0
  5 11  1  0  0  0  0
  6 13  1  0  0  0  0
  8  9  1  0  0  0  0
  1 14  1  0  0  0  0
  4 15  1  0  0  0  0
  4 16  1  0  0  0  0
  5 17  1  0  0  0  0
  5 18  1  0  0  0  0
  6 19  1  0  0  0  0
  6 20  1  0  0  0  0
 10 21  1  0  0  0  0
 10 22  1  0  0  0  0
 11 23  1  0  0  0  0
 13 24  1  0  0  0  0
M  END
> <FRED Chemgauss4 score>
-5.772291

$$$$
C86661154	P135662458
  -OEChem-05182014473D

 23 23  0     1  0  0  0  0  0999 V2000
  119.5174  104.1235  106.5917 C   0  0  0  0  0  0  0  0  0  0  0  0
  120.1795  105.3390  105.0485 C   0  0  0  0  0  0  0  0  0  0  0  0
  120.6771  105.1337  106.4926 C   0  0  0  0  0  0  0  0  0  0  0  0
  124.8636  107.6368  106.1535 C   0  0  0  0  0  0  0  0  0  0  0  0
  123.2822  105.8153  107.0498 C   0  0  0  0  0  0  0  0  0  0  0  0
  123.6721  106.7222  105.8791 C   0  0  1  0  0  0  0  0  0  0  0  0
  118.8463  104.8812  105.5082 N   0  0  0  0  0  0  0  0  0  0  0  0
  125.3854  108.0933  104.9086 O   0  0  0  0  0  0  0  0  0  0  0  0
  122.5477  107.5091  105.4835 O   0  0  0  0  0  0  0  0  0  0  0  0
  122.3138  104.3476  106.5759 S   0  0  0  0  0  0  0  0  0  0  0  0
  119.7467  103.0871  106.3144 H   0  0  0  0  0  0  0  0  0  0  0  0
  118.9758  104.1207  107.5420 H   0  0  0  0  0  0  0  0  0  0  0  0
  120.2015  106.3705  104.6853 H   0  0  0  0  0  0  0  0  0  0  0  0
  120.6186  104.6872  104.2830 H   0  0  0  0  0  0  0  0  0  0  0  0
  120.5638  106.0128  107.1359 H   0  0  0  0  0  0  0  0  0  0  0  0
  124.5756  108.5211  106.7300 H   0  0  0  0  0  0  0  0  0  0  0  0
  125.6597  107.0980  106.6765 H   0  0  0  0  0  0  0  0  0  0  0  0
  122.6909  106.3818  107.7765 H   0  0  0  0  0  0  0  0  0  0  0  0
  124.1841  105.4535  107.5542 H   0  0  0  0  0  0  0  0  0  0  0  0
  123.9052  106.0860  105.0171 H   0  0  0  0  0  0  0  0  0  0  0  0
  118.3361  104.3085  104.8380 H   0  0  0  0  0  0  0  0  0  0  0  0
  126.1373  108.6689  105.1184 H   0  0  0  0  0  0  0  0  0  0  0  0
  121.8224  106.8874  105.3219 H   0  0  0  0  0  0  0  0  0  0  0  0
  1  3  1  0  0  0  0
  1  7  1  0  0  0  0
  2  3  1  0  0  0  0
  2  7  1  0  0  0  0
  3 10  1  0  0  0  0
  4  6  1  0  0  0  0
  4  8  1  0  0  0  0
  5  6  1  0  0  0  0
  5 10  1  0  0  0  0
  6  9  1  0  0  0  0
  1 11  1  0  0  0  0
  1 12  1  0  0  0  0
  2 13  1  0  0  0  0
  2 14  1  0  0  0  0
  3 15  1  0  0  0  0
  4 16  1  0  0  0  0
  4 17  1  0  0  0  0
  5 18  1  0  0  0  0
  5 19  1  0  0  0  0
  6 20  1  0  0  0  0
  7 21  1  0  0  0  0
  8 22  1  0  0  0  0
  9 23  1  0  0  0  0
M  END
> <FRED Chemgauss4 score>
-5.771189

$$$$
C43705453	P66072042
  -OEChem-05182014473D

 23 24  0     1  0  0  0  0  0999 V2000
  123.2407  106.2893  105.1855 C   0  0  0  0  0  0  0  0  0  0  0  0
  124.9457  106.9502  106.1923 C   0  0  0  0  0  0  0  0  0  0  0  0
  119.5762  106.0352  106.0424 C   0  0  0  0  0  0  0  0  0  0  0  0
  121.4194  104.5101  105.8549 C   0  0  0  0  0  0  0  0  0  0  0  0
  120.2515  106.9418  105.0248 C   0  0  0  0  0  0  0  0  0  0  0  0
  122.0684  105.4073  104.7864 C   0  0  1  0  0  0  0  0  0  0  0  0
  124.1139  105.9346  106.1736 N   0  0  0  0  0  0  0  0  0  0  0  0
  123.4799  107.4605  104.5916 N   0  0  0  0  0  0  0  0  0  0  0  0
  124.5753  107.8624  105.2539 N   0  0  0  0  0  0  0  0  0  0  0  0
  120.5823  105.2754  106.7820 N   0  0  0  0  0  0  0  0  0  0  0  0
  126.0305  107.1903  106.9577 N   0  0  0  0  0  0  0  0  0  0  0  0
  121.0510  106.1773  104.1205 O   0  0  0  0  0  0  0  0  0  0  0  0
  118.9802  106.6308  106.7417 H   0  0  0  0  0  0  0  0  0  0  0  0
  118.8943  105.3396  105.5394 H   0  0  0  0  0  0  0  0  0  0  0  0
  120.7900  103.7564  105.3653 H   0  0  0  0  0  0  0  0  0  0  0  0
  122.1838  103.9673  106.4226 H   0  0  0  0  0  0  0  0  0  0  0  0
  119.4916  107.4606  104.4314 H   0  0  0  0  0  0  0  0  0  0  0  0
  120.8650  107.7111  105.5084 H   0  0  0  0  0  0  0  0  0  0  0  0
  122.4716  104.7445  103.9827 H   0  0  0  0  0  0  0  0  0  0  0  0
  125.0035  108.7487  105.0147 H   0  0  0  0  0  0  0  0  0  0  0  0
  121.1714  105.9249  107.3033 H   0  0  0  0  0  0  0  0  0  0  0  0
  126.3212  106.5521  107.7137 H   0  0  0  0  0  0  0  0  0  0  0  0
  126.5675  108.0679  106.8887 H   0  0  0  0  0  0  0  0  0  0  0  0
  1  6  1  0  0  0  0
  1  7  1  0  0  0  0
  1  8  2  0  0  0  0
  2  7  2  0  0  0  0
  2  9  1  0  0  0  0
  2 11  1  0  0  0  0
  3  5  1  0  0  0  0
  3 10  1  0  0  0  0
  4  6  1  0  0  0  0
  4 10  1  0  0  0  0
  5 12  1  0  0  0  0
  6 12  1  0  0  0  0
  8  9  1  0  0  0  0
  3 13  1  0  0  0  0
  3 14  1  0  0  0  0
  4 15  1  0  0  0  0
  4 16  1  0  0  0  0
  5 17  1  0  0  0  0
  5 18  1  0  0  0  0
  6 19  1  0  0  0  0
  9 20  1  0  0  0  0
 10 21  1  0  0  0  0
 11 22  1  0  0  0  0
 11 23  1  0  0  0  0
M  END
> <FRED Chemgauss4 score>
-5.764691

$$$$
C79002563	P123337484
  -OEChem-05182014473D

 32 32  0     1  0  0  0  0  0999 V2000
  118.9379  105.7172  103.7530 C   0  0  0  0  0  0  0  0  0  0  0  0
  119.0484  106.3687  104.9814 C   0  0  0  0  0  0  0  0  0  0  0  0
  121.3395  105.4679  103.6690 C   0  0  0  0  0  0  0  0  0  0  0  0
  121.4501  106.1195  104.8974 C   0  0  0  0  0  0  0  0  0  0  0  0
  120.0834  105.2667  103.0968 C   0  0  0  0  0  0  0  0  0  0  0  0
  120.3045  106.5699  105.5535 C   0  0  0  0  0  0  0  0  0  0  0  0
  125.1070  106.1827  107.4064 C   0  0  0  0  0  0  0  0  0  0  0  0
  125.2138  109.0686  104.8310 C   0  0  0  0  0  0  0  0  0  0  0  0
  122.8226  106.3130  105.4744 C   0  0  0  0  0  0  0  0  0  0  0  0
  125.1471  107.6296  106.9277 C   0  0  0  0  0  0  0  0  0  0  0  0
  124.7411  107.7551  105.4526 C   0  0  1  0  0  0  0  0  0  0  0  0
  125.8721  105.3427  106.7738 N   0  0  0  0  0  0  0  0  0  0  0  0
  124.2696  105.9156  108.4643 N   0  0  0  0  0  0  0  0  0  0  0  0
  123.2825  107.6850  105.3356 N   0  0  0  0  0  0  0  0  0  0  0  0
  125.7367  104.0633  107.3206 O   0  0  0  0  0  0  0  0  0  0  0  0
  119.9771  104.6416  101.9170 F   0  0  0  0  0  0  0  0  0  0  0  0
  120.4040  107.4608  107.2249 Br  0  0  0  0  0  0  0  0  0  0  0  0
  117.9601  105.5604  103.3066 H   0  0  0  0  0  0  0  0  0  0  0  0
  118.1446  106.7127  105.4775 H   0  0  0  0  0  0  0  0  0  0  0  0
  122.2253  105.1128  103.1487 H   0  0  0  0  0  0  0  0  0  0  0  0
  124.8085  109.9281  105.3772 H   0  0  0  0  0  0  0  0  0  0  0  0
  126.3067  109.1491  104.8391 H   0  0  0  0  0  0  0  0  0  0  0  0
  124.8760  109.1571  103.7935 H   0  0  0  0  0  0  0  0  0  0  0  0
  122.8325  106.0603  106.5403 H   0  0  0  0  0  0  0  0  0  0  0  0
  123.5522  105.6636  104.9793 H   0  0  0  0  0  0  0  0  0  0  0  0
  124.4526  108.1988  107.5598 H   0  0  0  0  0  0  0  0  0  0  0  0
  126.1476  108.0467  107.0964 H   0  0  0  0  0  0  0  0  0  0  0  0
  125.1691  106.9265  104.8765 H   0  0  0  0  0  0  0  0  0  0  0  0
  123.7132  106.6396  108.9061 H   0  0  0  0  0  0  0  0  0  0  0  0
  124.1917  104.9777  108.8427 H   0  0  0  0  0  0  0  0  0  0  0  0
  123.0097  108.0456  104.4247 H   0  0  0  0  0  0  0  0  0  0  0  0
  126.3483  103.5489  106.7671 H   0  0  0  0  0  0  0  0  0  0  0  0
  1  2  2  0  0  0  0
  1  5  1  0  0  0  0
  2  6  1  0  0  0  0
  3  4  1  0  0  0  0
  3  5  2  0  0  0  0
  4  6  2  0  0  0  0
  4  9  1  0  0  0  0
  5 16  1  0  0  0  0
  6 17  1  0  0  0  0
  7 10  1  0  0  0  0
  7 12  2  0  0  0  0
  7 13  1  0  0  0  0
  8 11  1  0  0  0  0
  9 14  1  0  0  0  0
 10 11  1  0  0  0  0
 11 14  1  0  0  0  0
 12 15  1  0  0  0  0
  1 18  1  0  0  0  0
  2 19  1  0  0  0  0
  3 20  1  0  0  0  0
  8 21  1  0  0  0  0
  8 22  1  0  0  0  0
  8 23  1  0  0  0  0
  9 24  1  0  0  0  0
  9 25  1  0  0  0  0
 10 26  1  0  0  0  0
 10 27  1  0  0  0  0
 11 28  1  0  0  0  0
 13 29  1  0  0  0  0
 13 30  1  0  0  0  0
 14 31  1  0  0  0  0
 15 32  1  0  0  0  0
M  END
> <FRED Chemgauss4 score>
-5.764666

$$$$
C82987727	P129755431
  -OEChem-05182014473D

 28 27  0     1  0  0  0  0  0999 V2000
  124.8931  104.2164  106.9676 C   0  0  0  0  0  0  0  0  0  0  0  0
  120.7992  104.8637  101.8027 C   0  0  0  0  0  0  0  0  0  0  0  0
  121.4514  105.6988  103.9003 C   0  0  0  0  0  0  0  0  0  0  0  0
  121.2981  105.4866  105.3941 C   0  0  0  0  0  0  0  0  0  0  0  0
  124.2472  107.4051  106.3271 C   0  0  0  0  0  0  0  0  0  0  0  0
  123.6353  105.0534  107.2208 C   0  0  2  0  0  0  0  0  0  0  0  0
  123.4411  106.1194  106.1222 C   0  0  1  0  0  0  0  0  0  0  0  0
  123.7464  105.6683  108.5436 N   0  0  0  0  0  0  0  0  0  0  0  0
  124.3841  108.1032  105.0957 O   0  0  0  0  0  0  0  0  0  0  0  0
  120.7092  104.7000  103.2111 O   0  0  0  0  0  0  0  0  0  0  0  0
  122.0542  106.4696  106.0809 O   0  0  0  0  0  0  0  0  0  0  0  0
  125.7899  104.8447  106.9566 H   0  0  0  0  0  0  0  0  0  0  0  0
  125.0268  103.4507  107.7400 H   0  0  0  0  0  0  0  0  0  0  0  0
  124.8399  103.7108  105.9966 H   0  0  0  0  0  0  0  0  0  0  0  0
  120.2191  104.0817  101.3065 H   0  0  0  0  0  0  0  0  0  0  0  0
  121.8462  104.8066  101.4945 H   0  0  0  0  0  0  0  0  0  0  0  0
  120.3945  105.8417  101.5319 H   0  0  0  0  0  0  0  0  0  0  0  0
  122.4991  105.6160  103.5956 H   0  0  0  0  0  0  0  0  0  0  0  0
  121.0592  106.6780  103.6106 H   0  0  0  0  0  0  0  0  0  0  0  0
  121.6690  104.5011  105.6929 H   0  0  0  0  0  0  0  0  0  0  0  0
  120.2503  105.5913  105.6902 H   0  0  0  0  0  0  0  0  0  0  0  0
  123.7594  108.0670  107.0491 H   0  0  0  0  0  0  0  0  0  0  0  0
  125.2537  107.1730  106.6911 H   0  0  0  0  0  0  0  0  0  0  0  0
  122.7817  104.3643  107.2187 H   0  0  0  0  0  0  0  0  0  0  0  0
  123.6937  105.6955  105.1423 H   0  0  0  0  0  0  0  0  0  0  0  0
  124.2239  105.1612  109.2551 H   0  0  0  0  0  0  0  0  0  0  0  0
  123.1759  106.4608  108.7388 H   0  0  0  0  0  0  0  0  0  0  0  0
  124.8996  108.9037  105.2843 H   0  0  0  0  0  0  0  0  0  0  0  0
  1  6  1  0  0  0  0
  2 10  1  0  0  0  0
  3  4  1  0  0  0  0
  3 10  1  0  0  0  0
  4 11  1  0  0  0  0
  5  7  1  0  0  0  0
  5  9  1  0  0  0  0
  6  7  1  0  0  0  0
  6  8  1  0  0  0  0
  7 11  1  0  0  0  0
  1 12  1  0  0  0  0
  1 13  1  0  0  0  0
  1 14  1  0  0  0  0
  2 15  1  0  0  0  0
  2 16  1  0  0  0  0
  2 17  1  0  0  0  0
  3 18  1  0  0  0  0
  3 19  1  0  0  0  0
  4 20  1  0  0  0  0
  4 21  1  0  0  0  0
  5 22  1  0  0  0  0
  5 23  1  0  0  0  0
  6 24  1  0  0  0  0
  7 25  1  0  0  0  0
  8 26  1  0  0  0  0
  8 27  1  0  0  0  0
  9 28  1  0  0  0  0
M  END
> <FRED Chemgauss4 score>
-5.763515

$$$$
C86062192	P134790942
  -OEChem-05182014473D

 23 23  0     1  0  0  0  0  0999 V2000
  121.9960  108.2716  108.0055 C   0  0  0  0  0  0  0  0  0  0  0  0
  123.9439  107.9445  107.3302 C   0  0  0  0  0  0  0  0  0  0  0  0
  127.7046  105.4989  108.0903 C   0  0  0  0  0  0  0  0  0  0  0  0
  126.4342  105.9320  108.0955 C   0  0  0  0  0  0  0  0  0  0  0  0
  125.7007  106.1878  109.3804 C   0  0  0  0  0  0  0  0  0  0  0  0
  125.6669  106.1457  106.8085 C   0  0  0  0  0  0  0  0  0  0  0  0
  125.2144  107.6036  106.5672 C   0  0  1  0  0  0  0  0  0  0  0  0
  122.7009  107.8222  106.9257 N   0  0  0  0  0  0  0  0  0  0  0  0
  122.7246  108.6642  109.0525 N   0  0  0  0  0  0  0  0  0  0  0  0
  123.9666  108.4449  108.5946 N   0  0  0  0  0  0  0  0  0  0  0  0
  125.1005  107.8048  105.1307 N   0  0  0  0  0  0  0  0  0  0  0  0
  120.9173  108.3142  108.0300 H   0  0  0  0  0  0  0  0  0  0  0  0
  128.2308  105.3032  107.1620 H   0  0  0  0  0  0  0  0  0  0  0  0
  128.2493  105.3336  109.0140 H   0  0  0  0  0  0  0  0  0  0  0  0
  125.8413  107.2221  109.7081 H   0  0  0  0  0  0  0  0  0  0  0  0
  124.6290  106.0063  109.2485 H   0  0  0  0  0  0  0  0  0  0  0  0
  126.0482  105.5357  110.1889 H   0  0  0  0  0  0  0  0  0  0  0  0
  124.7851  105.4899  106.8262 H   0  0  0  0  0  0  0  0  0  0  0  0
  126.2617  105.7959  105.9532 H   0  0  0  0  0  0  0  0  0  0  0  0
  126.0175  108.2714  106.9035 H   0  0  0  0  0  0  0  0  0  0  0  0
  124.7584  108.6568  109.1905 H   0  0  0  0  0  0  0  0  0  0  0  0
  125.7239  107.3045  104.5307 H   0  0  0  0  0  0  0  0  0  0  0  0
  124.5546  108.5746  104.8014 H   0  0  0  0  0  0  0  0  0  0  0  0
  1  8  1  0  0  0  0
  1  9  2  0  0  0  0
  2  7  1  0  0  0  0
  2  8  2  0  0  0  0
  2 10  1  0  0  0  0
  3  4  2  0  0  0  0
  4  5  1  0  0  0  0
  4  6  1  0  0  0  0
  6  7  1  0  0  0  0
  7 11  1  0  0  0  0
  9 10  1  0  0  0  0
  1 12  1  0  0  0  0
  3 13  1  0  0  0  0
  3 14  1  0  0  0  0
  5 15  1  0  0  0  0
  5 16  1  0  0  0  0
  5 17  1  0  0  0  0
  6 18  1  0  0  0  0
  6 19  1  0  0  0  0
  7 20  1  0  0  0  0
 10 21  1  0  0  0  0
 11 22  1  0  0  0  0
 11 23  1  0  0  0  0
M  END
> <FRED Chemgauss4 score>
-5.760518

$$$$
C71024810	P109615219
  -OEChem-05182014473D

 25 25  0     1  0  0  0  0  0999 V2000
  125.3981  105.9025  106.4931 C   0  0  0  0  0  0  0  0  0  0  0  0
  124.4073  105.0807  106.8597 C   0  0  0  0  0  0  0  0  0  0  0  0
  125.0446  107.1392  105.7606 C   0  0  0  0  0  0  0  0  0  0  0  0
  122.7636  106.3602  105.9799 C   0  0  0  0  0  0  0  0  0  0  0  0
  119.0046  106.7159  106.6503 C   0  0  0  0  0  0  0  0  0  0  0  0
  120.1554  104.5246  106.3103 C   0  0  0  0  0  0  0  0  0  0  0  0
  121.3351  106.6721  105.6636 C   0  0  2  0  0  0  0  0  0  0  0  0
  120.3626  106.0051  106.6488 C   0  0  0  0  0  0  0  0  0  0  0  0
  123.0703  105.2746  106.6206 N   0  0  0  0  0  0  0  0  0  0  0  0
  123.6876  107.2893  105.5453 N   0  0  0  0  0  0  0  0  0  0  0  0
  121.1961  106.1767  104.3197 N   0  0  0  0  0  0  0  0  0  0  0  0
  125.9069  107.9313  105.3962 O   0  0  0  0  0  0  0  0  0  0  0  0
  126.4378  105.6950  106.7112 H   0  0  0  0  0  0  0  0  0  0  0  0
  124.6484  104.1690  107.3972 H   0  0  0  0  0  0  0  0  0  0  0  0
  118.5413  106.6915  105.6588 H   0  0  0  0  0  0  0  0  0  0  0  0
  119.1179  107.7684  106.9320 H   0  0  0  0  0  0  0  0  0  0  0  0
  118.3134  106.2488  107.3602 H   0  0  0  0  0  0  0  0  0  0  0  0
  119.7442  104.4023  105.3023 H   0  0  0  0  0  0  0  0  0  0  0  0
  121.0969  103.9685  106.3636 H   0  0  0  0  0  0  0  0  0  0  0  0
  119.4607  104.0584  107.0174 H   0  0  0  0  0  0  0  0  0  0  0  0
  121.2042  107.7585  105.6354 H   0  0  0  0  0  0  0  0  0  0  0  0
  120.7742  106.0633  107.6654 H   0  0  0  0  0  0  0  0  0  0  0  0
  123.3583  108.1127  105.0496 H   0  0  0  0  0  0  0  0  0  0  0  0
  121.9914  106.2039  103.7023 H   0  0  0  0  0  0  0  0  0  0  0  0
  120.2738  106.0035  103.9539 H   0  0  0  0  0  0  0  0  0  0  0  0
  1  2  2  0  0  0  0
  1  3  1  0  0  0  0
  2  9  1  0  0  0  0
  3 10  1  0  0  0  0
  3 12  2  0  0  0  0
  4  7  1  0  0  0  0
  4  9  2  0  0  0  0
  4 10  1  0  0  0  0
  5  8  1  0  0  0  0
  6  8  1  0  0  0  0
  7  8  1  0  0  0  0
  7 11  1  0  0  0  0
  1 13  1  0  0  0  0
  2 14  1  0  0  0  0
  5 15  1  0  0  0  0
  5 16  1  0  0  0  0
  5 17  1  0  0  0  0
  6 18  1  0  0  0  0
  6 19  1  0  0  0  0
  6 20  1  0  0  0  0
  7 21  1  0  0  0  0
  8 22  1  0  0  0  0
 10 23  1  0  0  0  0
 11 24  1  0  0  0  0
 11 25  1  0  0  0  0
M  END
> <FRED Chemgauss4 score>
-5.758626

$$$$
C35803382	P53143861
  -OEChem-05182014473D

 17 16  0     0  0  0  0  0  0999 V2000
  125.1838  103.5656  107.5813 C   0  0  0  0  0  0  0  0  0  0  0  0
  124.9570  104.6723  108.5204 C   0  0  0  0  0  0  0  0  0  0  0  0
  124.3199  105.8846  107.8419 C   0  0  0  0  0  0  0  0  0  0  0  0
  125.1415  106.4036  106.6683 C   0  0  0  0  0  0  0  0  0  0  0  0
  125.3638  102.6904  106.8410 N   0  0  0  0  0  0  0  0  0  0  0  0
  124.3024  108.8626  107.2164 N   0  0  0  0  0  0  0  0  0  0  0  0
  125.2586  108.3161  104.8918 O   0  0  0  0  0  0  0  0  0  0  0  0
  122.9986  107.3979  105.5514 O   0  0  0  0  0  0  0  0  0  0  0  0
  124.3556  107.7837  105.8974 S   0  0  0  0  0  0  0  0  0  0  0  0
  124.3296  104.3349  109.3533 H   0  0  0  0  0  0  0  0  0  0  0  0
  125.9192  104.9742  108.9505 H   0  0  0  0  0  0  0  0  0  0  0  0
  124.1653  106.6900  108.5713 H   0  0  0  0  0  0  0  0  0  0  0  0
  123.3239  105.5989  107.4807 H   0  0  0  0  0  0  0  0  0  0  0  0
  125.2614  105.6367  105.8973 H   0  0  0  0  0  0  0  0  0  0  0  0
  126.1314  106.7448  106.9843 H   0  0  0  0  0  0  0  0  0  0  0  0
  124.9257  109.6789  107.1921 H   0  0  0  0  0  0  0  0  0  0  0  0
  123.3867  109.0533  107.6415 H   0  0  0  0  0  0  0  0  0  0  0  0
  1  2  1  0  0  0  0
  1  5  3  0  0  0  0
  2  3  1  0  0  0  0
  3  4  1  0  0  0  0
  4  9  1  0  0  0  0
  6  9  1  0  0  0  0
  7  9  2  0  0  0  0
  8  9  2  0  0  0  0
  2 10  1  0  0  0  0
  2 11  1  0  0  0  0
  3 12  1  0  0  0  0
  3 13  1  0  0  0  0
  4 14  1  0  0  0  0
  4 15  1  0  0  0  0
  6 16  1  0  0  0  0
  6 17  1  0  0  0  0
M  END
> <FRED Chemgauss4 score>
-5.758128

$$$$
C19472821	P28835153
  -OEChem-05182014473D

 28 28  0     1  0  0  0  0  0999 V2000
  126.0682  105.7940  108.9879 C   0  0  0  0  0  0  0  0  0  0  0  0
  124.2143  107.3168  105.9248 C   0  0  0  0  0  0  0  0  0  0  0  0
  123.7840  104.1871  107.5969 C   0  0  0  0  0  0  0  0  0  0  0  0
  125.2095  103.7380  107.9210 C   0  0  0  0  0  0  0  0  0  0  0  0
  123.7267  104.9167  106.2606 C   0  0  0  0  0  0  0  0  0  0  0  0
  126.0690  105.6724  106.5016 C   0  0  0  0  0  0  0  0  0  0  0  0
  126.2267  104.8696  107.7904 C   0  0  1  0  0  0  0  0  0  0  0  0
  122.7866  107.6368  106.2895 C   0  0  0  0  0  0  0  0  0  0  0  0
  124.6689  106.0358  106.2395 N   0  0  0  0  0  0  0  0  0  0  0  0
  126.9583  106.8417  109.0013 N   0  0  0  0  0  0  0  0  0  0  0  0
  121.9759  107.2781  105.1657 N   0  0  0  0  0  0  0  0  0  0  0  0
  125.2057  105.6117  109.8436 O   0  0  0  0  0  0  0  0  0  0  0  0
  124.9027  108.1797  105.3737 O   0  0  0  0  0  0  0  0  0  0  0  0
  123.1178  103.3175  107.5755 H   0  0  0  0  0  0  0  0  0  0  0  0
  123.4214  104.8505  108.3917 H   0  0  0  0  0  0  0  0  0  0  0  0
  125.2335  103.3077  108.9295 H   0  0  0  0  0  0  0  0  0  0  0  0
  125.4875  102.9341  107.2273 H   0  0  0  0  0  0  0  0  0  0  0  0
  123.9994  104.2421  105.4404 H   0  0  0  0  0  0  0  0  0  0  0  0
  122.7052  105.2623  106.0732 H   0  0  0  0  0  0  0  0  0  0  0  0
  126.7148  106.5528  106.5275 H   0  0  0  0  0  0  0  0  0  0  0  0
  126.3933  105.0649  105.6477 H   0  0  0  0  0  0  0  0  0  0  0  0
  127.2297  104.4690  107.8578 H   0  0  0  0  0  0  0  0  0  0  0  0
  122.7207  108.7003  106.4993 H   0  0  0  0  0  0  0  0  0  0  0  0
  122.5226  107.0551  107.1677 H   0  0  0  0  0  0  0  0  0  0  0  0
  127.6291  106.9206  108.2439 H   0  0  0  0  0  0  0  0  0  0  0  0
  126.9715  107.5394  109.7382 H   0  0  0  0  0  0  0  0  0  0  0  0
  122.3398  107.3985  104.2304 H   0  0  0  0  0  0  0  0  0  0  0  0
  120.9890  107.1039  105.2992 H   0  0  0  0  0  0  0  0  0  0  0  0
  1  7  1  0  0  0  0
  1 10  1  0  0  0  0
  1 12  2  0  0  0  0
  2  8  1  0  0  0  0
  2  9  1  0  0  0  0
  2 13  2  0  0  0  0
  3  4  1  0  0  0  0
  3  5  1  0  0  0  0
  4  7  1  0  0  0  0
  5  9  1  0  0  0  0
  6  7  1  0  0  0  0
  6  9  1  0  0  0  0
  8 11  1  0  0  0  0
  3 14  1  0  0  0  0
  3 15  1  0  0  0  0
  4 16  1  0  0  0  0
  4 17  1  0  0  0  0
  5 18  1  0  0  0  0
  5 19  1  0  0  0  0
  6 20  1  0  0  0  0
  6 21  1  0  0  0  0
  7 22  1  0  0  0  0
  8 23  1  0  0  0  0
  8 24  1  0  0  0  0
 10 25  1  0  0  0  0
 10 26  1  0  0  0  0
 11 27  1  0  0  0  0
 11 28  1  0  0  0  0
M  END
> <FRED Chemgauss4 score>
-5.757557

$$$$
C05975518	P111279700
  -OEChem-05182014473D

 23 23  0     1  0  0  0  0  0999 V2000
  123.2496  105.1849  108.3198 C   0  0  2  0  0  0  0  0  0  0  0  0
  124.4773  106.0882  108.2538 C   0  0  1  0  0  0  0  0  0  0  0  0
  122.0378  105.8476  107.6642 C   0  0  1  0  0  0  0  0  0  0  0  0
  124.7902  106.4161  106.7786 C   0  0  2  0  0  0  0  0  0  0  0  0
  122.4386  106.8889  106.6175 C   0  0  1  0  0  0  0  0  0  0  0  0
  125.5888  107.7003  106.5853 C   0  0  0  0  0  0  0  0  0  0  0  0
  123.6188  106.4622  105.9426 O   0  0  0  0  0  0  0  0  0  0  0  0
  122.9577  104.8700  109.6767 O   0  0  0  0  0  0  0  0  0  0  0  0
  124.2298  107.2852  108.9937 O   0  0  0  0  0  0  0  0  0  0  0  0
  121.3559  107.0689  105.7113 O   0  0  0  0  0  0  0  0  0  0  0  0
  125.8200  107.8844  105.2003 O   0  0  0  0  0  0  0  0  0  0  0  0
  121.3322  104.8530  107.0434 F   0  0  0  0  0  0  0  0  0  0  0  0
  123.4629  104.2305  107.8115 H   0  0  0  0  0  0  0  0  0  0  0  0
  125.3337  105.5836  108.7285 H   0  0  0  0  0  0  0  0  0  0  0  0
  121.3904  106.2776  108.4224 H   0  0  0  0  0  0  0  0  0  0  0  0
  125.4446  105.5811  106.3773 H   0  0  0  0  0  0  0  0  0  0  0  0
  122.6318  107.8342  107.1059 H   0  0  0  0  0  0  0  0  0  0  0  0
  126.5456  107.6260  107.1029 H   0  0  0  0  0  0  0  0  0  0  0  0
  125.0272  108.5510  106.9724 H   0  0  0  0  0  0  0  0  0  0  0  0
  123.7384  104.4156  110.0305 H   0  0  0  0  0  0  0  0  0  0  0  0
  124.0504  107.0088  109.9042 H   0  0  0  0  0  0  0  0  0  0  0  0
  121.6444  107.7321  105.0657 H   0  0  0  0  0  0  0  0  0  0  0  0
  126.3293  108.7070  105.1030 H   0  0  0  0  0  0  0  0  0  0  0  0
  1  2  1  0  0  0  0
  1  3  1  0  0  0  0
  1  8  1  0  0  0  0
  2  4  1  0  0  0  0
  2  9  1  0  0  0  0
  3  5  1  0  0  0  0
  3 12  1  0  0  0  0
  4  6  1  0  0  0  0
  4  7  1  0  0  0  0
  5  7  1  0  0  0  0
  5 10  1  0  0  0  0
  6 11  1  0  0  0  0
  1 13  1  0  0  0  0
  2 14  1  0  0  0  0
  3 15  1  0  0  0  0
  4 16  1  0  0  0  0
  5 17  1  0  0  0  0
  6 18  1  0  0  0  0
  6 19  1  0  0  0  0
  8 20  1  0  0  0  0
  9 21  1  0  0  0  0
 10 22  1  0  0  0  0
 11 23  1  0  0  0  0
M  END
> <FRED Chemgauss4 score>
-5.756792

$$$$
C82987538	P129754919
  -OEChem-05182014473D

 32 33  0     1  0  0  0  0  0999 V2000
  120.7491  105.8593  104.2184 C   0  0  0  0  0  0  0  0  0  0  0  0
  122.4730  106.7307  105.2344 C   0  0  0  0  0  0  0  0  0  0  0  0
  123.6349  106.7981  106.1601 C   0  0  0  0  0  0  0  0  0  0  0  0
  121.8493  104.4636  106.0178 C   0  0  0  0  0  0  0  0  0  0  0  0
  123.2174  104.4669  106.7150 C   0  0  0  0  0  0  0  0  0  0  0  0
  123.5265  106.9188  110.0282 C   0  0  0  0  0  0  0  0  0  0  0  0
  125.9539  105.8093  107.0990 C   0  0  0  0  0  0  0  0  0  0  0  0
  124.7468  105.7829  108.0470 C   0  0  1  0  0  0  0  0  0  0  0  0
  124.7381  106.9251  109.0934 C   0  0  2  0  0  0  0  0  0  0  0  0
  120.9458  107.0596  103.7159 N   0  0  0  0  0  0  0  0  0  0  0  0
  122.0415  107.6129  104.3585 N   0  0  0  0  0  0  0  0  0  0  0  0
  121.6854  105.6179  105.1652 N   0  0  0  0  0  0  0  0  0  0  0  0
  123.5211  105.8073  107.2504 N   0  0  1  0  0  0  0  0  0  0  0  0
  125.9554  106.8703  109.9099 N   0  0  0  0  0  0  0  0  0  0  0  0
  126.2651  107.1582  106.7625 O   0  0  0  0  0  0  0  0  0  0  0  0
  119.9760  105.1601  103.9345 H   0  0  0  0  0  0  0  0  0  0  0  0
  124.5518  106.6072  105.5903 H   0  0  0  0  0  0  0  0  0  0  0  0
  123.6968  107.8174  106.5626 H   0  0  0  0  0  0  0  0  0  0  0  0
  121.7444  103.5818  105.3751 H   0  0  0  0  0  0  0  0  0  0  0  0
  121.0398  104.4659  106.7549 H   0  0  0  0  0  0  0  0  0  0  0  0
  123.2265  103.7218  107.5222 H   0  0  0  0  0  0  0  0  0  0  0  0
  123.9754  104.1637  105.9828 H   0  0  0  0  0  0  0  0  0  0  0  0
  123.4615  105.9827  110.5914 H   0  0  0  0  0  0  0  0  0  0  0  0
  122.5959  107.0135  109.4563 H   0  0  0  0  0  0  0  0  0  0  0  0
  123.5573  107.7463  110.7449 H   0  0  0  0  0  0  0  0  0  0  0  0
  126.8397  105.3794  107.5765 H   0  0  0  0  0  0  0  0  0  0  0  0
  125.7583  105.2593  106.1722 H   0  0  0  0  0  0  0  0  0  0  0  0
  124.7462  104.8202  108.5750 H   0  0  0  0  0  0  0  0  0  0  0  0
  124.7473  107.8847  108.5602 H   0  0  0  0  0  0  0  0  0  0  0  0
  125.9383  107.3189  110.7966 H   0  0  0  0  0  0  0  0  0  0  0  0
  126.7950  106.5728  109.4688 H   0  0  0  0  0  0  0  0  0  0  0  0
  127.0291  107.1255  106.1659 H   0  0  0  0  0  0  0  0  0  0  0  0
  1 10  2  0  0  0  0
  1 12  1  0  0  0  0
  2  3  1  0  0  0  0
  2 11  2  0  0  0  0
  2 12  1  0  0  0  0
  3 13  1  0  0  0  0
  4  5  1  0  0  0  0
  4 12  1  0  0  0  0
  5 13  1  0  0  0  0
  6  9  1  0  0  0  0
  7  8  1  0  0  0  0
  7 15  1  0  0  0  0
  8  9  1  0  0  0  0
  8 13  1  0  0  0  0
  9 14  1  0  0  0  0
 10 11  1  0  0  0  0
  1 16  1  0  0  0  0
  3 17  1  0  0  0  0
  3 18  1  0  0  0  0
  4 19  1  0  0  0  0
  4 20  1  0  0  0  0
  5 21  1  0  0  0  0
  5 22  1  0  0  0  0
  6 23  1  0  0  0  0
  6 24  1  0  0  0  0
  6 25  1  0  0  0  0
  7 26  1  0  0  0  0
  7 27  1  0  0  0  0
  8 28  1  0  0  0  0
  9 29  1  0  0  0  0
 14 30  1  0  0  0  0
 14 31  1  0  0  0  0
 15 32  1  0  0  0  0
M  END
> <FRED Chemgauss4 score>
-5.753957

$$$$
C70368618	P108497256
  -OEChem-05182014473D

 39 40  0     1  0  0  0  0  0999 V2000
  120.7062  106.4592  105.0725 C   0  0  0  0  0  0  0  0  0  0  0  0
  120.8490  105.2254  105.6720 C   0  0  0  0  0  0  0  0  0  0  0  0
  122.8217  106.6072  105.6319 C   0  0  0  0  0  0  0  0  0  0  0  0
  124.2809  108.4778  106.6353 C   0  0  0  0  0  0  0  0  0  0  0  0
  125.2531  106.2024  106.5000 C   0  0  0  0  0  0  0  0  0  0  0  0
  124.0006  108.2117  108.1124 C   0  0  0  0  0  0  0  0  0  0  0  0
  124.9520  106.0377  107.9986 C   0  0  1  0  0  0  0  0  0  0  0  0
  124.2486  107.1647  105.8050 C   0  0  1  0  0  0  0  0  0  0  0  0
  119.4686  106.9940  104.4686 C   0  0  0  0  0  0  0  0  0  0  0  0
  119.8627  104.1444  105.8708 C   0  0  0  0  0  0  0  0  0  0  0  0
  126.7806  102.8093  109.1011 C   0  0  0  0  0  0  0  0  0  0  0  0
  126.0038  105.1640  108.6707 C   0  0  0  0  0  0  0  0  0  0  0  0
  125.7164  103.6808  108.4536 C   0  0  0  0  0  0  0  0  0  0  0  0
  121.8363  107.2531  105.0490 N   0  0  0  0  0  0  0  0  0  0  0  0
  124.8033  107.4613  104.4705 N   0  0  0  0  0  0  0  0  0  0  0  0
  124.9674  107.3111  108.6500 O   0  0  0  0  0  0  0  0  0  0  0  0
  122.4599  105.0402  106.2308 S   0  0  0  0  0  0  0  0  0  0  0  0
  123.5479  109.1983  106.2506 H   0  0  0  0  0  0  0  0  0  0  0  0
  125.2730  108.9418  106.5479 H   0  0  0  0  0  0  0  0  0  0  0  0
  126.2694  106.6062  106.3873 H   0  0  0  0  0  0  0  0  0  0  0  0
  125.2415  105.2186  106.0124 H   0  0  0  0  0  0  0  0  0  0  0  0
  124.0772  109.1483  108.6743 H   0  0  0  0  0  0  0  0  0  0  0  0
  122.9932  107.8144  108.2797 H   0  0  0  0  0  0  0  0  0  0  0  0
  123.9700  105.5753  108.1510 H   0  0  0  0  0  0  0  0  0  0  0  0
  118.8719  107.5466  105.2120 H   0  0  0  0  0  0  0  0  0  0  0  0
  119.6811  107.6797  103.6312 H   0  0  0  0  0  0  0  0  0  0  0  0
  118.8325  106.1937  104.0545 H   0  0  0  0  0  0  0  0  0  0  0  0
  119.8636  103.4451  105.0191 H   0  0  0  0  0  0  0  0  0  0  0  0
  120.0676  103.5611  106.7844 H   0  0  0  0  0  0  0  0  0  0  0  0
  118.8374  104.5363  105.9825 H   0  0  0  0  0  0  0  0  0  0  0  0
  127.7734  103.0407  108.7021 H   0  0  0  0  0  0  0  0  0  0  0  0
  126.5743  101.7520  108.9073 H   0  0  0  0  0  0  0  0  0  0  0  0
  126.8029  102.9577  110.1855 H   0  0  0  0  0  0  0  0  0  0  0  0
  126.9896  105.4177  108.2666 H   0  0  0  0  0  0  0  0  0  0  0  0
  126.0226  105.3890  109.7425 H   0  0  0  0  0  0  0  0  0  0  0  0
  124.7369  103.4245  108.8742 H   0  0  0  0  0  0  0  0  0  0  0  0
  125.6758  103.4614  107.3803 H   0  0  0  0  0  0  0  0  0  0  0  0
  124.5686  108.3334  104.0521 H   0  0  0  0  0  0  0  0  0  0  0  0
  125.2134  106.7118  103.9598 H   0  0  0  0  0  0  0  0  0  0  0  0
  1  2  2  0  0  0  0
  1  9  1  0  0  0  0
  1 14  1  0  0  0  0
  2 10  1  0  0  0  0
  2 17  1  0  0  0  0
  3  8  1  0  0  0  0
  3 14  2  0  0  0  0
  3 17  1  0  0  0  0
  4  6  1  0  0  0  0
  4  8  1  0  0  0  0
  5  7  1  0  0  0  0
  5  8  1  0  0  0  0
  6 16  1  0  0  0  0
  7 12  1  0  0  0  0
  7 16  1  0  0  0  0
  8 15  1  0  0  0  0
 11 13  1  0  0  0  0
 12 13  1  0  0  0  0
  4 18  1  0  0  0  0
  4 19  1  0  0  0  0
  5 20  1  0  0  0  0
  5 21  1  0  0  0  0
  6 22  1  0  0  0  0
  6 23  1  0  0  0  0
  7 24  1  0  0  0  0
  9 25  1  0  0  0  0
  9 26  1  0  0  0  0
  9 27  1  0  0  0  0
 10 28  1  0  0  0  0
 10 29  1  0  0  0  0
 10 30  1  0  0  0  0
 11 31  1  0  0  0  0
 11 32  1  0  0  0  0
 11 33  1  0  0  0  0
 12 34  1  0  0  0  0
 12 35  1  0  0  0  0
 13 36  1  0  0  0  0
 13 37  1  0  0  0  0
 15 38  1  0  0  0  0
 15 39  1  0  0  0  0
M  END
> <FRED Chemgauss4 score>
-5.747039

$$$$
C31369265	P118184606
  -OEChem-05182014473D

 49 51  0     1  0  0  0  0  0999 V2000
  117.3564  105.6882  101.8132 C   0  0  0  0  0  0  0  0  0  0  0  0
  116.0621  105.2857  101.5587 C   0  0  0  0  0  0  0  0  0  0  0  0
  117.7792  105.3366  103.1300 C   0  0  0  0  0  0  0  0  0  0  0  0
  116.7807  104.6732  103.8136 C   0  0  0  0  0  0  0  0  0  0  0  0
  124.7958  106.8255  107.7660 C   0  0  0  0  0  0  0  0  0  0  0  0
  124.4691  106.2360  108.9373 C   0  0  0  0  0  0  0  0  0  0  0  0
  125.8646  106.1820  106.9382 C   0  0  0  0  0  0  0  0  0  0  0  0
  125.9599  104.5253  108.6862 C   0  0  0  0  0  0  0  0  0  0  0  0
  123.2927  107.6593  106.0212 C   0  0  0  0  0  0  0  0  0  0  0  0
  119.1237  105.5918  103.7422 C   0  0  0  0  0  0  0  0  0  0  0  0
  116.9152  104.2015  105.2237 C   0  0  0  0  0  0  0  0  0  0  0  0
  118.3942  104.2528  105.6558 C   0  0  0  0  0  0  0  0  0  0  0  0
  123.4383  106.8055  109.8771 C   0  0  0  0  0  0  0  0  0  0  0  0
  126.6316  103.2626  109.1420 C   0  0  0  0  0  0  0  0  0  0  0  0
  121.2462  104.4812  105.3494 C   0  0  0  0  0  0  0  0  0  0  0  0
  124.1808  108.0498  107.1867 C   0  0  0  0  0  0  0  0  0  0  0  0
  120.9548  107.0121  105.4678 C   0  0  0  0  0  0  0  0  0  0  0  0
  120.3672  105.6406  105.8077 C   0  0  1  0  0  0  0  0  0  0  0  0
  125.0435  105.0758  109.4153 N   0  0  0  0  0  0  0  0  0  0  0  0
  126.3872  105.0278  107.4815 N   0  0  0  0  0  0  0  0  0  0  0  0
  119.0348  105.5105  105.2176 N   0  0  1  0  0  0  0  0  0  0  0  0
  121.9865  107.3994  106.4028 N   0  0  0  0  0  0  0  0  0  0  0  0
  126.2338  106.6589  105.8688 O   0  0  0  0  0  0  0  0  0  0  0  0
  123.7208  107.5934  104.8700 O   0  0  0  0  0  0  0  0  0  0  0  0
  115.3607  104.4844  102.9016 S   0  0  0  0  0  0  0  0  0  0  0  0
  117.9689  106.2070  101.0868 H   0  0  0  0  0  0  0  0  0  0  0  0
  115.4959  105.4223  100.6482 H   0  0  0  0  0  0  0  0  0  0  0  0
  119.8372  104.8562  103.3484 H   0  0  0  0  0  0  0  0  0  0  0  0
  119.4679  106.5914  103.4517 H   0  0  0  0  0  0  0  0  0  0  0  0
  116.3212  104.8543  105.8759 H   0  0  0  0  0  0  0  0  0  0  0  0
  116.5364  103.1794  105.3361 H   0  0  0  0  0  0  0  0  0  0  0  0
  118.4284  104.1657  106.7488 H   0  0  0  0  0  0  0  0  0  0  0  0
  118.9338  103.3880  105.2458 H   0  0  0  0  0  0  0  0  0  0  0  0
  122.4634  106.4010  109.6239 H   0  0  0  0  0  0  0  0  0  0  0  0
  123.4265  107.8869  109.7806 H   0  0  0  0  0  0  0  0  0  0  0  0
  123.6975  106.5358  110.8962 H   0  0  0  0  0  0  0  0  0  0  0  0
  126.0776  102.4039  108.7708 H   0  0  0  0  0  0  0  0  0  0  0  0
  126.6581  103.2385  110.2290 H   0  0  0  0  0  0  0  0  0  0  0  0
  127.6489  103.2352  108.7586 H   0  0  0  0  0  0  0  0  0  0  0  0
  121.3951  104.4846  104.2641 H   0  0  0  0  0  0  0  0  0  0  0  0
  122.2376  104.5446  105.8118 H   0  0  0  0  0  0  0  0  0  0  0  0
  120.8031  103.5207  105.6320 H   0  0  0  0  0  0  0  0  0  0  0  0
  124.9564  108.7229  106.8077 H   0  0  0  0  0  0  0  0  0  0  0  0
  123.6228  108.5811  107.9632 H   0  0  0  0  0  0  0  0  0  0  0  0
  120.1662  107.7729  105.4828 H   0  0  0  0  0  0  0  0  0  0  0  0
  121.3767  106.9999  104.4570 H   0  0  0  0  0  0  0  0  0  0  0  0
  120.2608  105.5758  106.8970 H   0  0  0  0  0  0  0  0  0  0  0  0
  127.1135  104.5318  106.9732 H   0  0  0  0  0  0  0  0  0  0  0  0
  121.7427  107.4849  107.3848 H   0  0  0  0  0  0  0  0  0  0  0  0
  1  2  2  0  0  0  0
  1  3  1  0  0  0  0
  2 25  1  0  0  0  0
  3  4  2  0  0  0  0
  3 10  1  0  0  0  0
  4 11  1  0  0  0  0
  4 25  1  0  0  0  0
  5  6  2  0  0  0  0
  5  7  1  0  0  0  0
  5 16  1  0  0  0  0
  6 13  1  0  0  0  0
  6 19  1  0  0  0  0
  7 20  1  0  0  0  0
  7 23  2  0  0  0  0
  8 14  1  0  0  0  0
  8 19  2  0  0  0  0
  8 20  1  0  0  0  0
  9 16  1  0  0  0  0
  9 22  1  0  0  0  0
  9 24  2  0  0  0  0
 10 21  1  0  0  0  0
 11 12  1  0  0  0  0
 12 21  1  0  0  0  0
 15 18  1  0  0  0  0
 17 18  1  0  0  0  0
 17 22  1  0  0  0  0
 18 21  1  0  0  0  0
  1 26  1  0  0  0  0
  2 27  1  0  0  0  0
 10 28  1  0  0  0  0
 10 29  1  0  0  0  0
 11 30  1  0  0  0  0
 11 31  1  0  0  0  0
 12 32  1  0  0  0  0
 12 33  1  0  0  0  0
 13 34  1  0  0  0  0
 13 35  1  0  0  0  0
 13 36  1  0  0  0  0
 14 37  1  0  0  0  0
 14 38  1  0  0  0  0
 14 39  1  0  0  0  0
 15 40  1  0  0  0  0
 15 41  1  0  0  0  0
 15 42  1  0  0  0  0
 16 43  1  0  0  0  0
 16 44  1  0  0  0  0
 17 45  1  0  0  0  0
 17 46  1  0  0  0  0
 18 47  1  0  0  0  0
 20 48  1  0  0  0  0
 22 49  1  0  0  0  0
M  END
> <FRED Chemgauss4 score>
-5.745668

$$$$
C34264772	P117567526
  -OEChem-05182014473D

 19 18  0     1  0  0  0  0  0999 V2000
  126.1312  105.3913  108.8293 C   0  0  0  0  0  0  0  0  0  0  0  0
  125.3020  106.1099  108.0636 C   0  0  0  0  0  0  0  0  0  0  0  0
  123.5594  106.8221  105.5396 C   0  0  0  0  0  0  0  0  0  0  0  0
  125.7529  106.9639  106.9126 C   0  0  1  0  0  0  0  0  0  0  0  0
  125.0769  106.6144  105.5715 C   0  0  2  0  0  0  0  0  0  0  0  0
  123.1876  108.1992  105.8328 N   0  0  0  0  0  0  0  0  0  0  0  0
  125.4490  108.3212  107.2423 O   0  0  0  0  0  0  0  0  0  0  0  0
  125.6432  107.4096  104.5254 O   0  0  0  0  0  0  0  0  0  0  0  0
  125.7641  104.7872  109.6515 H   0  0  0  0  0  0  0  0  0  0  0  0
  127.1987  105.3979  108.6387 H   0  0  0  0  0  0  0  0  0  0  0  0
  124.2372  106.0739  108.2800 H   0  0  0  0  0  0  0  0  0  0  0  0
  123.1781  106.5468  104.5487 H   0  0  0  0  0  0  0  0  0  0  0  0
  123.0627  106.1467  106.2455 H   0  0  0  0  0  0  0  0  0  0  0  0
  126.8421  106.9061  106.8027 H   0  0  0  0  0  0  0  0  0  0  0  0
  125.3047  105.5717  105.3155 H   0  0  0  0  0  0  0  0  0  0  0  0
  122.2757  108.3751  106.2005 H   0  0  0  0  0  0  0  0  0  0  0  0
  123.7641  108.9316  105.4733 H   0  0  0  0  0  0  0  0  0  0  0  0
  125.9383  108.5200  108.0542 H   0  0  0  0  0  0  0  0  0  0  0  0
  126.5997  107.2644  104.5628 H   0  0  0  0  0  0  0  0  0  0  0  0
  1  2  2  0  0  0  0
  2  4  1  0  0  0  0
  3  5  1  0  0  0  0
  3  6  1  0  0  0  0
  4  5  1  0  0  0  0
  4  7  1  0  0  0  0
  5  8  1  0  0  0  0
  1  9  1  0  0  0  0
  1 10  1  0  0  0  0
  2 11  1  0  0  0  0
  3 12  1  0  0  0  0
  3 13  1  0  0  0  0
  4 14  1  0  0  0  0
  5 15  1  0  0  0  0
  6 16  1  0  0  0  0
  6 17  1  0  0  0  0
  7 18  1  0  0  0  0
  8 19  1  0  0  0  0
M  END
> <FRED Chemgauss4 score>
-5.744370

$$$$
C41167148	P62470687
  -OEChem-05182014473D

 23 23  0     1  0  0  0  0  0999 V2000
  122.2116  104.5906  105.5491 C   0  0  0  0  0  0  0  0  0  0  0  0
  123.2113  104.6312  106.5146 C   0  0  0  0  0  0  0  0  0  0  0  0
  122.0461  105.7029  104.7397 C   0  0  0  0  0  0  0  0  0  0  0  0
  123.7583  106.8264  105.7809 C   0  0  0  0  0  0  0  0  0  0  0  0
  124.0039  105.7668  106.6393 C   0  0  0  0  0  0  0  0  0  0  0  0
  124.1557  104.5434  109.6975 C   0  0  0  0  0  0  0  0  0  0  0  0
  125.1071  105.8423  107.6859 C   0  0  1  0  0  0  0  0  0  0  0  0
  125.1598  104.5565  108.5467 C   0  0  1  0  0  0  0  0  0  0  0  0
  122.7964  106.8237  104.8310 N   0  0  0  0  0  0  0  0  0  0  0  0
  126.3977  106.1200  107.0458 N   0  0  0  0  0  0  0  0  0  0  0  0
  126.4648  104.4321  109.1225 O   0  0  0  0  0  0  0  0  0  0  0  0
  121.5819  103.7158  105.4337 H   0  0  0  0  0  0  0  0  0  0  0  0
  123.3657  103.7742  107.1646 H   0  0  0  0  0  0  0  0  0  0  0  0
  121.2798  105.7209  103.9716 H   0  0  0  0  0  0  0  0  0  0  0  0
  124.3446  107.7387  105.8311 H   0  0  0  0  0  0  0  0  0  0  0  0
  124.2696  105.4143  110.3491 H   0  0  0  0  0  0  0  0  0  0  0  0
  124.2629  103.6352  110.3008 H   0  0  0  0  0  0  0  0  0  0  0  0
  123.1313  104.5419  109.3082 H   0  0  0  0  0  0  0  0  0  0  0  0
  124.8847  106.6862  108.3526 H   0  0  0  0  0  0  0  0  0  0  0  0
  124.9965  103.6636  107.9326 H   0  0  0  0  0  0  0  0  0  0  0  0
  127.2227  105.8885  107.5492 H   0  0  0  0  0  0  0  0  0  0  0  0
  126.3986  106.7041  106.2417 H   0  0  0  0  0  0  0  0  0  0  0  0
  126.4695  103.5905  109.6005 H   0  0  0  0  0  0  0  0  0  0  0  0
  1  2  2  0  0  0  0
  1  3  1  0  0  0  0
  2  5  1  0  0  0  0
  3  9  2  0  0  0  0
  4  5  2  0  0  0  0
  4  9  1  0  0  0  0
  5  7  1  0  0  0  0
  6  8  1  0  0  0  0
  7  8  1  0  0  0  0
  7 10  1  0  0  0  0
  8 11  1  0  0  0  0
  1 12  1  0  0  0  0
  2 13  1  0  0  0  0
  3 14  1  0  0  0  0
  4 15  1  0  0  0  0
  6 16  1  0  0  0  0
  6 17  1  0  0  0  0
  6 18  1  0  0  0  0
  7 19  1  0  0  0  0
  8 20  1  0  0  0  0
 10 21  1  0  0  0  0
 10 22  1  0  0  0  0
 11 23  1  0  0  0  0
M  END
> <FRED Chemgauss4 score>
-5.740929

$$$$
C38995816	P59081245
  -OEChem-05182014473D

 15 15  0     0  0  0  0  0  0999 V2000
  126.1546  105.3829  107.8179 C   0  0  0  0  0  0  0  0  0  0  0  0
  125.1716  105.6510  108.7410 C   0  0  0  0  0  0  0  0  0  0  0  0
  124.8092  106.7152  106.8456 C   0  0  0  0  0  0  0  0  0  0  0  0
  124.1272  107.5963  105.8768 C   0  0  0  0  0  0  0  0  0  0  0  0
  125.9234  106.0486  106.6402 N   0  0  0  0  0  0  0  0  0  0  0  0
  124.3172  106.5061  108.1039 N   0  0  0  0  0  0  0  0  0  0  0  0
  125.0915  108.1996  105.0070 O   0  0  0  0  0  0  0  0  0  0  0  0
  123.1798  106.8400  105.1145 O   0  0  0  0  0  0  0  0  0  0  0  0
  123.1669  107.0555  108.6433 O   0  0  0  0  0  0  0  0  0  0  0  0
  127.0177  104.7453  107.9415 H   0  0  0  0  0  0  0  0  0  0  0  0
  125.0091  105.3204  109.7570 H   0  0  0  0  0  0  0  0  0  0  0  0
  123.5737  108.4136  106.3790 H   0  0  0  0  0  0  0  0  0  0  0  0
  124.6178  108.7731  104.3808 H   0  0  0  0  0  0  0  0  0  0  0  0
  122.7461  107.4420  104.4862 H   0  0  0  0  0  0  0  0  0  0  0  0
  123.1772  106.6639  109.5360 H   0  0  0  0  0  0  0  0  0  0  0  0
  1  2  2  0  0  0  0
  1  5  1  0  0  0  0
  2  6  1  0  0  0  0
  3  4  1  0  0  0  0
  3  5  2  0  0  0  0
  3  6  1  0  0  0  0
  4  7  1  0  0  0  0
  4  8  1  0  0  0  0
  6  9  1  0  0  0  0
  1 10  1  0  0  0  0
  2 11  1  0  0  0  0
  4 12  1  0  0  0  0
  7 13  1  0  0  0  0
  8 14  1  0  0  0  0
  9 15  1  0  0  0  0
M  END
> <FRED Chemgauss4 score>
-5.740383

$$$$
C02508339	P22788107
  -OEChem-05182014473D

 21 22  0     1  0  0  0  0  0999 V2000
  121.5751  107.4582  106.6772 C   0  0  0  0  0  0  0  0  0  0  0  0
  122.4795  106.9000  107.7576 C   0  0  2  0  0  0  0  0  0  0  0  0
  123.6490  107.8276  108.1411 C   0  0  2  0  0  0  0  0  0  0  0  0
  124.4735  108.2537  106.9135 C   0  0  2  0  0  0  0  0  0  0  0  0
  124.6628  107.0791  105.9406 C   0  0  1  0  0  0  0  0  0  0  0  0
  123.3417  106.3143  105.7934 C   0  0  2  0  0  0  0  0  0  0  0  0
  122.2945  107.2410  105.4513 O   0  0  0  0  0  0  0  0  0  0  0  0
  123.0280  105.7594  107.0765 O   0  0  0  0  0  0  0  0  0  0  0  0
  124.4729  107.1048  109.0591 O   0  0  0  0  0  0  0  0  0  0  0  0
  125.7329  108.7736  107.3248 O   0  0  0  0  0  0  0  0  0  0  0  0
  125.0775  107.5883  104.6784 O   0  0  0  0  0  0  0  0  0  0  0  0
  120.6442  106.8854  106.6088 H   0  0  0  0  0  0  0  0  0  0  0  0
  121.3362  108.5180  106.7997 H   0  0  0  0  0  0  0  0  0  0  0  0
  121.9347  106.5668  108.6459 H   0  0  0  0  0  0  0  0  0  0  0  0
  123.2802  108.7139  108.6691 H   0  0  0  0  0  0  0  0  0  0  0  0
  123.9541  109.0721  106.3989 H   0  0  0  0  0  0  0  0  0  0  0  0
  125.4546  106.4167  106.3106 H   0  0  0  0  0  0  0  0  0  0  0  0
  123.3984  105.5292  105.0335 H   0  0  0  0  0  0  0  0  0  0  0  0
  123.9113  106.8925  109.8191 H   0  0  0  0  0  0  0  0  0  0  0  0
  125.5463  109.5386  107.8918 H   0  0  0  0  0  0  0  0  0  0  0  0
  125.1869  106.8231  104.0917 H   0  0  0  0  0  0  0  0  0  0  0  0
  1  2  1  0  0  0  0
  1  7  1  0  0  0  0
  2  3  1  0  0  0  0
  2  8  1  0  0  0  0
  3  4  1  0  0  0  0
  3  9  1  0  0  0  0
  4  5  1  0  0  0  0
  4 10  1  0  0  0  0
  5  6  1  0  0  0  0
  5 11  1  0  0  0  0
  6  7  1  0  0  0  0
  6  8  1  0  0  0  0
  1 12  1  0  0  0  0
  1 13  1  0  0  0  0
  2 14  1  0  0  0  0
  3 15  1  0  0  0  0
  4 16  1  0  0  0  0
  5 17  1  0  0  0  0
  6 18  1  0  0  0  0
  9 19  1  0  0  0  0
 10 20  1  0  0  0  0
 11 21  1  0  0  0  0
M  END
> <FRED Chemgauss4 score>
-5.740321

$$$$
C38034588	P120930303
  -OEChem-05182014473D

 25 26  0     1  0  0  0  0  0999 V2000
  118.8358  104.8227  106.4619 C   0  0  0  0  0  0  0  0  0  0  0  0
  120.2801  105.8688  107.5104 C   0  0  0  0  0  0  0  0  0  0  0  0
  125.3583  105.9184  106.5991 C   0  0  0  0  0  0  0  0  0  0  0  0
  123.2298  106.2958  106.1812 C   0  0  0  0  0  0  0  0  0  0  0  0
  124.6471  104.7284  107.2292 C   0  0  0  0  0  0  0  0  0  0  0  0
  123.1844  105.0821  107.0595 C   0  0  1  0  0  0  0  0  0  0  0  0
  118.1176  103.7088  105.8328 C   0  0  0  0  0  0  0  0  0  0  0  0
  121.4493  106.3863  108.2953 C   0  0  0  0  0  0  0  0  0  0  0  0
  120.0124  104.6453  107.1298 N   0  0  0  0  0  0  0  0  0  0  0  0
  118.3775  106.0772  106.4157 N   0  0  0  0  0  0  0  0  0  0  0  0
  124.5242  106.7312  106.0167 N   0  0  0  0  0  0  0  0  0  0  0  0
  122.5778  105.4171  108.3686 N   0  3  0  0  0  0  0  0  0  0  0  0
  126.5994  105.9918  106.6758 O   0  5  0  0  0  0  0  0  0  0  0  0
  122.2316  106.8369  105.7218 O   0  0  0  0  0  0  0  0  0  0  0  0
  119.3546  106.7864  107.1255 O   0  0  0  0  0  0  0  0  0  0  0  0
  124.8965  103.8243  106.6606 H   0  0  0  0  0  0  0  0  0  0  0  0
  124.9512  104.5833  108.2716 H   0  0  0  0  0  0  0  0  0  0  0  0
  122.5991  104.2746  106.6124 H   0  0  0  0  0  0  0  0  0  0  0  0
  117.3992  103.2422  106.5317 H   0  0  0  0  0  0  0  0  0  0  0  0
  117.5466  104.0250  104.9390 H   0  0  0  0  0  0  0  0  0  0  0  0
  118.7994  102.9104  105.4824 H   0  0  0  0  0  0  0  0  0  0  0  0
  121.8505  107.3031  107.8501 H   0  0  0  0  0  0  0  0  0  0  0  0
  121.1629  106.6142  109.3277 H   0  0  0  0  0  0  0  0  0  0  0  0
  122.2457  104.5535  108.8237 H   0  0  0  0  0  0  0  0  0  0  0  0
  123.3031  105.7974  108.9953 H   0  0  0  0  0  0  0  0  0  0  0  0
  1  7  1  0  0  0  0
  1  9  1  0  0  0  0
  1 10  2  0  0  0  0
  2  8  1  0  0  0  0
  2  9  2  0  0  0  0
  2 15  1  0  0  0  0
  3  5  1  0  0  0  0
  3 11  2  0  0  0  0
  3 13  1  0  0  0  0
  4  6  1  0  0  0  0
  4 11  1  0  0  0  0
  4 14  2  0  0  0  0
  5  6  1  0  0  0  0
  6 12  1  0  0  0  0
  8 12  1  0  0  0  0
 10 15  1  0  0  0  0
  5 16  1  0  0  0  0
  5 17  1  0  0  0  0
  6 18  1  0  0  0  0
  7 19  1  0  0  0  0
  7 20  1  0  0  0  0
  7 21  1  0  0  0  0
  8 22  1  0  0  0  0
  8 23  1  0  0  0  0
 12 24  1  0  0  0  0
 12 25  1  0  0  0  0
M  CHG  2  12   1  13  -1
M  END
> <FRED Chemgauss4 score>
-5.734859

$$$$
C05002210	P07335902
  -OEChem-05182014473D

 36 39  0     1  0  0  0  0  0999 V2000
  119.4745  105.1612  101.7827 C   0  0  0  0  0  0  0  0  0  0  0  0
  119.3918  103.8794  102.3153 C   0  0  0  0  0  0  0  0  0  0  0  0
  120.5332  107.1447  108.5314 C   0  0  0  0  0  0  0  0  0  0  0  0
  121.9258  108.9132  107.6538 C   0  0  0  0  0  0  0  0  0  0  0  0
  119.5196  108.0687  108.7851 C   0  0  0  0  0  0  0  0  0  0  0  0
  120.9122  109.8372  107.9075 C   0  0  0  0  0  0  0  0  0  0  0  0
  120.2643  106.1366  102.3983 C   0  0  0  0  0  0  0  0  0  0  0  0
  120.0937  103.5381  103.4742 C   0  0  0  0  0  0  0  0  0  0  0  0
  121.7364  107.5669  107.9658 C   0  0  0  0  0  0  0  0  0  0  0  0
  119.7091  109.4149  108.4732 C   0  0  0  0  0  0  0  0  0  0  0  0
  120.9838  105.8182  103.5704 C   0  0  0  0  0  0  0  0  0  0  0  0
  120.8848  104.5228  104.0873 C   0  0  0  0  0  0  0  0  0  0  0  0
  122.3099  106.0453  105.3188 C   0  0  0  0  0  0  0  0  0  0  0  0
  124.4397  107.0524  105.9384 C   0  0  0  0  0  0  0  0  0  0  0  0
  125.1655  107.6137  107.1376 C   0  0  0  0  0  0  0  0  0  0  0  0
  122.8205  106.5797  107.6942 C   0  0  1  0  0  0  0  0  0  0  0  0
  118.6242  110.4020  108.7432 C   0  0  0  0  0  0  0  0  0  0  0  0
  121.8033  106.6784  104.2867 N   0  0  0  0  0  0  0  0  0  0  0  0
  123.1656  106.5418  106.2660 N   0  0  0  0  0  0  0  0  0  0  0  0
  124.9298  107.0936  104.8117 O   0  0  0  0  0  0  0  0  0  0  0  0
  121.8544  104.4075  105.5085 S   0  0  0  0  0  0  0  0  0  0  0  0
  124.3208  107.0312  108.6018 S   0  0  0  0  0  0  0  0  0  0  0  0
  118.9219  105.4082  100.8804 H   0  0  0  0  0  0  0  0  0  0  0  0
  118.7729  103.1319  101.8253 H   0  0  0  0  0  0  0  0  0  0  0  0
  120.3771  106.0978  108.7782 H   0  0  0  0  0  0  0  0  0  0  0  0
  122.8597  109.2505  107.2118 H   0  0  0  0  0  0  0  0  0  0  0  0
  118.5851  107.7305  109.2245 H   0  0  0  0  0  0  0  0  0  0  0  0
  121.0682  110.8843  107.6616 H   0  0  0  0  0  0  0  0  0  0  0  0
  120.3210  107.1351  101.9740 H   0  0  0  0  0  0  0  0  0  0  0  0
  120.0254  102.5349  103.8837 H   0  0  0  0  0  0  0  0  0  0  0  0
  126.2021  107.2676  107.1367 H   0  0  0  0  0  0  0  0  0  0  0  0
  125.1396  108.7058  107.0921 H   0  0  0  0  0  0  0  0  0  0  0  0
  122.4925  105.5819  108.0020 H   0  0  0  0  0  0  0  0  0  0  0  0
  118.7294  110.8187  109.7523 H   0  0  0  0  0  0  0  0  0  0  0  0
  118.6487  111.2285  108.0212 H   0  0  0  0  0  0  0  0  0  0  0  0
  117.6330  109.9372  108.6602 H   0  0  0  0  0  0  0  0  0  0  0  0
  1  2  1  0  0  0  0
  1  7  2  0  0  0  0
  2  8  2  0  0  0  0
  3  5  2  0  0  0  0
  3  9  1  0  0  0  0
  4  6  1  0  0  0  0
  4  9  2  0  0  0  0
  5 10  1  0  0  0  0
  6 10  2  0  0  0  0
  7 11  1  0  0  0  0
  8 12  1  0  0  0  0
  9 16  1  0  0  0  0
 10 17  1  0  0  0  0
 11 12  2  0  0  0  0
 11 18  1  0  0  0  0
 12 21  1  0  0  0  0
 13 18  2  0  0  0  0
 13 19  1  0  0  0  0
 13 21  1  0  0  0  0
 14 15  1  0  0  0  0
 14 19  1  0  0  0  0
 14 20  2  0  0  0  0
 15 22  1  0  0  0  0
 16 19  1  0  0  0  0
 16 22  1  0  0  0  0
  1 23  1  0  0  0  0
  2 24  1  0  0  0  0
  3 25  1  0  0  0  0
  4 26  1  0  0  0  0
  5 27  1  0  0  0  0
  6 28  1  0  0  0  0
  7 29  1  0  0  0  0
  8 30  1  0  0  0  0
 15 31  1  0  0  0  0
 15 32  1  0  0  0  0
 16 33  1  0  0  0  0
 17 34  1  0  0  0  0
 17 35  1  0  0  0  0
 17 36  1  0  0  0  0
M  END
> <FRED Chemgauss4 score>
-5.734509

$$$$
C72198462	P112155832
  -OEChem-05182014473D

 30 30  0     1  0  0  0  0  0999 V2000
  118.8948  104.6166  102.3596 C   0  0  0  0  0  0  0  0  0  0  0  0
  119.3012  106.7207  105.9972 C   0  0  0  0  0  0  0  0  0  0  0  0
  118.1120  106.0469  105.7191 C   0  0  0  0  0  0  0  0  0  0  0  0
  119.0167  105.3257  103.5981 C   0  0  0  0  0  0  0  0  0  0  0  0
  120.3482  106.6971  105.0757 C   0  0  0  0  0  0  0  0  0  0  0  0
  117.9698  105.3494  104.5196 C   0  0  0  0  0  0  0  0  0  0  0  0
  120.2059  105.9996  103.8762 C   0  0  0  0  0  0  0  0  0  0  0  0
  115.6689  105.3564  103.5888 C   0  0  0  0  0  0  0  0  0  0  0  0
  116.5852  103.2946  104.6648 C   0  0  0  0  0  0  0  0  0  0  0  0
  122.8476  106.4943  105.4310 C   0  0  0  0  0  0  0  0  0  0  0  0
  121.6180  107.4191  105.3772 C   0  0  2  0  0  0  0  0  0  0  0  0
  118.7959  104.0422  101.3561 N   0  0  0  0  0  0  0  0  0  0  0  0
  121.5335  108.1671  106.6227 N   0  0  0  0  0  0  0  0  0  0  0  0
  116.7532  104.6758  104.2647 N   0  0  0  0  0  0  0  0  0  0  0  0
  124.0392  107.2612  105.2910 O   0  0  0  0  0  0  0  0  0  0  0  0
  121.2178  105.9816  102.9946 F   0  0  0  0  0  0  0  0  0  0  0  0
  119.4030  107.2616  106.9344 H   0  0  0  0  0  0  0  0  0  0  0  0
  117.3032  106.0727  106.4450 H   0  0  0  0  0  0  0  0  0  0  0  0
  114.8138  104.6844  103.4792 H   0  0  0  0  0  0  0  0  0  0  0  0
  115.9888  105.6838  102.5958 H   0  0  0  0  0  0  0  0  0  0  0  0
  115.3565  106.2328  104.1630 H   0  0  0  0  0  0  0  0  0  0  0  0
  115.5881  102.9420  104.3885 H   0  0  0  0  0  0  0  0  0  0  0  0
  116.7054  103.1973  105.7472 H   0  0  0  0  0  0  0  0  0  0  0  0
  117.3304  102.6648  104.1714 H   0  0  0  0  0  0  0  0  0  0  0  0
  122.8965  105.9796  106.3969 H   0  0  0  0  0  0  0  0  0  0  0  0
  122.8264  105.7434  104.6338 H   0  0  0  0  0  0  0  0  0  0  0  0
  121.8158  108.1905  104.6113 H   0  0  0  0  0  0  0  0  0  0  0  0
  120.6639  108.5998  106.8578 H   0  0  0  0  0  0  0  0  0  0  0  0
  122.3830  108.3962  107.0966 H   0  0  0  0  0  0  0  0  0  0  0  0
  124.7787  106.6346  105.3315 H   0  0  0  0  0  0  0  0  0  0  0  0
  1  4  1  0  0  0  0
  1 12  3  0  0  0  0
  2  3  2  0  0  0  0
  2  5  1  0  0  0  0
  3  6  1  0  0  0  0
  4  6  2  0  0  0  0
  4  7  1  0  0  0  0
  5  7  2  0  0  0  0
  5 11  1  0  0  0  0
  6 14  1  0  0  0  0
  7 16  1  0  0  0  0
  8 14  1  0  0  0  0
  9 14  1  0  0  0  0
 10 11  1  0  0  0  0
 10 15  1  0  0  0  0
 11 13  1  0  0  0  0
  2 17  1  0  0  0  0
  3 18  1  0  0  0  0
  8 19  1  0  0  0  0
  8 20  1  0  0  0  0
  8 21  1  0  0  0  0
  9 22  1  0  0  0  0
  9 23  1  0  0  0  0
  9 24  1  0  0  0  0
 10 25  1  0  0  0  0
 10 26  1  0  0  0  0
 11 27  1  0  0  0  0
 13 28  1  0  0  0  0
 13 29  1  0  0  0  0
 15 30  1  0  0  0  0
M  END
> <FRED Chemgauss4 score>
-5.728190

$$$$
C94238561	P147683886
  -OEChem-05182014473D

 30 30  0     1  0  0  0  0  0999 V2000
  118.1727  105.1060  106.0861 C   0  0  0  0  0  0  0  0  0  0  0  0
  117.2698  106.1429  106.0713 C   0  0  0  0  0  0  0  0  0  0  0  0
  119.2196  106.7832  106.8745 C   0  0  0  0  0  0  0  0  0  0  0  0
  122.3784  107.4665  106.2553 C   0  0  0  0  0  0  0  0  0  0  0  0
  124.3778  107.9470  107.7676 C   0  0  0  0  0  0  0  0  0  0  0  0
  121.9651  106.3422  108.5255 C   0  0  0  0  0  0  0  0  0  0  0  0
  120.2437  107.7152  107.4548 C   0  0  0  0  0  0  0  0  0  0  0  0
  123.9217  107.5204  106.3663 C   0  0  1  0  0  0  0  0  0  0  0  0
  124.5256  106.1343  106.0739 C   0  0  0  0  0  0  0  0  0  0  0  0
  119.3844  105.5110  106.5874 N   0  0  0  0  0  0  0  0  0  0  0  0
  117.9547  107.2104  106.5796 N   0  0  0  0  0  0  0  0  0  0  0  0
  124.4198  108.4259  105.3288 N   0  0  0  0  0  0  0  0  0  0  0  0
  121.5938  107.1626  107.3743 N   0  0  0  0  0  0  0  0  0  0  0  0
  121.8595  107.6712  105.1483 O   0  0  0  0  0  0  0  0  0  0  0  0
  124.2082  105.7100  104.8281 F   0  0  0  0  0  0  0  0  0  0  0  0
  125.8758  106.1557  106.1550 F   0  0  0  0  0  0  0  0  0  0  0  0
  124.0800  105.1965  106.9409 F   0  0  0  0  0  0  0  0  0  0  0  0
  118.0114  104.0882  105.7626 H   0  0  0  0  0  0  0  0  0  0  0  0
  116.2392  106.2176  105.7566 H   0  0  0  0  0  0  0  0  0  0  0  0
  125.4629  107.9951  107.8796 H   0  0  0  0  0  0  0  0  0  0  0  0
  123.9941  108.9452  108.0099 H   0  0  0  0  0  0  0  0  0  0  0  0
  124.0118  107.2543  108.5346 H   0  0  0  0  0  0  0  0  0  0  0  0
  122.4198  106.9654  109.2999 H   0  0  0  0  0  0  0  0  0  0  0  0
  122.6826  105.5734  108.2261 H   0  0  0  0  0  0  0  0  0  0  0  0
  121.0805  105.8529  108.9419 H   0  0  0  0  0  0  0  0  0  0  0  0
  120.2391  108.6731  106.9234 H   0  0  0  0  0  0  0  0  0  0  0  0
  120.0307  107.9264  108.5080 H   0  0  0  0  0  0  0  0  0  0  0  0
  117.5920  108.1456  106.7103 H   0  0  0  0  0  0  0  0  0  0  0  0
  124.4181  109.4017  105.5234 H   0  0  0  0  0  0  0  0  0  0  0  0
  124.5450  108.0589  104.4124 H   0  0  0  0  0  0  0  0  0  0  0  0
  1  2  2  0  0  0  0
  1 10  1  0  0  0  0
  2 11  1  0  0  0  0
  3  7  1  0  0  0  0
  3 10  2  0  0  0  0
  3 11  1  0  0  0  0
  4  8  1  0  0  0  0
  4 13  1  0  0  0  0
  4 14  2  0  0  0  0
  5  8  1  0  0  0  0
  6 13  1  0  0  0  0
  7 13  1  0  0  0  0
  8  9  1  0  0  0  0
  8 12  1  0  0  0  0
  9 15  1  0  0  0  0
  9 16  1  0  0  0  0
  9 17  1  0  0  0  0
  1 18  1  0  0  0  0
  2 19  1  0  0  0  0
  5 20  1  0  0  0  0
  5 21  1  0  0  0  0
  5 22  1  0  0  0  0
  6 23  1  0  0  0  0
  6 24  1  0  0  0  0
  6 25  1  0  0  0  0
  7 26  1  0  0  0  0
  7 27  1  0  0  0  0
 11 28  1  0  0  0  0
 12 29  1  0  0  0  0
 12 30  1  0  0  0  0
M  END
> <FRED Chemgauss4 score>
-5.723399

$$$$
C63169607	P97020609
  -OEChem-05182014473D

 24 24  0     0  0  0  0  0  0999 V2000
  124.6353  107.1977  105.6039 C   0  0  0  0  0  0  0  0  0  0  0  0
  123.3397  105.4811  106.0621 C   0  0  0  0  0  0  0  0  0  0  0  0
  124.5391  106.0505  106.4141 C   0  0  0  0  0  0  0  0  0  0  0  0
  120.4520  107.0222  104.9202 C   0  0  0  0  0  0  0  0  0  0  0  0
  119.2298  107.5801  107.0135 C   0  0  0  0  0  0  0  0  0  0  0  0
  125.5058  105.5665  107.4124 C   0  0  0  0  0  0  0  0  0  0  0  0
  121.5385  106.0994  104.4110 C   0  0  0  0  0  0  0  0  0  0  0  0
  123.5812  107.3495  104.7977 N   0  0  0  0  0  0  0  0  0  0  0  0
  122.8113  106.2902  105.0996 N   0  0  0  0  0  0  0  0  0  0  0  0
  126.6725  104.9462  106.8186 N   0  0  0  0  0  0  0  0  0  0  0  0
  120.2189  106.8303  106.2743 N   0  0  0  0  0  0  0  0  0  0  0  0
  119.8615  107.8300  104.2083 O   0  0  0  0  0  0  0  0  0  0  0  0
  125.4290  107.9303  105.5648 H   0  0  0  0  0  0  0  0  0  0  0  0
  122.8306  104.5906  106.4050 H   0  0  0  0  0  0  0  0  0  0  0  0
  119.6874  108.4661  107.4613 H   0  0  0  0  0  0  0  0  0  0  0  0
  118.8050  106.9629  107.8098 H   0  0  0  0  0  0  0  0  0  0  0  0
  118.4225  107.8988  106.3487 H   0  0  0  0  0  0  0  0  0  0  0  0
  125.8782  106.3821  108.0604 H   0  0  0  0  0  0  0  0  0  0  0  0
  125.0672  104.8160  108.0965 H   0  0  0  0  0  0  0  0  0  0  0  0
  121.7008  106.2728  103.3412 H   0  0  0  0  0  0  0  0  0  0  0  0
  121.2331  105.0555  104.5455 H   0  0  0  0  0  0  0  0  0  0  0  0
  127.1672  104.2506  107.3443 H   0  0  0  0  0  0  0  0  0  0  0  0
  127.0734  105.3621  105.9992 H   0  0  0  0  0  0  0  0  0  0  0  0
  120.7365  106.1113  106.7712 H   0  0  0  0  0  0  0  0  0  0  0  0
  1  3  1  0  0  0  0
  1  8  2  0  0  0  0
  2  3  2  0  0  0  0
  2  9  1  0  0  0  0
  3  6  1  0  0  0  0
  4  7  1  0  0  0  0
  4 11  1  0  0  0  0
  4 12  2  0  0  0  0
  5 11  1  0  0  0  0
  6 10  1  0  0  0  0
  7  9  1  0  0  0  0
  8  9  1  0  0  0  0
  1 13  1  0  0  0  0
  2 14  1  0  0  0  0
  5 15  1  0  0  0  0
  5 16  1  0  0  0  0
  5 17  1  0  0  0  0
  6 18  1  0  0  0  0
  6 19  1  0  0  0  0
  7 20  1  0  0  0  0
  7 21  1  0  0  0  0
 10 22  1  0  0  0  0
 10 23  1  0  0  0  0
 11 24  1  0  0  0  0
M  END
> <FRED Chemgauss4 score>
-5.721430

$$$$
C36853506	P90345133
  -OEChem-05182014473D

 27 27  0     1  0  0  0  0  0999 V2000
  125.1993  105.6062  107.0241 C   0  0  0  0  0  0  0  0  0  0  0  0
  123.3278  106.3268  105.8885 C   0  0  0  0  0  0  0  0  0  0  0  0
  124.0838  104.7334  107.5284 C   0  0  0  0  0  0  0  0  0  0  0  0
  122.8593  105.1704  106.7325 C   0  0  2  0  0  0  0  0  0  0  0  0
  120.7882  103.6386  104.0788 C   0  0  0  0  0  0  0  0  0  0  0  0
  118.8355  106.0753  106.6076 C   0  0  0  0  0  0  0  0  0  0  0  0
  120.0198  104.0525  106.4396 C   0  0  0  0  0  0  0  0  0  0  0  0
  121.0370  104.4203  105.3621 C   0  0  1  0  0  0  0  0  0  0  0  0
  124.6693  106.4973  106.1261 N   0  0  0  0  0  0  0  0  0  0  0  0
  122.3824  104.1262  105.8377 N   0  0  0  0  0  0  0  0  0  0  0  0
  126.3654  105.5240  107.3808 O   0  0  0  0  0  0  0  0  0  0  0  0
  122.6308  106.9729  105.1196 O   0  0  0  0  0  0  0  0  0  0  0  0
  118.7920  104.7223  106.1771 O   0  0  0  0  0  0  0  0  0  0  0  0
  124.3441  103.6801  107.3827 H   0  0  0  0  0  0  0  0  0  0  0  0
  123.9409  104.9160  108.5985 H   0  0  0  0  0  0  0  0  0  0  0  0
  122.0567  105.5016  107.3994 H   0  0  0  0  0  0  0  0  0  0  0  0
  120.8419  102.5604  104.2616 H   0  0  0  0  0  0  0  0  0  0  0  0
  121.5249  103.8912  103.3078 H   0  0  0  0  0  0  0  0  0  0  0  0
  119.7959  103.8634  103.6722 H   0  0  0  0  0  0  0  0  0  0  0  0
  117.8794  106.5582  106.3914 H   0  0  0  0  0  0  0  0  0  0  0  0
  119.6447  106.5973  106.0906 H   0  0  0  0  0  0  0  0  0  0  0  0
  119.0183  106.1000  107.6845 H   0  0  0  0  0  0  0  0  0  0  0  0
  119.8213  102.9756  106.4315 H   0  0  0  0  0  0  0  0  0  0  0  0
  120.3659  104.3398  107.4385 H   0  0  0  0  0  0  0  0  0  0  0  0
  120.9782  105.4948  105.1543 H   0  0  0  0  0  0  0  0  0  0  0  0
  125.2207  107.2198  105.6765 H   0  0  0  0  0  0  0  0  0  0  0  0
  122.3749  103.2351  106.3340 H   0  0  0  0  0  0  0  0  0  0  0  0
  1  3  1  0  0  0  0
  1  9  1  0  0  0  0
  1 11  2  0  0  0  0
  2  4  1  0  0  0  0
  2  9  1  0  0  0  0
  2 12  2  0  0  0  0
  3  4  1  0  0  0  0
  4 10  1  0  0  0  0
  5  8  1  0  0  0  0
  6 13  1  0  0  0  0
  7  8  1  0  0  0  0
  7 13  1  0  0  0  0
  8 10  1  0  0  0  0
  3 14  1  0  0  0  0
  3 15  1  0  0  0  0
  4 16  1  0  0  0  0
  5 17  1  0  0  0  0
  5 18  1  0  0  0  0
  5 19  1  0  0  0  0
  6 20  1  0  0  0  0
  6 21  1  0  0  0  0
  6 22  1  0  0  0  0
  7 23  1  0  0  0  0
  7 24  1  0  0  0  0
  8 25  1  0  0  0  0
  9 26  1  0  0  0  0
 10 27  1  0  0  0  0
M  END
> <FRED Chemgauss4 score>
-5.713592

$$$$
C01561259	P07945582
  -OEChem-05182014473D

 18 18  0     0  0  0  0  0  0999 V2000
  124.8774  105.0174  108.0947 C   0  0  0  0  0  0  0  0  0  0  0  0
  125.4875  107.0056  107.1745 C   0  0  0  0  0  0  0  0  0  0  0  0
  125.5704  105.7904  109.1947 C   0  0  0  0  0  0  0  0  0  0  0  0
  124.2912  105.3808  105.6899 C   0  0  0  0  0  0  0  0  0  0  0  0
  122.8448  105.8357  105.6215 C   0  0  0  0  0  0  0  0  0  0  0  0
  125.9044  107.0070  108.5079 N   0  0  0  0  0  0  0  0  0  0  0  0
  124.8701  105.7898  106.9540 N   0  0  0  0  0  0  0  0  0  0  0  0
  124.4152  103.8935  108.2396 O   0  0  0  0  0  0  0  0  0  0  0  0
  125.6502  107.9201  106.3773 O   0  0  0  0  0  0  0  0  0  0  0  0
  122.7868  107.2490  105.7669 O   0  0  0  0  0  0  0  0  0  0  0  0
  124.8903  106.0078  110.0198 H   0  0  0  0  0  0  0  0  0  0  0  0
  126.4826  105.2894  109.5225 H   0  0  0  0  0  0  0  0  0  0  0  0
  124.3687  104.2916  105.6136 H   0  0  0  0  0  0  0  0  0  0  0  0
  124.8730  105.8387  104.8842 H   0  0  0  0  0  0  0  0  0  0  0  0
  122.2721  105.3881  106.4397 H   0  0  0  0  0  0  0  0  0  0  0  0
  122.3809  105.5604  104.6687 H   0  0  0  0  0  0  0  0  0  0  0  0
  126.3908  107.7839  108.9443 H   0  0  0  0  0  0  0  0  0  0  0  0
  121.8496  107.4968  105.7176 H   0  0  0  0  0  0  0  0  0  0  0  0
  1  3  1  0  0  0  0
  1  7  1  0  0  0  0
  1  8  2  0  0  0  0
  2  6  1  0  0  0  0
  2  7  1  0  0  0  0
  2  9  2  0  0  0  0
  3  6  1  0  0  0  0
  4  5  1  0  0  0  0
  4  7  1  0  0  0  0
  5 10  1  0  0  0  0
  3 11  1  0  0  0  0
  3 12  1  0  0  0  0
  4 13  1  0  0  0  0
  4 14  1  0  0  0  0
  5 15  1  0  0  0  0
  5 16  1  0  0  0  0
  6 17  1  0  0  0  0
 10 18  1  0  0  0  0
M  END
> <FRED Chemgauss4 score>
-5.712708

$$$$
C84081050	P131584458
  -OEChem-05182014473D

 27 28  0     1  0  0  0  0  0999 V2000
  119.6568  104.1353  104.3228 C   0  0  0  0  0  0  0  0  0  0  0  0
  118.6847  104.1604  106.2162 C   0  0  0  0  0  0  0  0  0  0  0  0
  119.8717  105.3953  104.8296 C   0  0  0  0  0  0  0  0  0  0  0  0
  123.8164  105.0741  106.8805 C   0  0  0  0  0  0  0  0  0  0  0  0
  124.0201  106.9397  105.5354 C   0  0  0  0  0  0  0  0  0  0  0  0
  122.7927  104.8863  105.7958 C   0  0  0  0  0  0  0  0  0  0  0  0
  122.8446  106.1739  104.9871 C   0  0  1  0  0  0  0  0  0  0  0  0
  125.6007  106.7051  107.4475 C   0  0  0  0  0  0  0  0  0  0  0  0
  120.6036  106.5914  104.2932 C   0  0  0  0  0  0  0  0  0  0  0  0
  118.9170  103.3716  105.1907 N   0  0  0  0  0  0  0  0  0  0  0  0
  119.2427  105.3964  106.0427 N   0  0  0  0  0  0  0  0  0  0  0  0
  124.5051  106.2387  106.6194 N   0  0  0  0  0  0  0  0  0  0  0  0
  121.6889  107.0054  105.1718 N   0  0  0  0  0  0  0  0  0  0  0  0
  123.9875  104.2900  107.8038 O   0  0  0  0  0  0  0  0  0  0  0  0
  124.4001  108.0232  105.1123 O   0  0  0  0  0  0  0  0  0  0  0  0
  119.9961  103.7368  103.3773 H   0  0  0  0  0  0  0  0  0  0  0  0
  118.1266  103.9020  107.1049 H   0  0  0  0  0  0  0  0  0  0  0  0
  123.0810  104.0268  105.1818 H   0  0  0  0  0  0  0  0  0  0  0  0
  121.8107  104.6884  106.2371 H   0  0  0  0  0  0  0  0  0  0  0  0
  123.0095  105.9703  103.9270 H   0  0  0  0  0  0  0  0  0  0  0  0
  126.5479  106.3029  107.0788 H   0  0  0  0  0  0  0  0  0  0  0  0
  125.4584  106.3790  108.4814 H   0  0  0  0  0  0  0  0  0  0  0  0
  125.6507  107.7971  107.4282 H   0  0  0  0  0  0  0  0  0  0  0  0
  121.0315  106.3727  103.3087 H   0  0  0  0  0  0  0  0  0  0  0  0
  119.9273  107.4440  104.1717 H   0  0  0  0  0  0  0  0  0  0  0  0
  119.1975  106.1680  106.6954 H   0  0  0  0  0  0  0  0  0  0  0  0
  121.9360  107.9732  104.9673 H   0  0  0  0  0  0  0  0  0  0  0  0
  1  3  2  0  0  0  0
  1 10  1  0  0  0  0
  2 10  2  0  0  0  0
  2 11  1  0  0  0  0
  3  9  1  0  0  0  0
  3 11  1  0  0  0  0
  4  6  1  0  0  0  0
  4 12  1  0  0  0  0
  4 14  2  0  0  0  0
  5  7  1  0  0  0  0
  5 12  1  0  0  0  0
  5 15  2  0  0  0  0
  6  7  1  0  0  0  0
  7 13  1  0  0  0  0
  8 12  1  0  0  0  0
  9 13  1  0  0  0  0
  1 16  1  0  0  0  0
  2 17  1  0  0  0  0
  6 18  1  0  0  0  0
  6 19  1  0  0  0  0
  7 20  1  0  0  0  0
  8 21  1  0  0  0  0
  8 22  1  0  0  0  0
  8 23  1  0  0  0  0
  9 24  1  0  0  0  0
  9 25  1  0  0  0  0
 11 26  1  0  0  0  0
 13 27  1  0  0  0  0
M  END
> <FRED Chemgauss4 score>
-5.708534

$$$$
C82515868	P128954842
  -OEChem-05182014473D

 28 28  0     1  0  0  0  0  0999 V2000
  118.7214  104.3085  105.0550 C   0  0  0  0  0  0  0  0  0  0  0  0
  119.7434  104.0288  106.1394 C   0  0  0  0  0  0  0  0  0  0  0  0
  120.7043  105.1753  106.4186 C   0  0  0  0  0  0  0  0  0  0  0  0
  120.1392  106.2197  104.2464 C   0  0  0  0  0  0  0  0  0  0  0  0
  121.2821  105.6969  105.1063 C   0  0  1  0  0  0  0  0  0  0  0  0
  123.9938  108.2497  107.1748 C   0  0  0  0  0  0  0  0  0  0  0  0
  123.5293  106.2174  105.7660 C   0  0  0  0  0  0  0  0  0  0  0  0
  124.5081  107.3523  106.0572 C   0  0  1  0  0  0  0  0  0  0  0  0
  119.0471  105.2706  104.1252 N   0  0  0  0  0  0  0  0  0  0  0  0
  122.2438  106.7652  105.3600 N   0  0  0  0  0  0  0  0  0  0  0  0
  117.6899  103.6385  104.9785 O   0  0  0  0  0  0  0  0  0  0  0  0
  124.6603  108.1370  104.8758 O   0  0  0  0  0  0  0  0  0  0  0  0
  119.2073  103.7730  107.0601 H   0  0  0  0  0  0  0  0  0  0  0  0
  120.3077  103.1421  105.8257 H   0  0  0  0  0  0  0  0  0  0  0  0
  120.1727  105.9778  106.9472 H   0  0  0  0  0  0  0  0  0  0  0  0
  121.5033  104.8253  107.0835 H   0  0  0  0  0  0  0  0  0  0  0  0
  119.7058  107.1332  104.6717 H   0  0  0  0  0  0  0  0  0  0  0  0
  120.4823  106.4562  103.2333 H   0  0  0  0  0  0  0  0  0  0  0  0
  121.7942  104.8836  104.5851 H   0  0  0  0  0  0  0  0  0  0  0  0
  123.0105  108.6639  106.9320 H   0  0  0  0  0  0  0  0  0  0  0  0
  123.9205  107.6977  108.1185 H   0  0  0  0  0  0  0  0  0  0  0  0
  124.6867  109.0799  107.3494 H   0  0  0  0  0  0  0  0  0  0  0  0
  123.9054  105.5763  104.9615 H   0  0  0  0  0  0  0  0  0  0  0  0
  123.3787  105.5985  106.6566 H   0  0  0  0  0  0  0  0  0  0  0  0
  125.4924  106.9518  106.3260 H   0  0  0  0  0  0  0  0  0  0  0  0
  118.4770  105.3203  103.2864 H   0  0  0  0  0  0  0  0  0  0  0  0
  122.3629  107.3128  104.5098 H   0  0  0  0  0  0  0  0  0  0  0  0
  125.2985  108.8348  105.0894 H   0  0  0  0  0  0  0  0  0  0  0  0
  1  2  1  0  0  0  0
  1  9  1  0  0  0  0
  1 11  2  0  0  0  0
  2  3  1  0  0  0  0
  3  5  1  0  0  0  0
  4  5  1  0  0  0  0
  4  9  1  0  0  0  0
  5 10  1  0  0  0  0
  6  8  1  0  0  0  0
  7  8  1  0  0  0  0
  7 10  1  0  0  0  0
  8 12  1  0  0  0  0
  2 13  1  0  0  0  0
  2 14  1  0  0  0  0
  3 15  1  0  0  0  0
  3 16  1  0  0  0  0
  4 17  1  0  0  0  0
  4 18  1  0  0  0  0
  5 19  1  0  0  0  0
  6 20  1  0  0  0  0
  6 21  1  0  0  0  0
  6 22  1  0  0  0  0
  7 23  1  0  0  0  0
  7 24  1  0  0  0  0
  8 25  1  0  0  0  0
  9 26  1  0  0  0  0
 10 27  1  0  0  0  0
 12 28  1  0  0  0  0
M  END
> <FRED Chemgauss4 score>
-5.707883

$$$$
C85253958	P133399080
  -OEChem-05182014473D

 29 28  0     1  0  0  0  0  0999 V2000
  120.7150  106.5909  104.8093 C   0  0  0  0  0  0  0  0  0  0  0  0
  120.8694  104.9784  102.9279 C   0  0  0  0  0  0  0  0  0  0  0  0
  125.4929  104.8844  106.7809 C   0  0  0  0  0  0  0  0  0  0  0  0
  120.9488  106.6177  106.3061 C   0  0  0  0  0  0  0  0  0  0  0  0
  123.2230  105.8536  106.3774 C   0  0  0  0  0  0  0  0  0  0  0  0
  125.2772  107.3868  106.5874 C   0  0  0  0  0  0  0  0  0  0  0  0
  124.5880  106.0934  107.0469 C   0  0  2  0  0  0  0  0  0  0  0  0
  121.1869  103.6481  102.7141 N   0  0  0  0  0  0  0  0  0  0  0  0
  120.9707  105.3233  104.2794 N   0  0  0  0  0  0  0  0  0  0  0  0
  122.3389  106.9816  106.5678 N   0  0  0  0  0  0  0  0  0  0  0  0
  120.3667  107.5716  104.1568 O   0  0  0  0  0  0  0  0  0  0  0  0
  120.5419  105.7419  102.0216 O   0  0  0  0  0  0  0  0  0  0  0  0
  125.5381  107.3562  105.1929 O   0  0  0  0  0  0  0  0  0  0  0  0
  124.4045  106.1635  108.4639 O   0  0  0  0  0  0  0  0  0  0  0  0
  126.4759  105.0239  107.2458 H   0  0  0  0  0  0  0  0  0  0  0  0
  125.0577  103.9550  107.1623 H   0  0  0  0  0  0  0  0  0  0  0  0
  125.6762  104.7643  105.7068 H   0  0  0  0  0  0  0  0  0  0  0  0
  120.2848  107.3547  106.7690 H   0  0  0  0  0  0  0  0  0  0  0  0
  120.7268  105.6292  106.7198 H   0  0  0  0  0  0  0  0  0  0  0  0
  122.7420  104.9544  106.7771 H   0  0  0  0  0  0  0  0  0  0  0  0
  123.3535  105.7093  105.2989 H   0  0  0  0  0  0  0  0  0  0  0  0
  126.2216  107.5432  107.1206 H   0  0  0  0  0  0  0  0  0  0  0  0
  124.6465  108.2558  106.8090 H   0  0  0  0  0  0  0  0  0  0  0  0
  121.4502  103.0699  103.5051 H   0  0  0  0  0  0  0  0  0  0  0  0
  121.1634  103.2361  101.7875 H   0  0  0  0  0  0  0  0  0  0  0  0
  121.2529  104.5936  104.9283 H   0  0  0  0  0  0  0  0  0  0  0  0
  122.4135  107.3218  107.5299 H   0  0  0  0  0  0  0  0  0  0  0  0
  125.9713  108.1963  104.9682 H   0  0  0  0  0  0  0  0  0  0  0  0
  123.9892  105.3287  108.7249 H   0  0  0  0  0  0  0  0  0  0  0  0
  1  4  1  0  0  0  0
  1  9  1  0  0  0  0
  1 11  2  0  0  0  0
  2  8  1  0  0  0  0
  2  9  1  0  0  0  0
  2 12  2  0  0  0  0
  3  7  1  0  0  0  0
  4 10  1  0  0  0  0
  5  7  1  0  0  0  0
  5 10  1  0  0  0  0
  6  7  1  0  0  0  0
  6 13  1  0  0  0  0
  7 14  1  0  0  0  0
  3 15  1  0  0  0  0
  3 16  1  0  0  0  0
  3 17  1  0  0  0  0
  4 18  1  0  0  0  0
  4 19  1  0  0  0  0
  5 20  1  0  0  0  0
  5 21  1  0  0  0  0
  6 22  1  0  0  0  0
  6 23  1  0  0  0  0
  8 24  1  0  0  0  0
  8 25  1  0  0  0  0
  9 26  1  0  0  0  0
 10 27  1  0  0  0  0
 13 28  1  0  0  0  0
 14 29  1  0  0  0  0
M  END
> <FRED Chemgauss4 score>
-5.705670

$$$$
C48630813	P72706607
  -OEChem-05182014473D

 31 31  0     1  0  0  0  0  0999 V2000
  123.3895  105.7917  106.2478 C   0  0  0  0  0  0  0  0  0  0  0  0
  121.6530  104.7650  105.7114 C   0  0  0  0  0  0  0  0  0  0  0  0
  119.3934  103.8444  106.2887 C   0  0  0  0  0  0  0  0  0  0  0  0
  125.3211  106.1684  108.6806 C   0  0  0  0  0  0  0  0  0  0  0  0
  126.6418  107.7814  107.2968 C   0  0  0  0  0  0  0  0  0  0  0  0
  126.4596  105.4031  106.5959 C   0  0  0  0  0  0  0  0  0  0  0  0
  120.3540  104.3126  105.1880 C   0  0  0  0  0  0  0  0  0  0  0  0
  124.4118  106.9177  106.3620 C   0  0  1  0  0  0  0  0  0  0  0  0
  125.6780  106.5754  107.2373 C   0  0  0  0  0  0  0  0  0  0  0  0
  122.2185  105.9402  105.5612 N   0  0  0  0  0  0  0  0  0  0  0  0
  123.5840  104.5985  106.8134 N   0  0  0  0  0  0  0  0  0  0  0  0
  122.4591  103.9609  106.4552 N   0  0  0  0  0  0  0  0  0  0  0  0
  124.7673  107.4265  105.0264 N   0  0  0  0  0  0  0  0  0  0  0  0
  119.8505  103.0503  106.8888 H   0  0  0  0  0  0  0  0  0  0  0  0
  118.4610  103.4564  105.8668 H   0  0  0  0  0  0  0  0  0  0  0  0
  119.1431  104.6719  106.9611 H   0  0  0  0  0  0  0  0  0  0  0  0
  124.6368  105.3139  108.7038 H   0  0  0  0  0  0  0  0  0  0  0  0
  126.2200  105.8795  109.2383 H   0  0  0  0  0  0  0  0  0  0  0  0
  124.8585  106.9916  109.2333 H   0  0  0  0  0  0  0  0  0  0  0  0
  126.9266  108.1100  106.2904 H   0  0  0  0  0  0  0  0  0  0  0  0
  127.5694  107.5363  107.8246 H   0  0  0  0  0  0  0  0  0  0  0  0
  126.1760  108.6346  107.8026 H   0  0  0  0  0  0  0  0  0  0  0  0
  126.7423  105.6351  105.5631 H   0  0  0  0  0  0  0  0  0  0  0  0
  127.3818  105.1922  107.1503 H   0  0  0  0  0  0  0  0  0  0  0  0
  125.8755  104.4771  106.5888 H   0  0  0  0  0  0  0  0  0  0  0  0
  119.8513  105.1132  104.6084 H   0  0  0  0  0  0  0  0  0  0  0  0
  120.4779  103.4836  104.4619 H   0  0  0  0  0  0  0  0  0  0  0  0
  123.9023  107.7561  106.8583 H   0  0  0  0  0  0  0  0  0  0  0  0
  122.3184  103.0018  106.7502 H   0  0  0  0  0  0  0  0  0  0  0  0
  125.6012  107.9563  104.9467 H   0  0  0  0  0  0  0  0  0  0  0  0
  124.0685  107.3933  104.3243 H   0  0  0  0  0  0  0  0  0  0  0  0
  1  8  1  0  0  0  0
  1 10  1  0  0  0  0
  1 11  2  0  0  0  0
  2  7  1  0  0  0  0
  2 10  2  0  0  0  0
  2 12  1  0  0  0  0
  3  7  1  0  0  0  0
  4  9  1  0  0  0  0
  5  9  1  0  0  0  0
  6  9  1  0  0  0  0
  8  9  1  0  0  0  0
  8 13  1  0  0  0  0
 11 12  1  0  0  0  0
  3 14  1  0  0  0  0
  3 15  1  0  0  0  0
  3 16  1  0  0  0  0
  4 17  1  0  0  0  0
  4 18  1  0  0  0  0
  4 19  1  0  0  0  0
  5 20  1  0  0  0  0
  5 21  1  0  0  0  0
  5 22  1  0  0  0  0
  6 23  1  0  0  0  0
  6 24  1  0  0  0  0
  6 25  1  0  0  0  0
  7 26  1  0  0  0  0
  7 27  1  0  0  0  0
  8 28  1  0  0  0  0
 12 29  1  0  0  0  0
 13 30  1  0  0  0  0
 13 31  1  0  0  0  0
M  END
> <FRED Chemgauss4 score>
-5.702998

$$$$
C85254253	P133385080
  -OEChem-05182014473D

 25 24  0     1  0  0  0  0  0999 V2000
  121.1018  104.9953  103.9345 C   0  0  0  0  0  0  0  0  0  0  0  0
  120.9373  104.6454  106.3700 C   0  0  0  0  0  0  0  0  0  0  0  0
  123.8291  108.2019  107.0499 C   0  0  0  0  0  0  0  0  0  0  0  0
  123.7730  105.8191  106.2925 C   0  0  0  0  0  0  0  0  0  0  0  0
  125.9146  106.8133  107.3121 C   0  0  0  0  0  0  0  0  0  0  0  0
  121.8642  104.8765  105.1840 C   0  0  2  0  0  0  0  0  0  0  0  0
  124.6651  107.0627  106.4543 C   0  0  2  0  0  0  0  0  0  0  0  0
  120.4994  105.0861  102.9467 N   0  0  0  0  0  0  0  0  0  0  0  0
  122.6745  106.0744  105.3878 N   0  0  0  0  0  0  0  0  0  0  0  0
  125.5577  106.4276  108.6303 O   0  0  0  0  0  0  0  0  0  0  0  0
  125.0910  107.5005  105.1607 O   0  0  0  0  0  0  0  0  0  0  0  0
  120.2173  105.4649  106.4829 H   0  0  0  0  0  0  0  0  0  0  0  0
  121.5082  104.5782  107.3027 H   0  0  0  0  0  0  0  0  0  0  0  0
  120.3690  103.7162  106.2515 H   0  0  0  0  0  0  0  0  0  0  0  0
  124.4370  109.1052  107.1783 H   0  0  0  0  0  0  0  0  0  0  0  0
  122.9679  108.4501  106.4213 H   0  0  0  0  0  0  0  0  0  0  0  0
  123.4624  107.9350  108.0479 H   0  0  0  0  0  0  0  0  0  0  0  0
  123.3694  105.4968  107.2584 H   0  0  0  0  0  0  0  0  0  0  0  0
  124.3577  104.9878  105.8824 H   0  0  0  0  0  0  0  0  0  0  0  0
  126.5446  107.7083  107.3638 H   0  0  0  0  0  0  0  0  0  0  0  0
  126.5316  106.0230  106.8684 H   0  0  0  0  0  0  0  0  0  0  0  0
  122.5640  104.0371  105.1089 H   0  0  0  0  0  0  0  0  0  0  0  0
  122.0776  106.8136  105.7676 H   0  0  0  0  0  0  0  0  0  0  0  0
  126.3864  106.2861  109.1171 H   0  0  0  0  0  0  0  0  0  0  0  0
  124.2841  107.6692  104.6526 H   0  0  0  0  0  0  0  0  0  0  0  0
  1  6  1  0  0  0  0
  1  8  3  0  0  0  0
  2  6  1  0  0  0  0
  3  7  1  0  0  0  0
  4  7  1  0  0  0  0
  4  9  1  0  0  0  0
  5  7  1  0  0  0  0
  5 10  1  0  0  0  0
  6  9  1  0  0  0  0
  7 11  1  0  0  0  0
  2 12  1  0  0  0  0
  2 13  1  0  0  0  0
  2 14  1  0  0  0  0
  3 15  1  0  0  0  0
  3 16  1  0  0  0  0
  3 17  1  0  0  0  0
  4 18  1  0  0  0  0
  4 19  1  0  0  0  0
  5 20  1  0  0  0  0
  5 21  1  0  0  0  0
  6 22  1  0  0  0  0
  9 23  1  0  0  0  0
 10 24  1  0  0  0  0
 11 25  1  0  0  0  0
M  END
> <FRED Chemgauss4 score>
-5.695820

$$$$
C54504056	P82019658
  -OEChem-05182014473D

 27 29  0     1  0  0  0  0  0999 V2000
  122.8916  107.8220  106.1822 C   0  0  0  0  0  0  0  0  0  0  0  0
  124.6226  106.6956  106.8485 C   0  0  0  0  0  0  0  0  0  0  0  0
  125.7955  103.5459  108.8911 C   0  0  0  0  0  0  0  0  0  0  0  0
  125.4803  103.2784  107.4459 C   0  0  0  0  0  0  0  0  0  0  0  0
  122.1678  108.0041  109.3766 C   0  0  0  0  0  0  0  0  0  0  0  0
  123.3554  107.2273  109.8522 C   0  0  0  0  0  0  0  0  0  0  0  0
  124.9721  104.5298  108.1070 C   0  0  0  0  0  0  0  0  0  0  0  0
  122.6886  106.8520  108.5495 C   0  0  0  0  0  0  0  0  0  0  0  0
  125.5394  105.8565  107.7381 C   0  0  1  0  0  0  0  0  0  0  0  0
  123.7723  107.8384  105.2073 N   0  0  0  0  0  0  0  0  0  0  0  0
  124.8737  107.1218  105.6312 N   0  0  0  0  0  0  0  0  0  0  0  0
  123.3854  107.1135  107.2352 N   0  0  0  0  0  0  0  0  0  0  0  0
  126.8505  105.7219  107.1128 N   0  0  0  0  0  0  0  0  0  0  0  0
  121.9170  108.2891  106.1777 H   0  0  0  0  0  0  0  0  0  0  0  0
  125.3023  102.9331  109.6355 H   0  0  0  0  0  0  0  0  0  0  0  0
  126.8113  103.8260  109.1420 H   0  0  0  0  0  0  0  0  0  0  0  0
  126.2849  103.3789  106.7278 H   0  0  0  0  0  0  0  0  0  0  0  0
  124.7758  102.4867  107.2227 H   0  0  0  0  0  0  0  0  0  0  0  0
  121.2301  107.8648  109.9006 H   0  0  0  0  0  0  0  0  0  0  0  0
  122.3367  109.0130  109.0200 H   0  0  0  0  0  0  0  0  0  0  0  0
  124.3225  107.7139  109.8162 H   0  0  0  0  0  0  0  0  0  0  0  0
  123.2190  106.5625  110.6963 H   0  0  0  0  0  0  0  0  0  0  0  0
  123.9129  104.5873  108.3272 H   0  0  0  0  0  0  0  0  0  0  0  0
  122.1151  105.9519  108.5108 H   0  0  0  0  0  0  0  0  0  0  0  0
  125.7397  106.4442  108.6571 H   0  0  0  0  0  0  0  0  0  0  0  0
  127.4512  104.9919  107.4317 H   0  0  0  0  0  0  0  0  0  0  0  0
  127.1798  106.4725  106.5440 H   0  0  0  0  0  0  0  0  0  0  0  0
  1 10  2  0  0  0  0
  1 12  1  0  0  0  0
  2  9  1  0  0  0  0
  2 11  2  0  0  0  0
  2 12  1  0  0  0  0
  3  4  1  0  0  0  0
  3  7  1  0  0  0  0
  4  7  1  0  0  0  0
  5  6  1  0  0  0  0
  5  8  1  0  0  0  0
  6  8  1  0  0  0  0
  7  9  1  0  0  0  0
  8 12  1  0  0  0  0
  9 13  1  0  0  0  0
 10 11  1  0  0  0  0
  1 14  1  0  0  0  0
  3 15  1  0  0  0  0
  3 16  1  0  0  0  0
  4 17  1  0  0  0  0
  4 18  1  0  0  0  0
  5 19  1  0  0  0  0
  5 20  1  0  0  0  0
  6 21  1  0  0  0  0
  6 22  1  0  0  0  0
  7 23  1  0  0  0  0
  8 24  1  0  0  0  0
  9 25  1  0  0  0  0
 13 26  1  0  0  0  0
 13 27  1  0  0  0  0
M  END
> <FRED Chemgauss4 score>
-5.695432

$$$$
C83925146	P131294687
  -OEChem-05182014473D

 32 31  0     1  0  0  0  0  0999 V2000
  123.9705  105.4588  107.4469 C   0  0  0  0  0  0  0  0  0  0  0  0
  126.2601  106.5179  107.6118 C   0  0  0  0  0  0  0  0  0  0  0  0
  118.6213  103.5509  105.6203 C   0  0  0  0  0  0  0  0  0  0  0  0
  121.4054  106.0143  103.7389 C   0  0  0  0  0  0  0  0  0  0  0  0
  122.8382  106.3950  104.0940 C   0  0  0  0  0  0  0  0  0  0  0  0
  120.7908  105.0554  104.7495 C   0  0  0  0  0  0  0  0  0  0  0  0
  125.0853  106.1754  106.7057 C   0  0  2  0  0  0  0  0  0  0  0  0
  123.6267  104.2165  106.9865 N   0  0  0  0  0  0  0  0  0  0  0  0
  122.9328  107.0614  105.3637 N   0  0  0  0  0  0  0  0  0  0  0  0
  118.3220  105.8123  104.3439 O   0  0  0  0  0  0  0  0  0  0  0  0
  119.2053  103.8102  103.0857 O   0  0  0  0  0  0  0  0  0  0  0  0
  124.2293  108.6354  106.9628 O   0  0  0  0  0  0  0  0  0  0  0  0
  125.3132  107.9379  104.7960 O   0  0  0  0  0  0  0  0  0  0  0  0
  123.1959  106.1475  108.7614 S   0  0  0  0  0  0  0  0  0  0  0  0
  119.1431  104.6146  104.2942 S   0  0  0  0  0  0  0  0  0  0  0  0
  124.4553  107.6453  105.9281 S   0  0  0  0  0  0  0  0  0  0  0  0
  125.9376  107.1436  108.4505 H   0  0  0  0  0  0  0  0  0  0  0  0
  126.7351  105.6216  108.0248 H   0  0  0  0  0  0  0  0  0  0  0  0
  127.0293  107.0639  107.0549 H   0  0  0  0  0  0  0  0  0  0  0  0
  117.5992  103.2262  105.4194 H   0  0  0  0  0  0  0  0  0  0  0  0
  119.2945  102.6932  105.6589 H   0  0  0  0  0  0  0  0  0  0  0  0
  118.6670  104.1155  106.5527 H   0  0  0  0  0  0  0  0  0  0  0  0
  121.4004  105.5461  102.7470 H   0  0  0  0  0  0  0  0  0  0  0  0
  120.7858  106.9166  103.6625 H   0  0  0  0  0  0  0  0  0  0  0  0
  123.4825  105.5108  104.1315 H   0  0  0  0  0  0  0  0  0  0  0  0
  123.2419  107.0810  103.3429 H   0  0  0  0  0  0  0  0  0  0  0  0
  121.3620  104.1243  104.8125 H   0  0  0  0  0  0  0  0  0  0  0  0
  120.7318  105.5018  105.7464 H   0  0  0  0  0  0  0  0  0  0  0  0
  125.4509  105.5503  105.8822 H   0  0  0  0  0  0  0  0  0  0  0  0
  124.0792  103.7846  106.1879 H   0  0  0  0  0  0  0  0  0  0  0  0
  122.8864  103.6828  107.4302 H   0  0  0  0  0  0  0  0  0  0  0  0
  122.1170  107.6574  105.6256 H   0  0  0  0  0  0  0  0  0  0  0  0
  1  7  1  0  0  0  0
  1  8  1  0  0  0  0
  1 14  2  0  0  0  0
  2  7  1  0  0  0  0
  3 15  1  0  0  0  0
  4  5  1  0  0  0  0
  4  6  1  0  0  0  0
  5  9  1  0  0  0  0
  6 15  1  0  0  0  0
  7 16  1  0  0  0  0
  9 16  1  0  0  0  0
 10 15  2  0  0  0  0
 11 15  2  0  0  0  0
 12 16  2  0  0  0  0
 13 16  2  0  0  0  0
  2 17  1  0  0  0  0
  2 18  1  0  0  0  0
  2 19  1  0  0  0  0
  3 20  1  0  0  0  0
  3 21  1  0  0  0  0
  3 22  1  0  0  0  0
  4 23  1  0  0  0  0
  4 24  1  0  0  0  0
  5 25  1  0  0  0  0
  5 26  1  0  0  0  0
  6 27  1  0  0  0  0
  6 28  1  0  0  0  0
  7 29  1  0  0  0  0
  8 30  1  0  0  0  0
  8 31  1  0  0  0  0
  9 32  1  0  0  0  0
M  END
> <FRED Chemgauss4 score>
-5.693645

$$$$
C87651822	P137104705
  -OEChem-05182014473D

 24 25  0     0  0  0  0  0  0999 V2000
  123.8064  106.6325  106.3153 C   0  0  0  0  0  0  0  0  0  0  0  0
  119.0508  105.6156  105.7263 C   0  0  0  0  0  0  0  0  0  0  0  0
  120.2480  104.0038  106.4559 C   0  0  0  0  0  0  0  0  0  0  0  0
  120.2491  105.5296  106.6978 C   0  0  0  0  0  0  0  0  0  0  0  0
  118.7454  104.1480  106.1130 C   0  0  0  0  0  0  0  0  0  0  0  0
  122.5791  106.0434  106.9485 C   0  0  0  0  0  0  0  0  0  0  0  0
  124.9363  105.9303  106.1068 N   0  5  0  0  0  0  0  0  0  0  0  0
  123.8798  107.9123  105.9030 N   0  0  0  0  0  0  0  0  0  0  0  0
  125.7716  106.8280  105.5265 N   0  0  0  0  0  0  0  0  0  0  0  0
  125.1370  108.0188  105.4040 N   0  0  0  0  0  0  0  0  0  0  0  0
  121.4227  106.1150  106.0660 N   0  0  0  0  0  0  0  0  0  0  0  0
  118.3212  103.3201  104.9795 N   0  3  0  0  0  0  0  0  0  0  0  0
  118.2776  106.3384  106.0035 H   0  0  0  0  0  0  0  0  0  0  0  0
  119.2998  105.7621  104.6674 H   0  0  0  0  0  0  0  0  0  0  0  0
  120.8707  103.6494  105.6245 H   0  0  0  0  0  0  0  0  0  0  0  0
  120.4667  103.3934  107.3373 H   0  0  0  0  0  0  0  0  0  0  0  0
  120.0462  105.8464  107.7204 H   0  0  0  0  0  0  0  0  0  0  0  0
  118.0790  104.0445  106.9776 H   0  0  0  0  0  0  0  0  0  0  0  0
  122.7438  104.9910  107.2040 H   0  0  0  0  0  0  0  0  0  0  0  0
  122.3254  106.5674  107.8760 H   0  0  0  0  0  0  0  0  0  0  0  0
  121.2309  107.0909  105.8420 H   0  0  0  0  0  0  0  0  0  0  0  0
  119.0802  102.7046  104.6483 H   0  0  0  0  0  0  0  0  0  0  0  0
  118.0256  103.8944  104.1747 H   0  0  0  0  0  0  0  0  0  0  0  0
  117.5247  102.7119  105.2252 H   0  0  0  0  0  0  0  0  0  0  0  0
  1  6  1  0  0  0  0
  1  7  1  0  0  0  0
  1  8  2  0  0  0  0
  2  4  1  0  0  0  0
  2  5  1  0  0  0  0
  3  4  1  0  0  0  0
  3  5  1  0  0  0  0
  4 11  1  0  0  0  0
  5 12  1  0  0  0  0
  6 11  1  0  0  0  0
  7  9  1  0  0  0  0
  8 10  1  0  0  0  0
  9 10  2  0  0  0  0
  2 13  1  0  0  0  0
  2 14  1  0  0  0  0
  3 15  1  0  0  0  0
  3 16  1  0  0  0  0
  4 17  1  0  0  0  0
  5 18  1  0  0  0  0
  6 19  1  0  0  0  0
  6 20  1  0  0  0  0
 11 21  1  0  0  0  0
 12 22  1  0  0  0  0
 12 23  1  0  0  0  0
 12 24  1  0  0  0  0
M  CHG  2   7  -1  12   1
M  END
> <FRED Chemgauss4 score>
-5.683564

$$$$
C82410507	P128782165
  -OEChem-05182014473D

 19 19  0     1  0  0  0  0  0999 V2000
  120.7841  105.5044  106.0445 C   0  0  0  0  0  0  0  0  0  0  0  0
  121.1373  106.5130  105.1754 C   0  0  0  0  0  0  0  0  0  0  0  0
  122.9436  105.3883  106.7877 C   0  0  0  0  0  0  0  0  0  0  0  0
  123.2972  106.3964  105.9180 C   0  0  0  0  0  0  0  0  0  0  0  0
  125.2053  107.4660  107.1928 C   0  0  0  0  0  0  0  0  0  0  0  0
  124.7259  106.8921  105.8569 C   0  0  2  0  0  0  0  0  0  0  0  0
  121.6809  104.9240  106.8663 N   0  0  0  0  0  0  0  0  0  0  0  0
  122.4003  106.9771  105.0965 N   0  0  0  0  0  0  0  0  0  0  0  0
  124.8890  107.8720  104.8043 N   0  0  0  0  0  0  0  0  0  0  0  0
  124.3513  108.5390  107.5760 O   0  0  0  0  0  0  0  0  0  0  0  0
  119.7691  105.1320  106.1072 H   0  0  0  0  0  0  0  0  0  0  0  0
  120.4162  106.9791  104.5155 H   0  0  0  0  0  0  0  0  0  0  0  0
  123.6591  104.9170  107.4513 H   0  0  0  0  0  0  0  0  0  0  0  0
  125.1601  106.7083  107.9829 H   0  0  0  0  0  0  0  0  0  0  0  0
  126.2303  107.8476  107.1308 H   0  0  0  0  0  0  0  0  0  0  0  0
  125.3883  106.0629  105.5778 H   0  0  0  0  0  0  0  0  0  0  0  0
  124.3578  107.7655  103.9601 H   0  0  0  0  0  0  0  0  0  0  0  0
  125.6635  108.5078  104.8535 H   0  0  0  0  0  0  0  0  0  0  0  0
  124.6877  108.8727  108.4225 H   0  0  0  0  0  0  0  0  0  0  0  0
  1  2  1  0  0  0  0
  1  7  2  0  0  0  0
  2  8  2  0  0  0  0
  3  4  2  0  0  0  0
  3  7  1  0  0  0  0
  4  6  1  0  0  0  0
  4  8  1  0  0  0  0
  5  6  1  0  0  0  0
  5 10  1  0  0  0  0
  6  9  1  0  0  0  0
  1 11  1  0  0  0  0
  2 12  1  0  0  0  0
  3 13  1  0  0  0  0
  5 14  1  0  0  0  0
  5 15  1  0  0  0  0
  6 16  1  0  0  0  0
  9 17  1  0  0  0  0
  9 18  1  0  0  0  0
 10 19  1  0  0  0  0
M  END
> <FRED Chemgauss4 score>
-5.680664

$$$$
C40537714	P61555778
  -OEChem-05182014473D

 13 13  0     0  0  0  0  0  0999 V2000
  123.2582  106.5823  105.8469 C   0  0  0  0  0  0  0  0  0  0  0  0
  124.5538  107.3662  105.8859 C   0  0  0  0  0  0  0  0  0  0  0  0
  124.4353  105.7619  107.3945 C   0  0  0  0  0  0  0  0  0  0  0  0
  123.2790  105.6061  106.8242 N   0  0  0  0  0  0  0  0  0  0  0  0
  124.8973  105.0397  108.3960 N   0  5  0  0  0  0  0  0  0  0  0  0
  125.2213  106.7612  106.9010 N   0  0  0  0  0  0  0  0  0  0  0  0
  123.9505  104.0184  108.8103 N   0  3  0  0  0  0  0  0  0  0  0  0
  122.3842  106.8424  105.0404 O   0  0  0  0  0  0  0  0  0  0  0  0
  124.8197  108.2836  105.1459 O   0  0  0  0  0  0  0  0  0  0  0  0
  126.1452  107.0087  107.2352 H   0  0  0  0  0  0  0  0  0  0  0  0
  123.0757  104.4570  109.1236 H   0  0  0  0  0  0  0  0  0  0  0  0
  124.3561  103.4861  109.5895 H   0  0  0  0  0  0  0  0  0  0  0  0
  123.7602  103.3780  108.0296 H   0  0  0  0  0  0  0  0  0  0  0  0
  1  2  1  0  0  0  0
  1  4  1  0  0  0  0
  1  8  2  0  0  0  0
  2  6  1  0  0  0  0
  2  9  2  0  0  0  0
  3  4  2  0  0  0  0
  3  5  1  0  0  0  0
  3  6  1  0  0  0  0
  5  7  1  0  0  0  0
  6 10  1  0  0  0  0
  7 11  1  0  0  0  0
  7 12  1  0  0  0  0
  7 13  1  0  0  0  0
M  CHG  2   5  -1   7   1
M  END
> <FRED Chemgauss4 score>
-5.680135

$$$$
C54497495	P82014190
  -OEChem-05182014473D

 23 23  0     1  0  0  0  0  0999 V2000
  122.9186  106.8131  106.1469 C   0  0  0  0  0  0  0  0  0  0  0  0
  124.9195  106.0977  106.5869 C   0  0  0  0  0  0  0  0  0  0  0  0
  127.7792  105.4913  109.1894 C   0  0  0  0  0  0  0  0  0  0  0  0
  123.0980  105.2880  108.1253 C   0  0  0  0  0  0  0  0  0  0  0  0
  126.0594  105.3596  107.2753 C   0  0  2  0  0  0  0  0  0  0  0  0
  126.6739  106.2073  108.4159 C   0  0  1  0  0  0  0  0  0  0  0  0
  123.7287  107.3308  105.2513 N   0  0  0  0  0  0  0  0  0  0  0  0
  125.0017  106.8757  105.5312 N   0  0  0  0  0  0  0  0  0  0  0  0
  123.6260  106.0299  107.0077 N   0  0  0  0  0  0  0  0  0  0  0  0
  127.0687  104.9527  106.2913 N   0  0  0  0  0  0  0  0  0  0  0  0
  125.6471  106.5408  109.3564 O   0  0  0  0  0  0  0  0  0  0  0  0
  121.8510  106.9663  106.2154 H   0  0  0  0  0  0  0  0  0  0  0  0
  127.4388  104.5359  109.5982 H   0  0  0  0  0  0  0  0  0  0  0  0
  128.1494  106.1146  110.0108 H   0  0  0  0  0  0  0  0  0  0  0  0
  128.6356  105.2950  108.5344 H   0  0  0  0  0  0  0  0  0  0  0  0
  122.8183  104.2934  107.7680 H   0  0  0  0  0  0  0  0  0  0  0  0
  123.8603  105.2135  108.9057 H   0  0  0  0  0  0  0  0  0  0  0  0
  122.2251  105.8109  108.5261 H   0  0  0  0  0  0  0  0  0  0  0  0
  125.6498  104.4428  107.7202 H   0  0  0  0  0  0  0  0  0  0  0  0
  127.0740  107.1530  108.0329 H   0  0  0  0  0  0  0  0  0  0  0  0
  126.7536  104.6998  105.3834 H   0  0  0  0  0  0  0  0  0  0  0  0
  127.9836  104.7521  106.6236 H   0  0  0  0  0  0  0  0  0  0  0  0
  126.0616  107.1157  110.0155 H   0  0  0  0  0  0  0  0  0  0  0  0
  1  7  2  0  0  0  0
  1  9  1  0  0  0  0
  2  5  1  0  0  0  0
  2  8  2  0  0  0  0
  2  9  1  0  0  0  0
  3  6  1  0  0  0  0
  4  9  1  0  0  0  0
  5  6  1  0  0  0  0
  5 10  1  0  0  0  0
  6 11  1  0  0  0  0
  7  8  1  0  0  0  0
  1 12  1  0  0  0  0
  3 13  1  0  0  0  0
  3 14  1  0  0  0  0
  3 15  1  0  0  0  0
  4 16  1  0  0  0  0
  4 17  1  0  0  0  0
  4 18  1  0  0  0  0
  5 19  1  0  0  0  0
  6 20  1  0  0  0  0
 10 21  1  0  0  0  0
 10 22  1  0  0  0  0
 11 23  1  0  0  0  0
M  END
> <FRED Chemgauss4 score>
-5.680035

$$$$
C48841183	P72986091
  -OEChem-05182014473D

 43 43  0     0  0  0  0  0  0999 V2000
  124.8346  107.5820  106.2001 C   0  0  0  0  0  0  0  0  0  0  0  0
  118.8319  105.9062  104.2753 C   0  0  0  0  0  0  0  0  0  0  0  0
  120.0628  107.5763  105.6207 C   0  0  0  0  0  0  0  0  0  0  0  0
  121.3702  106.1677  104.0683 C   0  0  0  0  0  0  0  0  0  0  0  0
  121.1847  107.4446  106.6474 C   0  0  0  0  0  0  0  0  0  0  0  0
  122.4753  106.0989  105.1259 C   0  0  0  0  0  0  0  0  0  0  0  0
  118.9052  104.2138   97.7036 C   0  0  0  0  0  0  0  0  0  0  0  0
  123.5642  107.2271  106.9545 C   0  0  0  0  0  0  0  0  0  0  0  0
  117.2135  104.8715  101.5939 C   0  0  0  0  0  0  0  0  0  0  0  0
  117.7387  104.1891  102.8542 C   0  0  0  0  0  0  0  0  0  0  0  0
  118.5672  105.6314   98.1101 C   0  0  0  0  0  0  0  0  0  0  0  0
  118.2425  104.8814  100.4704 C   0  0  0  0  0  0  0  0  0  0  0  0
  120.0613  106.4689  104.6632 N   0  0  0  0  0  0  0  0  0  0  0  0
  122.4815  107.2975  105.9739 N   0  0  0  0  0  0  0  0  0  0  0  0
  118.9135  104.8653  103.3572 N   0  0  0  0  0  0  0  0  0  0  0  0
  117.6769  105.6004   99.3025 N   0  3  0  0  0  0  0  0  0  0  0  0
  124.8418  108.7289  105.6699 O   0  5  0  0  0  0  0  0  0  0  0  0
  125.7303  106.6909  106.2070 O   0  0  0  0  0  0  0  0  0  0  0  0
  117.7461  106.3062  104.7085 O   0  0  0  0  0  0  0  0  0  0  0  0
  119.0824  107.5750  106.1155 H   0  0  0  0  0  0  0  0  0  0  0  0
  120.1794  108.5407  105.1183 H   0  0  0  0  0  0  0  0  0  0  0  0
  121.6325  106.9117  103.3119 H   0  0  0  0  0  0  0  0  0  0  0  0
  121.2714  105.2041  103.5566 H   0  0  0  0  0  0  0  0  0  0  0  0
  121.1887  108.3251  107.2979 H   0  0  0  0  0  0  0  0  0  0  0  0
  120.9835  106.5689  107.2698 H   0  0  0  0  0  0  0  0  0  0  0  0
  122.3055  105.2029  105.7416 H   0  0  0  0  0  0  0  0  0  0  0  0
  123.4504  105.9682  104.6294 H   0  0  0  0  0  0  0  0  0  0  0  0
  119.4436  103.7073   98.5105 H   0  0  0  0  0  0  0  0  0  0  0  0
  117.9996  103.6375   97.4871 H   0  0  0  0  0  0  0  0  0  0  0  0
  119.5399  104.1984   96.8114 H   0  0  0  0  0  0  0  0  0  0  0  0
  123.3842  107.9323  107.7718 H   0  0  0  0  0  0  0  0  0  0  0  0
  123.6305  106.2202  107.3779 H   0  0  0  0  0  0  0  0  0  0  0  0
  116.9061  105.8989  101.8267 H   0  0  0  0  0  0  0  0  0  0  0  0
  116.3149  104.3386  101.2585 H   0  0  0  0  0  0  0  0  0  0  0  0
  116.9657  104.2073  103.6294 H   0  0  0  0  0  0  0  0  0  0  0  0
  117.9776  103.1397  102.6514 H   0  0  0  0  0  0  0  0  0  0  0  0
  118.0278  106.1611   97.3201 H   0  0  0  0  0  0  0  0  0  0  0  0
  119.4609  106.1955   98.3911 H   0  0  0  0  0  0  0  0  0  0  0  0
  119.1587  105.4093  100.7498 H   0  0  0  0  0  0  0  0  0  0  0  0
  118.4880  103.8707  100.1313 H   0  0  0  0  0  0  0  0  0  0  0  0
  119.8249  104.5715  103.0304 H   0  0  0  0  0  0  0  0  0  0  0  0
  117.4495  106.5675   99.5756 H   0  0  0  0  0  0  0  0  0  0  0  0
  116.7794  105.1685   99.0386 H   0  0  0  0  0  0  0  0  0  0  0  0
  1  8  1  0  0  0  0
  1 17  1  0  0  0  0
  1 18  2  0  0  0  0
  2 13  1  0  0  0  0
  2 15  1  0  0  0  0
  2 19  2  0  0  0  0
  3  5  1  0  0  0  0
  3 13  1  0  0  0  0
  4  6  1  0  0  0  0
  4 13  1  0  0  0  0
  5 14  1  0  0  0  0
  6 14  1  0  0  0  0
  7 11  1  0  0  0  0
  8 14  1  0  0  0  0
  9 10  1  0  0  0  0
  9 12  1  0  0  0  0
 10 15  1  0  0  0  0
 11 16  1  0  0  0  0
 12 16  1  0  0  0  0
  3 20  1  0  0  0  0
  3 21  1  0  0  0  0
  4 22  1  0  0  0  0
  4 23  1  0  0  0  0
  5 24  1  0  0  0  0
  5 25  1  0  0  0  0
  6 26  1  0  0  0  0
  6 27  1  0  0  0  0
  7 28  1  0  0  0  0
  7 29  1  0  0  0  0
  7 30  1  0  0  0  0
  8 31  1  0  0  0  0
  8 32  1  0  0  0  0
  9 33  1  0  0  0  0
  9 34  1  0  0  0  0
 10 35  1  0  0  0  0
 10 36  1  0  0  0  0
 11 37  1  0  0  0  0
 11 38  1  0  0  0  0
 12 39  1  0  0  0  0
 12 40  1  0  0  0  0
 15 41  1  0  0  0  0
 16 42  1  0  0  0  0
 16 43  1  0  0  0  0
M  CHG  2  16   1  17  -1
M  END
> <FRED Chemgauss4 score>
-5.675623

$$$$
C87441208	P136788672
  -OEChem-05182014473D

 17 17  0     0  0  0  0  0  0999 V2000
  119.5555  102.2709  106.6357 C   0  0  0  0  0  0  0  0  0  0  0  0
  119.7057  103.3449  106.1204 C   0  0  0  0  0  0  0  0  0  0  0  0
  125.0667  106.7569  106.1142 C   0  0  0  0  0  0  0  0  0  0  0  0
  123.0757  106.7130  105.4888 C   0  0  0  0  0  0  0  0  0  0  0  0
  121.6588  106.3657  105.2082 C   0  0  0  0  0  0  0  0  0  0  0  0
  119.8836  104.6554  105.4904 C   0  0  0  0  0  0  0  0  0  0  0  0
  123.9427  105.9824  106.1505 N   0  0  0  0  0  0  0  0  0  0  0  0
  123.6671  107.8681  105.0815 N   0  0  0  0  0  0  0  0  0  0  0  0
  124.9497  107.9209  105.4716 N   0  0  0  0  0  0  0  0  0  0  0  0
  121.2269  105.1450  105.7019 N   0  0  0  0  0  0  0  0  0  0  0  0
  120.9682  107.1438  104.5554 O   0  0  0  0  0  0  0  0  0  0  0  0
  119.4225  101.3185  107.0933 H   0  0  0  0  0  0  0  0  0  0  0  0
  125.9950  106.4485  106.5763 H   0  0  0  0  0  0  0  0  0  0  0  0
  119.1710  105.3759  105.9035 H   0  0  0  0  0  0  0  0  0  0  0  0
  119.6921  104.5841  104.4150 H   0  0  0  0  0  0  0  0  0  0  0  0
  125.5604  108.7066  105.2656 H   0  0  0  0  0  0  0  0  0  0  0  0
  121.8738  104.5260  106.1795 H   0  0  0  0  0  0  0  0  0  0  0  0
  1  2  3  0  0  0  0
  2  6  1  0  0  0  0
  3  7  2  0  0  0  0
  3  9  1  0  0  0  0
  4  5  1  0  0  0  0
  4  7  1  0  0  0  0
  4  8  2  0  0  0  0
  5 10  1  0  0  0  0
  5 11  2  0  0  0  0
  6 10  1  0  0  0  0
  8  9  1  0  0  0  0
  1 12  1  0  0  0  0
  3 13  1  0  0  0  0
  6 14  1  0  0  0  0
  6 15  1  0  0  0  0
  9 16  1  0  0  0  0
 10 17  1  0  0  0  0
M  END
> <FRED Chemgauss4 score>
-5.669668

$$$$
C83755710	P131045930
  -OEChem-05182014473D

 20 20  0     0  0  0  0  0  0999 V2000
  121.8655  105.0568  105.7366 C   0  0  0  0  0  0  0  0  0  0  0  0
  123.3858  106.4762  105.9127 C   0  0  0  0  0  0  0  0  0  0  0  0
  120.1458  104.0221  103.2098 C   0  0  0  0  0  0  0  0  0  0  0  0
  124.5891  107.2252  106.2642 C   0  0  0  0  0  0  0  0  0  0  0  0
  120.2653  106.2004  104.0795 C   0  0  0  0  0  0  0  0  0  0  0  0
  123.0549  105.2893  106.3657 N   0  0  0  0  0  0  0  0  0  0  0  0
  122.4298  106.9211  105.0536 N   0  0  0  0  0  0  0  0  0  0  0  0
  121.4396  106.0252  104.9228 N   0  0  0  0  0  0  0  0  0  0  0  0
  125.0648  108.0900  105.1977 N   0  0  0  0  0  0  0  0  0  0  0  0
  120.4393  105.3840  102.9295 O   0  0  0  0  0  0  0  0  0  0  0  0
  121.3052  104.1431  105.8908 H   0  0  0  0  0  0  0  0  0  0  0  0
  120.2894  103.4243  102.3064 H   0  0  0  0  0  0  0  0  0  0  0  0
  119.1131  103.9350  103.5568 H   0  0  0  0  0  0  0  0  0  0  0  0
  120.8218  103.6662  103.9907 H   0  0  0  0  0  0  0  0  0  0  0  0
  124.4409  107.8817  107.1477 H   0  0  0  0  0  0  0  0  0  0  0  0
  125.4460  106.5705  106.5293 H   0  0  0  0  0  0  0  0  0  0  0  0
  119.3783  105.8993  104.6479 H   0  0  0  0  0  0  0  0  0  0  0  0
  120.1864  107.2581  103.8044 H   0  0  0  0  0  0  0  0  0  0  0  0
  126.0407  108.3064  105.1596 H   0  0  0  0  0  0  0  0  0  0  0  0
  124.3914  108.6018  104.6635 H   0  0  0  0  0  0  0  0  0  0  0  0
  1  6  2  0  0  0  0
  1  8  1  0  0  0  0
  2  4  1  0  0  0  0
  2  6  1  0  0  0  0
  2  7  2  0  0  0  0
  3 10  1  0  0  0  0
  4  9  1  0  0  0  0
  5  8  1  0  0  0  0
  5 10  1  0  0  0  0
  7  8  1  0  0  0  0
  1 11  1  0  0  0  0
  3 12  1  0  0  0  0
  3 13  1  0  0  0  0
  3 14  1  0  0  0  0
  4 15  1  0  0  0  0
  4 16  1  0  0  0  0
  5 17  1  0  0  0  0
  5 18  1  0  0  0  0
  9 19  1  0  0  0  0
  9 20  1  0  0  0  0
M  END
> <FRED Chemgauss4 score>
-5.663148

$$$$
C85798005	P134352462
  -OEChem-05182014473D

 26 26  0     1  0  0  0  0  0999 V2000
  121.7605  106.7412  105.5601 C   0  0  0  0  0  0  0  0  0  0  0  0
  121.9164  105.8394  106.5896 C   0  0  0  0  0  0  0  0  0  0  0  0
  123.9155  107.4481  105.8528 C   0  0  0  0  0  0  0  0  0  0  0  0
  124.0713  106.5468  106.8829 C   0  0  0  0  0  0  0  0  0  0  0  0
  125.2036  104.0068  109.5456 C   0  0  0  0  0  0  0  0  0  0  0  0
  125.5289  102.7028  107.5540 C   0  0  0  0  0  0  0  0  0  0  0  0
  126.0314  105.0523  107.5471 C   0  0  0  0  0  0  0  0  0  0  0  0
  125.3918  106.4473  107.6268 C   0  0  1  0  0  0  0  0  0  0  0  0
  122.7573  107.5617  105.1732 N   0  0  0  0  0  0  0  0  0  0  0  0
  123.0746  105.7261  107.2696 N   0  0  0  0  0  0  0  0  0  0  0  0
  126.3432  107.4531  107.1392 N   0  0  0  0  0  0  0  0  0  0  0  0
  125.1536  104.0131  108.0840 N   0  0  0  0  0  0  0  0  0  0  0  0
  120.8295  106.8318  105.0144 H   0  0  0  0  0  0  0  0  0  0  0  0
  121.1151  105.1803  106.8999 H   0  0  0  0  0  0  0  0  0  0  0  0
  124.7124  108.1107  105.5362 H   0  0  0  0  0  0  0  0  0  0  0  0
  124.9221  104.9885  109.9353 H   0  0  0  0  0  0  0  0  0  0  0  0
  126.2142  103.7687  109.8881 H   0  0  0  0  0  0  0  0  0  0  0  0
  124.5131  103.2587  109.9442 H   0  0  0  0  0  0  0  0  0  0  0  0
  125.4896  102.7140  106.4617 H   0  0  0  0  0  0  0  0  0  0  0  0
  124.8432  101.9353  107.9230 H   0  0  0  0  0  0  0  0  0  0  0  0
  126.5444  102.4453  107.8670 H   0  0  0  0  0  0  0  0  0  0  0  0
  126.2316  104.7795  106.5046 H   0  0  0  0  0  0  0  0  0  0  0  0
  126.9792  104.9938  108.0927 H   0  0  0  0  0  0  0  0  0  0  0  0
  125.2082  106.6722  108.6856 H   0  0  0  0  0  0  0  0  0  0  0  0
  127.3095  107.2929  107.3047 H   0  0  0  0  0  0  0  0  0  0  0  0
  125.9792  108.3322  106.8534 H   0  0  0  0  0  0  0  0  0  0  0  0
  1  2  2  0  0  0  0
  1  9  1  0  0  0  0
  2 10  1  0  0  0  0
  3  4  1  0  0  0  0
  3  9  2  0  0  0  0
  4  8  1  0  0  0  0
  4 10  2  0  0  0  0
  5 12  1  0  0  0  0
  6 12  1  0  0  0  0
  7  8  1  0  0  0  0
  7 12  1  0  0  0  0
  8 11  1  0  0  0  0
  1 13  1  0  0  0  0
  2 14  1  0  0  0  0
  3 15  1  0  0  0  0
  5 16  1  0  0  0  0
  5 17  1  0  0  0  0
  5 18  1  0  0  0  0
  6 19  1  0  0  0  0
  6 20  1  0  0  0  0
  6 21  1  0  0  0  0
  7 22  1  0  0  0  0
  7 23  1  0  0  0  0
  8 24  1  0  0  0  0
 11 25  1  0  0  0  0
 11 26  1  0  0  0  0
M  END
> <FRED Chemgauss4 score>
-5.657812

$$$$
C72408939	P112633960
  -OEChem-05182014473D

 47 50  0     1  0  0  0  0  0999 V2000
  119.8052  103.7529  104.6518 C   0  0  0  0  0  0  0  0  0  0  0  0
  119.7938  104.1347  106.0244 C   0  0  0  0  0  0  0  0  0  0  0  0
  117.9722  108.8584  108.8970 C   0  0  0  0  0  0  0  0  0  0  0  0
  119.4936  110.6707  108.4665 C   0  0  0  0  0  0  0  0  0  0  0  0
  117.5178  109.5718  109.9944 C   0  0  0  0  0  0  0  0  0  0  0  0
  118.9709  111.3032  109.5830 C   0  0  0  0  0  0  0  0  0  0  0  0
  124.7280  107.6456  104.3957 C   0  0  0  0  0  0  0  0  0  0  0  0
  118.9791  109.4253  108.1237 C   0  0  0  0  0  0  0  0  0  0  0  0
  124.9831  106.6432  106.2426 C   0  0  0  0  0  0  0  0  0  0  0  0
  123.6463  106.9588  106.1771 C   0  0  0  0  0  0  0  0  0  0  0  0
  119.7771  104.8437  103.8110 C   0  0  0  0  0  0  0  0  0  0  0  0
  119.7578  105.5031  106.1805 C   0  0  0  0  0  0  0  0  0  0  0  0
  121.7594  107.7704  107.4968 C   0  0  0  0  0  0  0  0  0  0  0  0
  125.5626  105.9261  107.4012 C   0  0  0  0  0  0  0  0  0  0  0  0
  124.4258  105.2894  108.2411 C   0  0  0  0  0  0  0  0  0  0  0  0
  122.6338  106.5991  107.1956 C   0  0  2  0  0  0  0  0  0  0  0  0
  119.7781  104.8663  102.3321 C   0  0  0  0  0  0  0  0  0  0  0  0
  119.5094  108.6952  106.9237 C   0  0  0  0  0  0  0  0  0  0  0  0
  119.7367  106.2980  107.4539 C   0  0  0  0  0  0  0  0  0  0  0  0
  117.9928  110.7840  110.3586 N   0  0  0  0  0  0  0  0  0  0  0  0
  125.6583  107.0790  105.1390 N   0  0  0  0  0  0  0  0  0  0  0  0
  123.4864  107.5898  104.9796 N   0  0  0  0  0  0  0  0  0  0  0  0
  123.2894  106.2141  108.4679 N   0  0  0  0  0  0  0  0  0  0  0  0
  120.3892  107.5957  107.2991 N   0  0  0  0  0  0  0  0  0  0  0  0
  122.2735  108.8179  107.8979 O   0  0  0  0  0  0  0  0  0  0  0  0
  119.7374  106.3209  104.6762 S   0  0  0  0  0  0  0  0  0  0  0  0
  119.8338  102.7283  104.3031 H   0  0  0  0  0  0  0  0  0  0  0  0
  119.8129  103.4376  106.8525 H   0  0  0  0  0  0  0  0  0  0  0  0
  117.5506  107.8882  108.6568 H   0  0  0  0  0  0  0  0  0  0  0  0
  120.2789  111.1388  107.8830 H   0  0  0  0  0  0  0  0  0  0  0  0
  116.7344  109.1728  110.6306 H   0  0  0  0  0  0  0  0  0  0  0  0
  119.3381  112.2761  109.8924 H   0  0  0  0  0  0  0  0  0  0  0  0
  124.8822  108.1098  103.4318 H   0  0  0  0  0  0  0  0  0  0  0  0
  126.2339  105.1408  107.0355 H   0  0  0  0  0  0  0  0  0  0  0  0
  126.1481  106.6086  108.0251 H   0  0  0  0  0  0  0  0  0  0  0  0
  124.0577  104.3980  107.7268 H   0  0  0  0  0  0  0  0  0  0  0  0
  124.8188  104.9538  109.2055 H   0  0  0  0  0  0  0  0  0  0  0  0
  122.0004  105.7788  106.8580 H   0  0  0  0  0  0  0  0  0  0  0  0
  118.7505  104.8450  101.9367 H   0  0  0  0  0  0  0  0  0  0  0  0
  120.2740  105.7673  101.9353 H   0  0  0  0  0  0  0  0  0  0  0  0
  120.3209  104.0053  101.9085 H   0  0  0  0  0  0  0  0  0  0  0  0
  118.6875  108.2816  106.3291 H   0  0  0  0  0  0  0  0  0  0  0  0
  120.0752  109.3692  106.2720 H   0  0  0  0  0  0  0  0  0  0  0  0
  118.7065  106.4755  107.7813 H   0  0  0  0  0  0  0  0  0  0  0  0
  120.2465  105.7612  108.2608 H   0  0  0  0  0  0  0  0  0  0  0  0
  122.6242  107.9520  104.5938 H   0  0  0  0  0  0  0  0  0  0  0  0
  122.6072  105.7323  109.0434 H   0  0  0  0  0  0  0  0  0  0  0  0
  1  2  1  0  0  0  0
  1 11  2  0  0  0  0
  2 12  2  0  0  0  0
  3  5  2  0  0  0  0
  3  8  1  0  0  0  0
  4  6  1  0  0  0  0
  4  8  2  0  0  0  0
  5 20  1  0  0  0  0
  6 20  2  0  0  0  0
  7 21  2  0  0  0  0
  7 22  1  0  0  0  0
  8 18  1  0  0  0  0
  9 10  2  0  0  0  0
  9 14  1  0  0  0  0
  9 21  1  0  0  0  0
 10 16  1  0  0  0  0
 10 22  1  0  0  0  0
 11 17  1  0  0  0  0
 11 26  1  0  0  0  0
 12 19  1  0  0  0  0
 12 26  1  0  0  0  0
 13 16  1  0  0  0  0
 13 24  1  0  0  0  0
 13 25  2  0  0  0  0
 14 15  1  0  0  0  0
 15 23  1  0  0  0  0
 16 23  1  0  0  0  0
 18 24  1  0  0  0  0
 19 24  1  0  0  0  0
  1 27  1  0  0  0  0
  2 28  1  0  0  0  0
  3 29  1  0  0  0  0
  4 30  1  0  0  0  0
  5 31  1  0  0  0  0
  6 32  1  0  0  0  0
  7 33  1  0  0  0  0
 14 34  1  0  0  0  0
 14 35  1  0  0  0  0
 15 36  1  0  0  0  0
 15 37  1  0  0  0  0
 16 38  1  0  0  0  0
 17 39  1  0  0  0  0
 17 40  1  0  0  0  0
 17 41  1  0  0  0  0
 18 42  1  0  0  0  0
 18 43  1  0  0  0  0
 19 44  1  0  0  0  0
 19 45  1  0  0  0  0
 22 46  1  0  0  0  0
 23 47  1  0  0  0  0
M  END
> <FRED Chemgauss4 score>
-5.655088

$$$$
C85467239	P133776201
  -OEChem-05182014473D

 31 32  0     1  0  0  0  0  0999 V2000
  120.1623  104.1830  105.5987 C   0  0  0  0  0  0  0  0  0  0  0  0
  120.6282  105.9047  104.1895 C   0  0  0  0  0  0  0  0  0  0  0  0
  121.2355  104.5100  106.4022 C   0  0  0  0  0  0  0  0  0  0  0  0
  121.9763  105.6004  105.9943 C   0  0  0  0  0  0  0  0  0  0  0  0
  124.5628  108.5442  107.1742 C   0  0  0  0  0  0  0  0  0  0  0  0
  123.9647  108.0927  105.8268 C   0  0  2  0  0  0  0  0  0  0  0  0
  124.2441  106.6279  106.2290 C   0  0  1  0  0  0  0  0  0  0  0  0
  125.1981  107.1428  107.3379 C   0  0  2  0  0  0  0  0  0  0  0  0
  125.8350  104.4626  107.7674 C   0  0  0  0  0  0  0  0  0  0  0  0
  126.0465  105.5309  108.8189 C   0  0  0  0  0  0  0  0  0  0  0  0
  119.8286  104.8611  104.4811 N   0  0  0  0  0  0  0  0  0  0  0  0
  121.7001  106.3233  104.8891 N   0  0  0  0  0  0  0  0  0  0  0  0
  124.8948  108.4631  104.7592 N   0  0  0  0  0  0  0  0  0  0  0  0
  123.0798  105.9929  106.7580 N   0  0  0  0  0  0  0  0  0  0  0  0
  125.0803  106.5477  108.6429 O   0  0  0  0  0  0  0  0  0  0  0  0
  121.6077  103.4893  107.9433 Br  0  0  0  0  0  0  0  0  0  0  0  0
  119.5120  103.3436  105.8255 H   0  0  0  0  0  0  0  0  0  0  0  0
  120.3833  106.4673  103.2971 H   0  0  0  0  0  0  0  0  0  0  0  0
  125.3129  109.3536  107.1315 H   0  0  0  0  0  0  0  0  0  0  0  0
  123.8206  108.8198  107.9398 H   0  0  0  0  0  0  0  0  0  0  0  0
  122.9218  108.3733  105.6592 H   0  0  0  0  0  0  0  0  0  0  0  0
  124.7365  105.9964  105.4839 H   0  0  0  0  0  0  0  0  0  0  0  0
  126.2627  107.1184  107.0328 H   0  0  0  0  0  0  0  0  0  0  0  0
  124.8400  104.0179  107.8575 H   0  0  0  0  0  0  0  0  0  0  0  0
  125.9446  104.8830  106.7623 H   0  0  0  0  0  0  0  0  0  0  0  0
  126.5857  103.6713  107.8649 H   0  0  0  0  0  0  0  0  0  0  0  0
  127.0433  105.9715  108.7232 H   0  0  0  0  0  0  0  0  0  0  0  0
  125.9358  105.1093  109.8223 H   0  0  0  0  0  0  0  0  0  0  0  0
  125.2612  109.3919  104.7529 H   0  0  0  0  0  0  0  0  0  0  0  0
  124.9737  107.8563  103.9700 H   0  0  0  0  0  0  0  0  0  0  0  0
  123.0285  105.8009  107.7632 H   0  0  0  0  0  0  0  0  0  0  0  0
  1  3  2  0  0  0  0
  1 11  1  0  0  0  0
  2 11  2  0  0  0  0
  2 12  1  0  0  0  0
  3  4  1  0  0  0  0
  3 16  1  0  0  0  0
  4 12  2  0  0  0  0
  4 14  1  0  0  0  0
  5  6  1  0  0  0  0
  5  8  1  0  0  0  0
  6  7  1  0  0  0  0
  6 13  1  0  0  0  0
  7  8  1  0  0  0  0
  7 14  1  0  0  0  0
  8 15  1  0  0  0  0
  9 10  1  0  0  0  0
 10 15  1  0  0  0  0
  1 17  1  0  0  0  0
  2 18  1  0  0  0  0
  5 19  1  0  0  0  0
  5 20  1  0  0  0  0
  6 21  1  0  0  0  0
  7 22  1  0  0  0  0
  8 23  1  0  0  0  0
  9 24  1  0  0  0  0
  9 25  1  0  0  0  0
  9 26  1  0  0  0  0
 10 27  1  0  0  0  0
 10 28  1  0  0  0  0
 13 29  1  0  0  0  0
 13 30  1  0  0  0  0
 14 31  1  0  0  0  0
M  END
> <FRED Chemgauss4 score>
-5.653042

$$$$
C92783308	P145270525
  -OEChem-05182014473D

 37 39  0     1  0  0  0  0  0999 V2000
  116.0435  104.4826  103.7472 C   0  0  0  0  0  0  0  0  0  0  0  0
  126.7060  107.6960  107.8673 C   0  0  0  0  0  0  0  0  0  0  0  0
  117.8240  104.9041  104.8129 C   0  0  0  0  0  0  0  0  0  0  0  0
  117.0000  105.9815  105.0289 C   0  0  0  0  0  0  0  0  0  0  0  0
  125.7246  105.8779  107.5697 C   0  0  0  0  0  0  0  0  0  0  0  0
  120.8062  106.1521  106.7439 C   0  0  0  0  0  0  0  0  0  0  0  0
  119.1876  104.8328  105.3844 C   0  0  0  0  0  0  0  0  0  0  0  0
  117.3208  107.1587  105.8632 C   0  0  0  0  0  0  0  0  0  0  0  0
  119.3520  105.9162  106.4841 C   0  0  2  0  0  0  0  0  0  0  0  0
  125.1026  104.5119  107.7147 C   0  0  0  0  0  0  0  0  0  0  0  0
  123.6172  104.4622  107.3329 C   0  0  0  0  0  0  0  0  0  0  0  0
  122.7251  105.4053  108.1378 C   0  0  0  0  0  0  0  0  0  0  0  0
  117.2309  103.9721  104.0105 N   0  0  0  0  0  0  0  0  0  0  0  0
  126.3479  106.5467  108.5119 N   0  0  0  0  0  0  0  0  0  0  0  0
  125.7177  106.6050  106.4204 N   0  0  0  0  0  0  0  0  0  0  0  0
  115.8558  105.7047  104.3455 N   0  0  0  0  0  0  0  0  0  0  0  0
  126.3435  107.7803  106.5855 N   0  0  0  0  0  0  0  0  0  0  0  0
  118.7809  107.2249  106.0988 N   0  0  0  0  0  0  0  0  0  0  0  0
  121.3398  105.3443  107.7299 N   0  0  0  0  0  0  0  0  0  0  0  0
  121.4051  107.0036  106.0975 O   0  0  0  0  0  0  0  0  0  0  0  0
  115.2778  104.0252  103.1369 H   0  0  0  0  0  0  0  0  0  0  0  0
  127.2495  108.4895  108.3631 H   0  0  0  0  0  0  0  0  0  0  0  0
  119.3712  103.8404  105.8115 H   0  0  0  0  0  0  0  0  0  0  0  0
  119.9187  104.9810  104.5800 H   0  0  0  0  0  0  0  0  0  0  0  0
  116.9948  108.0845  105.3776 H   0  0  0  0  0  0  0  0  0  0  0  0
  116.8027  107.0898  106.8262 H   0  0  0  0  0  0  0  0  0  0  0  0
  118.8991  105.5822  107.4201 H   0  0  0  0  0  0  0  0  0  0  0  0
  125.2421  104.1397  108.7370 H   0  0  0  0  0  0  0  0  0  0  0  0
  125.6573  103.8151  107.0728 H   0  0  0  0  0  0  0  0  0  0  0  0
  123.2636  103.4326  107.4727 H   0  0  0  0  0  0  0  0  0  0  0  0
  123.4991  104.6924  106.2670 H   0  0  0  0  0  0  0  0  0  0  0  0
  123.0532  106.4396  107.9932 H   0  0  0  0  0  0  0  0  0  0  0  0
  122.7699  105.1874  109.2088 H   0  0  0  0  0  0  0  0  0  0  0  0
  115.0261  106.2805  104.2880 H   0  0  0  0  0  0  0  0  0  0  0  0
  126.4434  108.4650  105.8411 H   0  0  0  0  0  0  0  0  0  0  0  0
  119.2307  107.5374  105.2368 H   0  0  0  0  0  0  0  0  0  0  0  0
  120.7294  104.6757  108.1900 H   0  0  0  0  0  0  0  0  0  0  0  0
  1 13  2  0  0  0  0
  1 16  1  0  0  0  0
  2 14  2  0  0  0  0
  2 17  1  0  0  0  0
  3  4  2  0  0  0  0
  3  7  1  0  0  0  0
  3 13  1  0  0  0  0
  4  8  1  0  0  0  0
  4 16  1  0  0  0  0
  5 10  1  0  0  0  0
  5 14  1  0  0  0  0
  5 15  2  0  0  0  0
  6  9  1  0  0  0  0
  6 19  1  0  0  0  0
  6 20  2  0  0  0  0
  7  9  1  0  0  0  0
  8 18  1  0  0  0  0
  9 18  1  0  0  0  0
 10 11  1  0  0  0  0
 11 12  1  0  0  0  0
 12 19  1  0  0  0  0
 15 17  1  0  0  0  0
  1 21  1  0  0  0  0
  2 22  1  0  0  0  0
  7 23  1  0  0  0  0
  7 24  1  0  0  0  0
  8 25  1  0  0  0  0
  8 26  1  0  0  0  0
  9 27  1  0  0  0  0
 10 28  1  0  0  0  0
 10 29  1  0  0  0  0
 11 30  1  0  0  0  0
 11 31  1  0  0  0  0
 12 32  1  0  0  0  0
 12 33  1  0  0  0  0
 16 34  1  0  0  0  0
 17 35  1  0  0  0  0
 18 36  1  0  0  0  0
 19 37  1  0  0  0  0
M  END
> <FRED Chemgauss4 score>
-5.652873

$$$$
C54419245	P81887085
  -OEChem-05182014473D

 25 25  0     1  0  0  0  0  0999 V2000
  121.0669  106.1648  104.7972 C   0  0  0  0  0  0  0  0  0  0  0  0
  121.1832  104.4717  106.4117 C   0  0  0  0  0  0  0  0  0  0  0  0
  120.0449  104.2233  105.4550 C   0  0  0  0  0  0  0  0  0  0  0  0
  122.0712  105.3985  105.6159 C   0  0  2  0  0  0  0  0  0  0  0  0
  121.9738  107.3464  106.9921 C   0  0  0  0  0  0  0  0  0  0  0  0
  125.0286  107.4235  106.5787 C   0  0  0  0  0  0  0  0  0  0  0  0
  123.9299  106.8951  105.6720 C   0  0  0  0  0  0  0  0  0  0  0  0
  126.0996  108.0318  105.8358 N   0  0  0  0  0  0  0  0  0  0  0  0
  122.8300  106.2942  106.4342 N   0  0  2  0  0  0  0  0  0  0  0  0
  121.2519  107.2366  104.2419 O   0  0  0  0  0  0  0  0  0  0  0  0
  119.9015  105.4474  104.7252 O   0  0  0  0  0  0  0  0  0  0  0  0
  120.7962  104.9747  107.3079 H   0  0  0  0  0  0  0  0  0  0  0  0
  121.6827  103.5537  106.7343 H   0  0  0  0  0  0  0  0  0  0  0  0
  120.2648  103.4189  104.7451 H   0  0  0  0  0  0  0  0  0  0  0  0
  119.1113  103.9945  105.9768 H   0  0  0  0  0  0  0  0  0  0  0  0
  122.7148  104.8303  104.9271 H   0  0  0  0  0  0  0  0  0  0  0  0
  122.5662  108.0223  107.6142 H   0  0  0  0  0  0  0  0  0  0  0  0
  121.1837  106.9050  107.6056 H   0  0  0  0  0  0  0  0  0  0  0  0
  121.5111  107.9236  106.1870 H   0  0  0  0  0  0  0  0  0  0  0  0
  125.4647  106.6238  107.1857 H   0  0  0  0  0  0  0  0  0  0  0  0
  124.6269  108.1900  107.2487 H   0  0  0  0  0  0  0  0  0  0  0  0
  123.5027  107.7101  105.0797 H   0  0  0  0  0  0  0  0  0  0  0  0
  124.3113  106.1311  104.9868 H   0  0  0  0  0  0  0  0  0  0  0  0
  126.4014  107.6080  104.9731 H   0  0  0  0  0  0  0  0  0  0  0  0
  126.6628  108.7408  106.2777 H   0  0  0  0  0  0  0  0  0  0  0  0
  1  4  1  0  0  0  0
  1 10  2  0  0  0  0
  1 11  1  0  0  0  0
  2  3  1  0  0  0  0
  2  4  1  0  0  0  0
  3 11  1  0  0  0  0
  4  9  1  0  0  0  0
  5  9  1  0  0  0  0
  6  7  1  0  0  0  0
  6  8  1  0  0  0  0
  7  9  1  0  0  0  0
  2 12  1  0  0  0  0
  2 13  1  0  0  0  0
  3 14  1  0  0  0  0
  3 15  1  0  0  0  0
  4 16  1  0  0  0  0
  5 17  1  0  0  0  0
  5 18  1  0  0  0  0
  5 19  1  0  0  0  0
  6 20  1  0  0  0  0
  6 21  1  0  0  0  0
  7 22  1  0  0  0  0
  7 23  1  0  0  0  0
  8 24  1  0  0  0  0
  8 25  1  0  0  0  0
M  END
> <FRED Chemgauss4 score>
-5.647241

$$$$
C93688486	P146754841
  -OEChem-05182014473D

 41 43  0     1  0  0  0  0  0999 V2000
  125.0334  106.9419  107.2402 C   0  0  0  0  0  0  0  0  0  0  0  0
  124.5947  106.0307  109.3330 C   0  0  0  0  0  0  0  0  0  0  0  0
  125.5203  106.1495  108.3197 C   0  0  0  0  0  0  0  0  0  0  0  0
  123.7539  107.3983  107.4695 C   0  0  0  0  0  0  0  0  0  0  0  0
  126.8182  105.5303  108.3809 C   0  0  0  0  0  0  0  0  0  0  0  0
  117.4144  103.2026  104.5476 C   0  0  0  0  0  0  0  0  0  0  0  0
  117.3633  104.4014  103.5930 C   0  0  0  0  0  0  0  0  0  0  0  0
  118.7323  103.3405  105.3154 C   0  0  0  0  0  0  0  0  0  0  0  0
  120.5983  104.9506  105.1664 C   0  0  0  0  0  0  0  0  0  0  0  0
  119.1204  106.2244  103.0764 C   0  0  0  0  0  0  0  0  0  0  0  0
  118.4824  105.2943  104.0907 C   0  0  2  0  0  0  0  0  0  0  0  0
  121.2176  105.9440  104.1647 C   0  0  2  0  0  0  0  0  0  0  0  0
  122.8957  108.2569  106.5861 C   0  0  0  0  0  0  0  0  0  0  0  0
  122.3445  106.7379  104.8112 C   0  0  0  0  0  0  0  0  0  0  0  0
  119.4731  104.2995  104.5082 N   0  0  2  0  0  0  0  0  0  0  0  0
  127.1421  104.7815  109.5173 N   0  0  0  0  0  0  0  0  0  0  0  0
  121.8429  107.4801  105.9203 N   0  0  0  0  0  0  0  0  0  0  0  0
  127.6580  105.6580  107.4620 O   0  0  0  0  0  0  0  0  0  0  0  0
  120.2339  106.8840  103.6972 O   0  0  0  0  0  0  0  0  0  0  0  0
  123.1454  106.8721  108.9811 S   0  0  0  0  0  0  0  0  0  0  0  0
  125.5927  107.1661  106.3401 H   0  0  0  0  0  0  0  0  0  0  0  0
  124.6932  105.4911  110.2651 H   0  0  0  0  0  0  0  0  0  0  0  0
  116.5631  103.2114  105.2367 H   0  0  0  0  0  0  0  0  0  0  0  0
  117.3802  102.2671  103.9784 H   0  0  0  0  0  0  0  0  0  0  0  0
  117.5419  104.0648  102.5643 H   0  0  0  0  0  0  0  0  0  0  0  0
  116.3901  104.9012  103.6203 H   0  0  0  0  0  0  0  0  0  0  0  0
  118.5361  103.7197  106.3258 H   0  0  0  0  0  0  0  0  0  0  0  0
  119.2538  102.3820  105.3973 H   0  0  0  0  0  0  0  0  0  0  0  0
  121.3477  104.2081  105.4635 H   0  0  0  0  0  0  0  0  0  0  0  0
  120.2653  105.4789  106.0692 H   0  0  0  0  0  0  0  0  0  0  0  0
  119.4651  105.6989  102.1775 H   0  0  0  0  0  0  0  0  0  0  0  0
  118.4088  106.9940  102.7610 H   0  0  0  0  0  0  0  0  0  0  0  0
  118.1382  105.8758  104.9589 H   0  0  0  0  0  0  0  0  0  0  0  0
  121.6212  105.4071  103.2960 H   0  0  0  0  0  0  0  0  0  0  0  0
  122.4130  109.0491  107.1687 H   0  0  0  0  0  0  0  0  0  0  0  0
  123.4947  108.7435  105.8092 H   0  0  0  0  0  0  0  0  0  0  0  0
  122.7554  107.4242  104.0805 H   0  0  0  0  0  0  0  0  0  0  0  0
  123.1090  106.0536  105.1582 H   0  0  0  0  0  0  0  0  0  0  0  0
  126.4582  104.6963  110.2614 H   0  0  0  0  0  0  0  0  0  0  0  0
  128.0407  104.3210  109.6198 H   0  0  0  0  0  0  0  0  0  0  0  0
  121.1096  108.1382  105.6194 H   0  0  0  0  0  0  0  0  0  0  0  0
  1  3  1  0  0  0  0
  1  4  2  0  0  0  0
  2  3  2  0  0  0  0
  2 20  1  0  0  0  0
  3  5  1  0  0  0  0
  4 13  1  0  0  0  0
  4 20  1  0  0  0  0
  5 16  1  0  0  0  0
  5 18  2  0  0  0  0
  6  7  1  0  0  0  0
  6  8  1  0  0  0  0
  7 11  1  0  0  0  0
  8 15  1  0  0  0  0
  9 12  1  0  0  0  0
  9 15  1  0  0  0  0
 10 11  1  0  0  0  0
 10 19  1  0  0  0  0
 11 15  1  0  0  0  0
 12 14  1  0  0  0  0
 12 19  1  0  0  0  0
 13 17  1  0  0  0  0
 14 17  1  0  0  0  0
  1 21  1  0  0  0  0
  2 22  1  0  0  0  0
  6 23  1  0  0  0  0
  6 24  1  0  0  0  0
  7 25  1  0  0  0  0
  7 26  1  0  0  0  0
  8 27  1  0  0  0  0
  8 28  1  0  0  0  0
  9 29  1  0  0  0  0
  9 30  1  0  0  0  0
 10 31  1  0  0  0  0
 10 32  1  0  0  0  0
 11 33  1  0  0  0  0
 12 34  1  0  0  0  0
 13 35  1  0  0  0  0
 13 36  1  0  0  0  0
 14 37  1  0  0  0  0
 14 38  1  0  0  0  0
 16 39  1  0  0  0  0
 16 40  1  0  0  0  0
 17 41  1  0  0  0  0
M  END
> <FRED Chemgauss4 score>
-5.646724

$$$$
C85184419	P133304798
  -OEChem-05182014473D

 25 25  0     1  0  0  0  0  0999 V2000
  124.5750  106.6443  105.4218 C   0  0  0  0  0  0  0  0  0  0  0  0
  123.4149  108.1067  106.4446 C   0  0  0  0  0  0  0  0  0  0  0  0
  124.7014  106.3451  106.7578 C   0  0  0  0  0  0  0  0  0  0  0  0
  122.2875  107.3592  109.2096 C   0  0  0  0  0  0  0  0  0  0  0  0
  123.7558  107.4190  108.8249 C   0  0  0  0  0  0  0  0  0  0  0  0
  124.5582  104.3197  108.3022 C   0  0  0  0  0  0  0  0  0  0  0  0
  125.4649  105.2475  107.4785 C   0  0  2  0  0  0  0  0  0  0  0  0
  123.7731  107.7421  105.2335 N   0  0  0  0  0  0  0  0  0  0  0  0
  123.9532  107.2907  107.4005 N   0  0  0  0  0  0  0  0  0  0  0  0
  123.3424  103.9916  107.6045 N   0  0  0  0  0  0  0  0  0  0  0  0
  126.5103  105.8179  108.3366 N   0  0  0  0  0  0  0  0  0  0  0  0
  125.0196  106.1266  104.5840 H   0  0  0  0  0  0  0  0  0  0  0  0
  122.7751  108.9438  106.6885 H   0  0  0  0  0  0  0  0  0  0  0  0
  121.7179  108.1577  108.7224 H   0  0  0  0  0  0  0  0  0  0  0  0
  122.1742  107.4709  110.2924 H   0  0  0  0  0  0  0  0  0  0  0  0
  121.8405  106.4036  108.9162 H   0  0  0  0  0  0  0  0  0  0  0  0
  124.3172  106.6167  109.3171 H   0  0  0  0  0  0  0  0  0  0  0  0
  124.2001  108.3690  109.1429 H   0  0  0  0  0  0  0  0  0  0  0  0
  125.0637  103.3689  108.5061 H   0  0  0  0  0  0  0  0  0  0  0  0
  124.2747  104.7574  109.2653 H   0  0  0  0  0  0  0  0  0  0  0  0
  125.9757  104.6324  106.7261 H   0  0  0  0  0  0  0  0  0  0  0  0
  122.5312  103.7197  108.1354 H   0  0  0  0  0  0  0  0  0  0  0  0
  123.3743  103.8407  106.6095 H   0  0  0  0  0  0  0  0  0  0  0  0
  126.9667  106.6423  108.0222 H   0  0  0  0  0  0  0  0  0  0  0  0
  126.8548  105.2557  109.0798 H   0  0  0  0  0  0  0  0  0  0  0  0
  1  3  2  0  0  0  0
  1  8  1  0  0  0  0
  2  8  2  0  0  0  0
  2  9  1  0  0  0  0
  3  7  1  0  0  0  0
  3  9  1  0  0  0  0
  4  5  1  0  0  0  0
  5  9  1  0  0  0  0
  6  7  1  0  0  0  0
  6 10  1  0  0  0  0
  7 11  1  0  0  0  0
  1 12  1  0  0  0  0
  2 13  1  0  0  0  0
  4 14  1  0  0  0  0
  4 15  1  0  0  0  0
  4 16  1  0  0  0  0
  5 17  1  0  0  0  0
  5 18  1  0  0  0  0
  6 19  1  0  0  0  0
  6 20  1  0  0  0  0
  7 21  1  0  0  0  0
 10 22  1  0  0  0  0
 10 23  1  0  0  0  0
 11 24  1  0  0  0  0
 11 25  1  0  0  0  0
M  END
> <FRED Chemgauss4 score>
-5.643984

$$$$
C37491501	P55758377
  -OEChem-05182014473D

 26 25  0     0  0  0  0  0  0999 V2000
  121.2903  105.5130  103.3129 C   0  0  0  0  0  0  0  0  0  0  0  0
  125.1215  105.3764  107.4577 C   0  0  0  0  0  0  0  0  0  0  0  0
  124.0177  104.4717  106.9259 C   0  0  0  0  0  0  0  0  0  0  0  0
  121.7361  104.2892  106.2039 C   0  0  0  0  0  0  0  0  0  0  0  0
  125.4265  106.5450  106.5283 C   0  0  0  0  0  0  0  0  0  0  0  0
  120.4458  105.0332  105.9176 C   0  0  0  0  0  0  0  0  0  0  0  0
  122.7797  105.1737  106.7242 N   0  0  0  0  0  0  0  0  0  0  0  0
  119.3637  106.8860  104.4246 O   0  0  0  0  0  0  0  0  0  0  0  0
  121.7265  107.2121  105.2507 O   0  0  0  0  0  0  0  0  0  0  0  0
  126.4744  107.3195  107.0961 O   0  0  0  0  0  0  0  0  0  0  0  0
  120.6705  106.3448  104.7571 S   0  0  0  0  0  0  0  0  0  0  0  0
  121.4602  106.2572  102.5332 H   0  0  0  0  0  0  0  0  0  0  0  0
  122.2247  105.0153  103.5766 H   0  0  0  0  0  0  0  0  0  0  0  0
  120.5461  104.7836  102.9898 H   0  0  0  0  0  0  0  0  0  0  0  0
  124.8260  105.7701  108.4382 H   0  0  0  0  0  0  0  0  0  0  0  0
  126.0393  104.8003  107.6302 H   0  0  0  0  0  0  0  0  0  0  0  0
  124.3085  104.0531  105.9574 H   0  0  0  0  0  0  0  0  0  0  0  0
  123.8238  103.6419  107.6131 H   0  0  0  0  0  0  0  0  0  0  0  0
  121.5851  103.4900  106.9362 H   0  0  0  0  0  0  0  0  0  0  0  0
  122.1262  103.8445  105.2833 H   0  0  0  0  0  0  0  0  0  0  0  0
  125.7516  106.1947  105.5438 H   0  0  0  0  0  0  0  0  0  0  0  0
  124.5475  107.1860  106.4067 H   0  0  0  0  0  0  0  0  0  0  0  0
  120.0623  105.4961  106.8318 H   0  0  0  0  0  0  0  0  0  0  0  0
  119.6772  104.3710  105.5078 H   0  0  0  0  0  0  0  0  0  0  0  0
  122.4508  105.5744  107.6097 H   0  0  0  0  0  0  0  0  0  0  0  0
  126.6445  108.0528  106.4830 H   0  0  0  0  0  0  0  0  0  0  0  0
  1 11  1  0  0  0  0
  2  3  1  0  0  0  0
  2  5  1  0  0  0  0
  3  7  1  0  0  0  0
  4  6  1  0  0  0  0
  4  7  1  0  0  0  0
  5 10  1  0  0  0  0
  6 11  1  0  0  0  0
  8 11  2  0  0  0  0
  9 11  2  0  0  0  0
  1 12  1  0  0  0  0
  1 13  1  0  0  0  0
  1 14  1  0  0  0  0
  2 15  1  0  0  0  0
  2 16  1  0  0  0  0
  3 17  1  0  0  0  0
  3 18  1  0  0  0  0
  4 19  1  0  0  0  0
  4 20  1  0  0  0  0
  5 21  1  0  0  0  0
  5 22  1  0  0  0  0
  6 23  1  0  0  0  0
  6 24  1  0  0  0  0
  7 25  1  0  0  0  0
 10 26  1  0  0  0  0
M  END
> <FRED Chemgauss4 score>
-5.643822

$$$$
C97556105	P154592888
  -OEChem-05182014473D

 39 40  0     1  0  0  0  0  0999 V2000
  125.7612  106.5686  106.4559 C   0  0  0  0  0  0  0  0  0  0  0  0
  123.7064  106.8605  106.2330 C   0  0  0  0  0  0  0  0  0  0  0  0
  118.5103  104.1601  106.5726 C   0  0  0  0  0  0  0  0  0  0  0  0
  119.9652  104.5433  106.3142 C   0  0  0  0  0  0  0  0  0  0  0  0
  117.7183  104.0820  105.2726 C   0  0  0  0  0  0  0  0  0  0  0  0
  119.2302  105.7355  104.2167 C   0  0  0  0  0  0  0  0  0  0  0  0
  120.0507  105.8457  105.5072 C   0  0  2  0  0  0  0  0  0  0  0  0
  115.1857  105.4568  104.2015 C   0  0  0  0  0  0  0  0  0  0  0  0
  121.5044  106.1923  105.1944 C   0  0  0  0  0  0  0  0  0  0  0  0
  122.1974  106.9204  106.3573 C   0  0  2  0  0  0  0  0  0  0  0  0
  124.5665  106.3364  107.0750 N   0  0  0  0  0  0  0  0  0  0  0  0
  125.6944  107.2035  105.2837 N   0  0  0  0  0  0  0  0  0  0  0  0
  124.3696  107.3786  105.1645 N   0  0  0  0  0  0  0  0  0  0  0  0
  117.8172  105.3827  104.5488 N   0  0  1  0  0  0  0  0  0  0  0  0
  121.9117  108.7241  107.8171 N   0  0  0  0  0  0  0  0  0  0  0  0
  121.7474  108.2904  106.4633 N   0  0  0  0  0  0  0  0  0  0  0  0
  116.7772  104.4606  102.3844 O   0  0  0  0  0  0  0  0  0  0  0  0
  116.7941  106.9550  102.7886 O   0  0  0  0  0  0  0  0  0  0  0  0
  116.6912  105.5970  103.2740 S   0  0  0  0  0  0  0  0  0  0  0  0
  126.7104  106.2657  106.8720 H   0  0  0  0  0  0  0  0  0  0  0  0
  118.4681  103.1958  107.0910 H   0  0  0  0  0  0  0  0  0  0  0  0
  118.0535  104.9045  107.2368 H   0  0  0  0  0  0  0  0  0  0  0  0
  120.4882  104.6575  107.2710 H   0  0  0  0  0  0  0  0  0  0  0  0
  120.4643  103.7305  105.7713 H   0  0  0  0  0  0  0  0  0  0  0  0
  118.0974  103.2749  104.6353 H   0  0  0  0  0  0  0  0  0  0  0  0
  116.6687  103.8739  105.5071 H   0  0  0  0  0  0  0  0  0  0  0  0
  119.2452  106.6997  103.6953 H   0  0  0  0  0  0  0  0  0  0  0  0
  119.6488  104.9758  103.5456 H   0  0  0  0  0  0  0  0  0  0  0  0
  119.6307  106.6557  106.1189 H   0  0  0  0  0  0  0  0  0  0  0  0
  114.3459  105.5738  103.5147 H   0  0  0  0  0  0  0  0  0  0  0  0
  115.1611  104.4724  104.6713 H   0  0  0  0  0  0  0  0  0  0  0  0
  115.1732  106.2425  104.9583 H   0  0  0  0  0  0  0  0  0  0  0  0
  122.0350  105.2671  104.9411 H   0  0  0  0  0  0  0  0  0  0  0  0
  121.5197  106.8245  104.2985 H   0  0  0  0  0  0  0  0  0  0  0  0
  121.8972  106.4409  107.2974 H   0  0  0  0  0  0  0  0  0  0  0  0
  124.0042  107.8492  104.3448 H   0  0  0  0  0  0  0  0  0  0  0  0
  122.3446  107.9777  108.3604 H   0  0  0  0  0  0  0  0  0  0  0  0
  122.5685  109.5031  107.8418 H   0  0  0  0  0  0  0  0  0  0  0  0
  120.7569  108.3548  106.2161 H   0  0  0  0  0  0  0  0  0  0  0  0
  1 11  1  0  0  0  0
  1 12  2  0  0  0  0
  2 10  1  0  0  0  0
  2 11  2  0  0  0  0
  2 13  1  0  0  0  0
  3  4  1  0  0  0  0
  3  5  1  0  0  0  0
  4  7  1  0  0  0  0
  5 14  1  0  0  0  0
  6  7  1  0  0  0  0
  6 14  1  0  0  0  0
  7  9  1  0  0  0  0
  8 19  1  0  0  0  0
  9 10  1  0  0  0  0
 10 16  1  0  0  0  0
 12 13  1  0  0  0  0
 14 19  1  0  0  0  0
 15 16  1  0  0  0  0
 17 19  2  0  0  0  0
 18 19  2  0  0  0  0
  1 20  1  0  0  0  0
  3 21  1  0  0  0  0
  3 22  1  0  0  0  0
  4 23  1  0  0  0  0
  4 24  1  0  0  0  0
  5 25  1  0  0  0  0
  5 26  1  0  0  0  0
  6 27  1  0  0  0  0
  6 28  1  0  0  0  0
  7 29  1  0  0  0  0
  8 30  1  0  0  0  0
  8 31  1  0  0  0  0
  8 32  1  0  0  0  0
  9 33  1  0  0  0  0
  9 34  1  0  0  0  0
 10 35  1  0  0  0  0
 13 36  1  0  0  0  0
 15 37  1  0  0  0  0
 15 38  1  0  0  0  0
 16 39  1  0  0  0  0
M  END
> <FRED Chemgauss4 score>
-5.640121

$$$$
C45108172	P67980203
  -OEChem-05182014473D

 19 19  0     1  0  0  0  0  0999 V2000
  125.3720  106.8721  106.9796 C   0  0  1  0  0  0  0  0  0  0  0  0
  124.3325  106.3604  107.9451 C   0  0  1  0  0  0  0  0  0  0  0  0
  123.0421  107.0195  107.4706 C   0  0  1  0  0  0  0  0  0  0  0  0
  124.5631  106.9930  105.6997 C   0  0  1  0  0  0  0  0  0  0  0  0
  122.6642  108.2560  108.2719 C   0  0  0  0  0  0  0  0  0  0  0  0
  123.2582  107.4275  106.1046 O   0  0  0  0  0  0  0  0  0  0  0  0
  125.8355  108.1398  107.4243 O   0  0  0  0  0  0  0  0  0  0  0  0
  125.1809  107.8846  104.7893 O   0  0  0  0  0  0  0  0  0  0  0  0
  121.4633  108.7917  107.7430 O   0  0  0  0  0  0  0  0  0  0  0  0
  124.2157  105.0143  107.7651 F   0  0  0  0  0  0  0  0  0  0  0  0
  126.2323  106.2065  106.8653 H   0  0  0  0  0  0  0  0  0  0  0  0
  124.5548  106.5432  109.0001 H   0  0  0  0  0  0  0  0  0  0  0  0
  122.2126  106.3044  107.4822 H   0  0  0  0  0  0  0  0  0  0  0  0
  124.4551  106.0109  105.2233 H   0  0  0  0  0  0  0  0  0  0  0  0
  123.4530  109.0071  108.1994 H   0  0  0  0  0  0  0  0  0  0  0  0
  122.5072  107.9926  109.3195 H   0  0  0  0  0  0  0  0  0  0  0  0
  126.2174  108.0048  108.3067 H   0  0  0  0  0  0  0  0  0  0  0  0
  124.6185  107.9181  103.9967 H   0  0  0  0  0  0  0  0  0  0  0  0
  121.2460  109.5779  108.2717 H   0  0  0  0  0  0  0  0  0  0  0  0
  1  2  1  0  0  0  0
  1  4  1  0  0  0  0
  1  7  1  0  0  0  0
  2  3  1  0  0  0  0
  2 10  1  0  0  0  0
  3  5  1  0  0  0  0
  3  6  1  0  0  0  0
  4  6  1  0  0  0  0
  4  8  1  0  0  0  0
  5  9  1  0  0  0  0
  1 11  1  0  0  0  0
  2 12  1  0  0  0  0
  3 13  1  0  0  0  0
  4 14  1  0  0  0  0
  5 15  1  0  0  0  0
  5 16  1  0  0  0  0
  7 17  1  0  0  0  0
  8 18  1  0  0  0  0
  9 19  1  0  0  0  0
M  END
> <FRED Chemgauss4 score>
-5.640121

$$$$
C82473325	P128885474
  -OEChem-05182014473D

 22 22  0     0  0  0  0  0  0999 V2000
  123.6563  106.6234  105.4446 C   0  0  0  0  0  0  0  0  0  0  0  0
  121.8915  105.6271  106.2978 C   0  0  0  0  0  0  0  0  0  0  0  0
  123.2620  105.5452  106.2594 C   0  0  0  0  0  0  0  0  0  0  0  0
  126.4472  105.9573  107.5034 C   0  0  0  0  0  0  0  0  0  0  0  0
  120.2287  107.1964  105.2722 C   0  0  0  0  0  0  0  0  0  0  0  0
  125.9282  104.9558  106.4991 C   0  0  0  0  0  0  0  0  0  0  0  0
  122.6201  107.3377  104.9975 N   0  0  0  0  0  0  0  0  0  0  0  0
  121.5611  106.7071  105.5332 N   0  0  0  0  0  0  0  0  0  0  0  0
  126.4025  106.5408  109.8109 N   0  0  0  0  0  0  0  0  0  0  0  0
  125.9953  105.7102  108.7868 N   0  0  0  0  0  0  0  0  0  0  0  0
  127.1999  106.8732  107.1747 O   0  0  0  0  0  0  0  0  0  0  0  0
  124.3109  104.3612  107.0483 S   0  0  0  0  0  0  0  0  0  0  0  0
  124.6539  106.9235  105.1540 H   0  0  0  0  0  0  0  0  0  0  0  0
  121.1397  105.0255  106.7906 H   0  0  0  0  0  0  0  0  0  0  0  0
  119.9779  107.9229  106.0496 H   0  0  0  0  0  0  0  0  0  0  0  0
  120.2004  107.6672  104.2856 H   0  0  0  0  0  0  0  0  0  0  0  0
  119.5261  106.3585  105.2895 H   0  0  0  0  0  0  0  0  0  0  0  0
  126.6318  104.1200  106.4393 H   0  0  0  0  0  0  0  0  0  0  0  0
  125.8352  105.3939  105.5011 H   0  0  0  0  0  0  0  0  0  0  0  0
  125.6279  106.5978  110.4709 H   0  0  0  0  0  0  0  0  0  0  0  0
  126.5021  107.4739  109.4130 H   0  0  0  0  0  0  0  0  0  0  0  0
  125.3736  104.9297  108.9727 H   0  0  0  0  0  0  0  0  0  0  0  0
  1  3  1  0  0  0  0
  1  7  2  0  0  0  0
  2  3  2  0  0  0  0
  2  8  1  0  0  0  0
  3 12  1  0  0  0  0
  4  6  1  0  0  0  0
  4 10  1  0  0  0  0
  4 11  2  0  0  0  0
  5  8  1  0  0  0  0
  6 12  1  0  0  0  0
  7  8  1  0  0  0  0
  9 10  1  0  0  0  0
  1 13  1  0  0  0  0
  2 14  1  0  0  0  0
  5 15  1  0  0  0  0
  5 16  1  0  0  0  0
  5 17  1  0  0  0  0
  6 18  1  0  0  0  0
  6 19  1  0  0  0  0
  9 20  1  0  0  0  0
  9 21  1  0  0  0  0
 10 22  1  0  0  0  0
M  END
> <FRED Chemgauss4 score>
-5.638814

$$$$
C90312751	P141186425
  -OEChem-05182014473D

 36 37  0     1  0  0  0  0  0999 V2000
  123.2594  105.4475  108.2951 C   0  0  0  0  0  0  0  0  0  0  0  0
  123.3886  105.6057  106.9354 C   0  0  0  0  0  0  0  0  0  0  0  0
  124.6971  104.0074  107.4490 C   0  0  0  0  0  0  0  0  0  0  0  0
  118.3946  104.6688  105.9024 C   0  0  0  0  0  0  0  0  0  0  0  0
  119.3317  105.8115  106.3441 C   0  0  2  0  0  0  0  0  0  0  0  0
  120.5033  105.0025  105.7434 C   0  0  1  0  0  0  0  0  0  0  0  0
  119.4557  104.3059  104.8324 C   0  0  2  0  0  0  0  0  0  0  0  0
  125.6741  102.9031  107.4367 C   0  0  0  0  0  0  0  0  0  0  0  0
  118.0855  104.7818  101.4454 C   0  0  0  0  0  0  0  0  0  0  0  0
  118.2765  104.1448  102.8054 C   0  0  0  0  0  0  0  0  0  0  0  0
  124.2847  104.7061  106.4147 N   0  0  0  0  0  0  0  0  0  0  0  0
  124.1033  104.4197  108.6095 N   0  0  0  0  0  0  0  0  0  0  0  0
  119.4389  105.8026  107.7969 N   0  0  0  0  0  0  0  0  0  0  0  0
  121.4911  105.8096  105.0393 N   0  0  0  0  0  0  0  0  0  0  0  0
  121.7862  107.6610  106.8001 O   0  0  0  0  0  0  0  0  0  0  0  0
  123.5282  107.3419  105.0146 O   0  0  0  0  0  0  0  0  0  0  0  0
  119.2436  104.8815  103.5273 O   0  0  0  0  0  0  0  0  0  0  0  0
  122.5458  106.7874  105.9263 S   0  0  0  0  0  0  0  0  0  0  0  0
  122.6664  105.9519  109.0446 H   0  0  0  0  0  0  0  0  0  0  0  0
  118.2284  103.8643  106.6297 H   0  0  0  0  0  0  0  0  0  0  0  0
  117.4245  104.9917  105.5129 H   0  0  0  0  0  0  0  0  0  0  0  0
  119.1324  106.7838  105.8849 H   0  0  0  0  0  0  0  0  0  0  0  0
  120.9805  104.3077  106.4170 H   0  0  0  0  0  0  0  0  0  0  0  0
  119.6142  103.2244  104.7329 H   0  0  0  0  0  0  0  0  0  0  0  0
  126.7010  103.2774  107.5840 H   0  0  0  0  0  0  0  0  0  0  0  0
  125.4724  102.1612  108.2289 H   0  0  0  0  0  0  0  0  0  0  0  0
  125.6560  102.3432  106.4852 H   0  0  0  0  0  0  0  0  0  0  0  0
  117.7367  105.8136  101.5434 H   0  0  0  0  0  0  0  0  0  0  0  0
  119.0245  104.7780  100.8821 H   0  0  0  0  0  0  0  0  0  0  0  0
  117.3572  104.2173  100.8538 H   0  0  0  0  0  0  0  0  0  0  0  0
  118.6254  103.1132  102.7003 H   0  0  0  0  0  0  0  0  0  0  0  0
  117.3377  104.1502  103.3672 H   0  0  0  0  0  0  0  0  0  0  0  0
  124.2589  104.0365  109.5325 H   0  0  0  0  0  0  0  0  0  0  0  0
  118.5975  105.7544  108.3328 H   0  0  0  0  0  0  0  0  0  0  0  0
  120.3157  106.0476  108.2078 H   0  0  0  0  0  0  0  0  0  0  0  0
  121.7561  105.4502  104.1283 H   0  0  0  0  0  0  0  0  0  0  0  0
  1  2  2  0  0  0  0
  1 12  1  0  0  0  0
  2 11  1  0  0  0  0
  2 18  1  0  0  0  0
  3  8  1  0  0  0  0
  3 11  2  0  0  0  0
  3 12  1  0  0  0  0
  4  5  1  0  0  0  0
  4  7  1  0  0  0  0
  5  6  1  0  0  0  0
  5 13  1  0  0  0  0
  6  7  1  0  0  0  0
  6 14  1  0  0  0  0
  7 17  1  0  0  0  0
  9 10  1  0  0  0  0
 10 17  1  0  0  0  0
 14 18  1  0  0  0  0
 15 18  2  0  0  0  0
 16 18  2  0  0  0  0
  1 19  1  0  0  0  0
  4 20  1  0  0  0  0
  4 21  1  0  0  0  0
  5 22  1  0  0  0  0
  6 23  1  0  0  0  0
  7 24  1  0  0  0  0
  8 25  1  0  0  0  0
  8 26  1  0  0  0  0
  8 27  1  0  0  0  0
  9 28  1  0  0  0  0
  9 29  1  0  0  0  0
  9 30  1  0  0  0  0
 10 31  1  0  0  0  0
 10 32  1  0  0  0  0
 12 33  1  0  0  0  0
 13 34  1  0  0  0  0
 13 35  1  0  0  0  0
 14 36  1  0  0  0  0
M  END
> <FRED Chemgauss4 score>
-5.636236

$$$$
C31992619	P138009253
  -OEChem-05182014473D

 21 22  0     1  0  0  0  0  0999 V2000
  124.7617  105.9313  107.4241 C   0  0  0  0  0  0  0  0  0  0  0  0
  123.3194  107.0190  105.9861 C   0  0  0  0  0  0  0  0  0  0  0  0
  125.4475  107.2267  107.0901 C   0  0  0  0  0  0  0  0  0  0  0  0
  121.7151  104.4069  105.7922 C   0  0  0  0  0  0  0  0  0  0  0  0
  121.1036  105.0918  106.9781 C   0  0  0  0  0  0  0  0  0  0  0  0
  124.5534  107.8806  106.0472 C   0  0  1  0  0  0  0  0  0  0  0  0
  122.5857  104.8374  106.9409 C   0  0  0  0  0  0  0  0  0  0  0  0
  123.5342  105.9253  106.7981 N   0  0  0  0  0  0  0  0  0  0  0  0
  125.1240  107.8769  104.7298 N   0  0  0  0  0  0  0  0  0  0  0  0
  125.2404  105.0702  108.1493 O   0  0  0  0  0  0  0  0  0  0  0  0
  122.3501  107.2455  105.2744 O   0  0  0  0  0  0  0  0  0  0  0  0
  125.5048  107.8402  107.9954 H   0  0  0  0  0  0  0  0  0  0  0  0
  126.4636  107.0325  106.7325 H   0  0  0  0  0  0  0  0  0  0  0  0
  121.5158  103.3501  105.6631 H   0  0  0  0  0  0  0  0  0  0  0  0
  121.7869  104.9667  104.8678 H   0  0  0  0  0  0  0  0  0  0  0  0
  120.7641  106.1124  106.8520 H   0  0  0  0  0  0  0  0  0  0  0  0
  120.4939  104.4948  107.6450 H   0  0  0  0  0  0  0  0  0  0  0  0
  124.2721  108.8932  106.3444 H   0  0  0  0  0  0  0  0  0  0  0  0
  122.9605  104.0515  107.5877 H   0  0  0  0  0  0  0  0  0  0  0  0
  126.0933  108.0972  104.6340 H   0  0  0  0  0  0  0  0  0  0  0  0
  124.5046  107.8577  103.9467 H   0  0  0  0  0  0  0  0  0  0  0  0
  1  3  1  0  0  0  0
  1  8  1  0  0  0  0
  1 10  2  0  0  0  0
  2  6  1  0  0  0  0
  2  8  1  0  0  0  0
  2 11  2  0  0  0  0
  3  6  1  0  0  0  0
  4  5  1  0  0  0  0
  4  7  1  0  0  0  0
  5  7  1  0  0  0  0
  6  9  1  0  0  0  0
  7  8  1  0  0  0  0
  3 12  1  0  0  0  0
  3 13  1  0  0  0  0
  4 14  1  0  0  0  0
  4 15  1  0  0  0  0
  5 16  1  0  0  0  0
  5 17  1  0  0  0  0
  6 18  1  0  0  0  0
  7 19  1  0  0  0  0
  9 20  1  0  0  0  0
  9 21  1  0  0  0  0
M  END
> <FRED Chemgauss4 score>
-5.628736

$$$$
L-Serine	P10000025
  -OEChem-05182014473D

 14 13  0     1  0  0  0  0  0999 V2000
  124.9377  107.4106  105.9815 C   0  0  0  0  0  0  0  0  0  0  0  0
  124.9332  105.0294  107.0090 C   0  0  0  0  0  0  0  0  0  0  0  0
  125.3836  106.4825  107.1246 C   0  0  2  0  0  0  0  0  0  0  0  0
  124.9750  106.9818  108.4762 N   0  3  0  0  0  0  0  0  0  0  0  0
  123.6936  107.5076  105.7918 O   0  5  0  0  0  0  0  0  0  0  0  0
  125.8855  107.9585  105.3474 O   0  0  0  0  0  0  0  0  0  0  0  0
  125.2955  104.4986  105.7402 O   0  0  0  0  0  0  0  0  0  0  0  0
  123.8461  104.9483  107.1180 H   0  0  0  0  0  0  0  0  0  0  0  0
  125.3991  104.4133  107.7853 H   0  0  0  0  0  0  0  0  0  0  0  0
  126.4803  106.5050  107.1340 H   0  0  0  0  0  0  0  0  0  0  0  0
  123.9576  107.0272  108.5428 H   0  0  0  0  0  0  0  0  0  0  0  0
  125.3557  107.9153  108.6367 H   0  0  0  0  0  0  0  0  0  0  0  0
  125.3234  106.3562  109.2035 H   0  0  0  0  0  0  0  0  0  0  0  0
  126.2622  104.5596  105.6778 H   0  0  0  0  0  0  0  0  0  0  0  0
  1  3  1  0  0  0  0
  1  5  1  0  0  0  0
  1  6  2  0  0  0  0
  2  3  1  0  0  0  0
  2  7  1  0  0  0  0
  3  4  1  0  0  0  0
  2  8  1  0  0  0  0
  2  9  1  0  0  0  0
  3 10  1  0  0  0  0
  4 11  1  0  0  0  0
  4 12  1  0  0  0  0
  4 13  1  0  0  0  0
  7 14  1  0  0  0  0
M  CHG  2   4   1   5  -1
M  END
> <FRED Chemgauss4 score>
-5.626003

$$$$
C40448205	P61401698
  -OEChem-05182014473D

 13 13  0     0  0  0  0  0  0999 V2000
  121.9868  105.0799  106.1378 C   0  0  0  0  0  0  0  0  0  0  0  0
  123.2180  106.7094  105.8088 C   0  0  0  0  0  0  0  0  0  0  0  0
  124.3915  107.5958  105.8430 C   0  0  0  0  0  0  0  0  0  0  0  0
  123.1946  105.4933  106.4273 N   0  0  0  0  0  0  0  0  0  0  0  0
  122.0993  107.0553  105.1649 N   0  0  0  0  0  0  0  0  0  0  0  0
  125.5158  109.3454  107.0176 N   0  0  0  0  0  0  0  0  0  0  0  0
  124.4308  108.4960  106.9015 N   0  0  0  0  0  0  0  0  0  0  0  0
  125.2898  107.5260  105.0016 O   0  0  0  0  0  0  0  0  0  0  0  0
  121.2649  105.9525  105.3869 O   0  0  0  0  0  0  0  0  0  0  0  0
  121.5034  104.1558  106.4145 H   0  0  0  0  0  0  0  0  0  0  0  0
  125.6743  109.4861  108.0145 H   0  0  0  0  0  0  0  0  0  0  0  0
  126.3278  108.8345  106.6738 H   0  0  0  0  0  0  0  0  0  0  0  0
  123.6757  108.5292  107.5780 H   0  0  0  0  0  0  0  0  0  0  0  0
  1  4  2  0  0  0  0
  1  9  1  0  0  0  0
  2  3  1  0  0  0  0
  2  4  1  0  0  0  0
  2  5  2  0  0  0  0
  3  7  1  0  0  0  0
  3  8  2  0  0  0  0
  5  9  1  0  0  0  0
  6  7  1  0  0  0  0
  1 10  1  0  0  0  0
  6 11  1  0  0  0  0
  6 12  1  0  0  0  0
  7 13  1  0  0  0  0
M  END
> <FRED Chemgauss4 score>
-5.624562

$$$$
C85253424	P133383802
  -OEChem-05182014473D

 26 26  0     1  0  0  0  0  0999 V2000
  120.1911  104.5826  105.8555 C   0  0  0  0  0  0  0  0  0  0  0  0
  119.9652  106.5337  104.6497 C   0  0  0  0  0  0  0  0  0  0  0  0
  118.7132  104.7474  105.6478 C   0  0  0  0  0  0  0  0  0  0  0  0
  118.5644  106.0322  104.8501 C   0  0  0  0  0  0  0  0  0  0  0  0
  122.3406  106.0069  107.7386 C   0  0  0  0  0  0  0  0  0  0  0  0
  122.2665  105.8175  105.2459 C   0  0  0  0  0  0  0  0  0  0  0  0
  124.2250  107.0154  106.4052 C   0  0  0  0  0  0  0  0  0  0  0  0
  122.7225  106.6972  106.4237 C   0  0  2  0  0  0  0  0  0  0  0  0
  120.8315  105.6413  105.2464 N   0  0  0  0  0  0  0  0  0  0  0  0
  120.6941  103.6529  106.4712 O   0  0  0  0  0  0  0  0  0  0  0  0
  120.2441  107.5651  104.0540 O   0  0  0  0  0  0  0  0  0  0  0  0
  124.5888  107.6819  105.2063 O   0  0  0  0  0  0  0  0  0  0  0  0
  122.0031  107.9331  106.3862 O   0  0  0  0  0  0  0  0  0  0  0  0
  118.3190  103.8880  105.0975 H   0  0  0  0  0  0  0  0  0  0  0  0
  118.2098  104.8191  106.6164 H   0  0  0  0  0  0  0  0  0  0  0  0
  117.9798  106.7768  105.3985 H   0  0  0  0  0  0  0  0  0  0  0  0
  118.0958  105.8472  103.8791 H   0  0  0  0  0  0  0  0  0  0  0  0
  122.6524  106.6094  108.5997 H   0  0  0  0  0  0  0  0  0  0  0  0
  121.2625  105.8307  107.8109 H   0  0  0  0  0  0  0  0  0  0  0  0
  122.8550  105.0437  107.8362 H   0  0  0  0  0  0  0  0  0  0  0  0
  122.7449  104.8329  105.2829 H   0  0  0  0  0  0  0  0  0  0  0  0
  122.5454  106.2873  104.2959 H   0  0  0  0  0  0  0  0  0  0  0  0
  124.8243  106.1029  106.4984 H   0  0  0  0  0  0  0  0  0  0  0  0
  124.4917  107.6519  107.2571 H   0  0  0  0  0  0  0  0  0  0  0  0
  125.5438  107.8533  105.2572 H   0  0  0  0  0  0  0  0  0  0  0  0
  121.0638  107.7009  106.4205 H   0  0  0  0  0  0  0  0  0  0  0  0
  1  3  1  0  0  0  0
  1  9  1  0  0  0  0
  1 10  2  0  0  0  0
  2  4  1  0  0  0  0
  2  9  1  0  0  0  0
  2 11  2  0  0  0  0
  3  4  1  0  0  0  0
  5  8  1  0  0  0  0
  6  8  1  0  0  0  0
  6  9  1  0  0  0  0
  7  8  1  0  0  0  0
  7 12  1  0  0  0  0
  8 13  1  0  0  0  0
  3 14  1  0  0  0  0
  3 15  1  0  0  0  0
  4 16  1  0  0  0  0
  4 17  1  0  0  0  0
  5 18  1  0  0  0  0
  5 19  1  0  0  0  0
  5 20  1  0  0  0  0
  6 21  1  0  0  0  0
  6 22  1  0  0  0  0
  7 23  1  0  0  0  0
  7 24  1  0  0  0  0
 12 25  1  0  0  0  0
 13 26  1  0  0  0  0
M  END
> <FRED Chemgauss4 score>
-5.624355

$$$$
C41096691	P62370126
  -OEChem-05182014473D

 33 34  0     1  0  0  0  0  0999 V2000
  122.8391  105.4112  103.4277 C   0  0  0  0  0  0  0  0  0  0  0  0
  121.8769  104.8467  102.5904 C   0  0  0  0  0  0  0  0  0  0  0  0
  122.4478  106.0882  104.5828 C   0  0  0  0  0  0  0  0  0  0  0  0
  120.5234  104.9592  102.9082 C   0  0  0  0  0  0  0  0  0  0  0  0
  121.0943  106.2007  104.9006 C   0  0  0  0  0  0  0  0  0  0  0  0
  120.1321  105.6362  104.0633 C   0  0  0  0  0  0  0  0  0  0  0  0
  124.8256  104.9720  109.0793 C   0  0  0  0  0  0  0  0  0  0  0  0
  123.4352  104.9034  108.4561 C   0  0  0  0  0  0  0  0  0  0  0  0
  125.7533  105.8523  108.2448 C   0  0  0  0  0  0  0  0  0  0  0  0
  123.5001  104.4542  107.0028 C   0  0  0  0  0  0  0  0  0  0  0  0
  125.7980  105.4431  106.7689 C   0  0  1  0  0  0  0  0  0  0  0  0
  126.5623  104.1427  106.5280 C   0  0  0  0  0  0  0  0  0  0  0  0
  124.4093  105.3348  106.2124 N   0  0  2  0  0  0  0  0  0  0  0  0
  124.6834  107.4132  104.7246 O   0  0  0  0  0  0  0  0  0  0  0  0
  123.0952  107.4925  106.6789 O   0  0  0  0  0  0  0  0  0  0  0  0
  123.7208  106.7753  105.5922 S   0  0  0  0  0  0  0  0  0  0  0  0
  119.3905  104.2325  101.8203 Cl  0  0  0  0  0  0  0  0  0  0  0  0
  120.6300  107.0489  106.3450 Cl  0  0  0  0  0  0  0  0  0  0  0  0
  118.4409  105.7706  104.4501 Cl  0  0  0  0  0  0  0  0  0  0  0  0
  123.8902  105.3159  103.1678 H   0  0  0  0  0  0  0  0  0  0  0  0
  122.2006  104.3228  101.6945 H   0  0  0  0  0  0  0  0  0  0  0  0
  124.7549  105.3737  110.0989 H   0  0  0  0  0  0  0  0  0  0  0  0
  125.2460  103.9620  109.1621 H   0  0  0  0  0  0  0  0  0  0  0  0
  122.8139  104.2035  109.0314 H   0  0  0  0  0  0  0  0  0  0  0  0
  122.9532  105.8867  108.5198 H   0  0  0  0  0  0  0  0  0  0  0  0
  125.4264  106.9006  108.3364 H   0  0  0  0  0  0  0  0  0  0  0  0
  126.7671  105.8067  108.6780 H   0  0  0  0  0  0  0  0  0  0  0  0
  123.8743  103.4204  106.9740 H   0  0  0  0  0  0  0  0  0  0  0  0
  122.4966  104.4595  106.5509 H   0  0  0  0  0  0  0  0  0  0  0  0
  126.3159  106.2536  106.1830 H   0  0  0  0  0  0  0  0  0  0  0  0
  126.0914  103.3307  107.0794 H   0  0  0  0  0  0  0  0  0  0  0  0
  127.5918  104.2525  106.8642 H   0  0  0  0  0  0  0  0  0  0  0  0
  126.5570  103.9033  105.4660 H   0  0  0  0  0  0  0  0  0  0  0  0
  1  2  2  0  0  0  0
  1  3  1  0  0  0  0
  2  4  1  0  0  0  0
  3  5  2  0  0  0  0
  3 16  1  0  0  0  0
  4  6  2  0  0  0  0
  4 17  1  0  0  0  0
  5  6  1  0  0  0  0
  5 18  1  0  0  0  0
  6 19  1  0  0  0  0
  7  8  1  0  0  0  0
  7  9  1  0  0  0  0
  8 10  1  0  0  0  0
  9 11  1  0  0  0  0
 10 13  1  0  0  0  0
 11 12  1  0  0  0  0
 11 13  1  0  0  0  0
 13 16  1  0  0  0  0
 14 16  2  0  0  0  0
 15 16  2  0  0  0  0
  1 20  1  0  0  0  0
  2 21  1  0  0  0  0
  7 22  1  0  0  0  0
  7 23  1  0  0  0  0
  8 24  1  0  0  0  0
  8 25  1  0  0  0  0
  9 26  1  0  0  0  0
  9 27  1  0  0  0  0
 10 28  1  0  0  0  0
 10 29  1  0  0  0  0
 11 30  1  0  0  0  0
 12 31  1  0  0  0  0
 12 32  1  0  0  0  0
 12 33  1  0  0  0  0
M  END
> <FRED Chemgauss4 score>
-5.620328

$$$$
C39050781	P151023628
  -OEChem-05182014473D

 17 17  0     0  0  0  0  0  0999 V2000
  123.4484  105.3286  106.2833 C   0  0  0  0  0  0  0  0  0  0  0  0
  125.5656  105.8821  107.2493 C   0  0  0  0  0  0  0  0  0  0  0  0
  124.5977  107.3388  105.6826 C   0  0  0  0  0  0  0  0  0  0  0  0
  124.4911  105.0100  107.1481 C   0  0  0  0  0  0  0  0  0  0  0  0
  123.4981  106.5044  105.5406 C   0  0  0  0  0  0  0  0  0  0  0  0
  124.4569  103.7568  107.9507 C   0  0  0  0  0  0  0  0  0  0  0  0
  125.5879  107.0077  106.5225 N   0  3  0  0  0  0  0  0  0  0  0  0
  126.5955  107.7984  106.6345 O   0  5  0  0  0  0  0  0  0  0  0  0
  122.4900  106.8308  104.6917 O   0  0  0  0  0  0  0  0  0  0  0  0
  123.5382  103.9069  109.0273 O   0  0  0  0  0  0  0  0  0  0  0  0
  122.5957  104.6615  106.1856 H   0  0  0  0  0  0  0  0  0  0  0  0
  126.4181  105.7175  107.8922 H   0  0  0  0  0  0  0  0  0  0  0  0
  124.7196  108.2686  105.1464 H   0  0  0  0  0  0  0  0  0  0  0  0
  124.1438  102.8961  107.3421 H   0  0  0  0  0  0  0  0  0  0  0  0
  125.4477  103.5205  108.3651 H   0  0  0  0  0  0  0  0  0  0  0  0
  121.7989  106.1480  104.7065 H   0  0  0  0  0  0  0  0  0  0  0  0
  123.5486  103.0712  109.5204 H   0  0  0  0  0  0  0  0  0  0  0  0
  1  4  1  0  0  0  0
  1  5  2  0  0  0  0
  2  4  2  0  0  0  0
  2  7  1  0  0  0  0
  3  5  1  0  0  0  0
  3  7  2  0  0  0  0
  4  6  1  0  0  0  0
  5  9  1  0  0  0  0
  6 10  1  0  0  0  0
  7  8  1  0  0  0  0
  1 11  1  0  0  0  0
  2 12  1  0  0  0  0
  3 13  1  0  0  0  0
  6 14  1  0  0  0  0
  6 15  1  0  0  0  0
  9 16  1  0  0  0  0
 10 17  1  0  0  0  0
M  CHG  2   7   1   8  -1
M  END
> <FRED Chemgauss4 score>
-5.619160

$$$$
C39118757	P59262028
  -OEChem-05182014473D

 17 17  0     0  0  0  0  0  0999 V2000
  124.4632  107.1258  105.8726 C   0  0  0  0  0  0  0  0  0  0  0  0
  120.8924  104.7447  104.7247 C   0  0  0  0  0  0  0  0  0  0  0  0
  120.7191  104.0562  103.3960 C   0  0  0  0  0  0  0  0  0  0  0  0
  121.3603  106.1837  104.6706 C   0  0  0  0  0  0  0  0  0  0  0  0
  124.1806  106.1358  106.7663 N   0  0  0  0  0  0  0  0  0  0  0  0
  123.5093  107.3242  104.9593 N   0  0  0  0  0  0  0  0  0  0  0  0
  122.9884  105.6637  106.4239 N   0  0  0  0  0  0  0  0  0  0  0  0
  122.6322  106.3916  105.3563 N   0  0  0  0  0  0  0  0  0  0  0  0
  125.6366  107.7975  105.9759 N   0  0  0  0  0  0  0  0  0  0  0  0
  120.6607  104.1534  105.7784 O   0  0  0  0  0  0  0  0  0  0  0  0
  121.6551  103.5705  103.1066 H   0  0  0  0  0  0  0  0  0  0  0  0
  119.9371  103.2972  103.4764 H   0  0  0  0  0  0  0  0  0  0  0  0
  120.4534  104.7929  102.6340 H   0  0  0  0  0  0  0  0  0  0  0  0
  120.6117  106.8295  105.1411 H   0  0  0  0  0  0  0  0  0  0  0  0
  121.4842  106.4893  103.6264 H   0  0  0  0  0  0  0  0  0  0  0  0
  126.3009  107.6145  106.7383 H   0  0  0  0  0  0  0  0  0  0  0  0
  125.8690  108.5815  105.3536 H   0  0  0  0  0  0  0  0  0  0  0  0
  1  5  1  0  0  0  0
  1  6  2  0  0  0  0
  1  9  1  0  0  0  0
  2  3  1  0  0  0  0
  2  4  1  0  0  0  0
  2 10  2  0  0  0  0
  4  8  1  0  0  0  0
  5  7  2  0  0  0  0
  6  8  1  0  0  0  0
  7  8  1  0  0  0  0
  3 11  1  0  0  0  0
  3 12  1  0  0  0  0
  3 13  1  0  0  0  0
  4 14  1  0  0  0  0
  4 15  1  0  0  0  0
  9 16  1  0  0  0  0
  9 17  1  0  0  0  0
M  END
> <FRED Chemgauss4 score>
-5.617694

$$$$
C84212117	P131816330
  -OEChem-05182014473D

 28 28  0     1  0  0  0  0  0999 V2000
  120.8837  107.3111  107.5825 C   0  0  0  0  0  0  0  0  0  0  0  0
  121.7884  106.9478  108.2832 C   0  0  0  0  0  0  0  0  0  0  0  0
  122.9781  105.1131  106.5735 C   0  0  0  0  0  0  0  0  0  0  0  0
  126.5740  106.0552  108.4771 C   0  0  0  0  0  0  0  0  0  0  0  0
  125.2773  106.3138  109.2448 C   0  0  0  0  0  0  0  0  0  0  0  0
  125.3809  104.7474  106.8685 C   0  0  0  0  0  0  0  0  0  0  0  0
  124.0605  105.0146  107.6058 C   0  0  1  0  0  0  0  0  0  0  0  0
  120.8497  104.0738  105.8170 C   0  0  0  0  0  0  0  0  0  0  0  0
  122.8888  106.5043  109.1425 C   0  0  0  0  0  0  0  0  0  0  0  0
  126.5289  104.7726  107.7751 N   0  0  0  0  0  0  0  0  0  0  0  0
  124.1053  106.2831  108.3532 N   0  0  1  0  0  0  0  0  0  0  0  0
  121.9873  104.1589  106.7046 N   0  0  0  0  0  0  0  0  0  0  0  0
  123.0349  105.9909  105.7204 O   0  0  0  0  0  0  0  0  0  0  0  0
  120.0813  107.6328  106.9605 H   0  0  0  0  0  0  0  0  0  0  0  0
  126.7664  106.8689  107.7663 H   0  0  0  0  0  0  0  0  0  0  0  0
  127.4124  106.0418  109.1822 H   0  0  0  0  0  0  0  0  0  0  0  0
  125.1739  105.5695  110.0463 H   0  0  0  0  0  0  0  0  0  0  0  0
  125.3516  107.2987  109.7220 H   0  0  0  0  0  0  0  0  0  0  0  0
  125.3358  103.7622  106.3885 H   0  0  0  0  0  0  0  0  0  0  0  0
  125.5338  105.4749  106.0595 H   0  0  0  0  0  0  0  0  0  0  0  0
  123.8303  104.1733  108.2723 H   0  0  0  0  0  0  0  0  0  0  0  0
  120.0273  104.6831  106.2008 H   0  0  0  0  0  0  0  0  0  0  0  0
  120.5113  103.0374  105.7347 H   0  0  0  0  0  0  0  0  0  0  0  0
  121.1197  104.4345  104.8208 H   0  0  0  0  0  0  0  0  0  0  0  0
  122.6208  105.5751  109.6547 H   0  0  0  0  0  0  0  0  0  0  0  0
  123.0911  107.2564  109.9118 H   0  0  0  0  0  0  0  0  0  0  0  0
  127.3877  104.6463  107.2405 H   0  0  0  0  0  0  0  0  0  0  0  0
  122.0619  103.4851  107.4608 H   0  0  0  0  0  0  0  0  0  0  0  0
  1  2  3  0  0  0  0
  2  9  1  0  0  0  0
  3  7  1  0  0  0  0
  3 12  1  0  0  0  0
  3 13  2  0  0  0  0
  4  5  1  0  0  0  0
  4 10  1  0  0  0  0
  5 11  1  0  0  0  0
  6  7  1  0  0  0  0
  6 10  1  0  0  0  0
  7 11  1  0  0  0  0
  8 12  1  0  0  0  0
  9 11  1  0  0  0  0
  1 14  1  0  0  0  0
  4 15  1  0  0  0  0
  4 16  1  0  0  0  0
  5 17  1  0  0  0  0
  5 18  1  0  0  0  0
  6 19  1  0  0  0  0
  6 20  1  0  0  0  0
  7 21  1  0  0  0  0
  8 22  1  0  0  0  0
  8 23  1  0  0  0  0
  8 24  1  0  0  0  0
  9 25  1  0  0  0  0
  9 26  1  0  0  0  0
 10 27  1  0  0  0  0
 12 28  1  0  0  0  0
M  END
> <FRED Chemgauss4 score>
-5.615393

$$$$
C75523971	P117554389
  -OEChem-05182014473D

 18 18  0     1  0  0  0  0  0999 V2000
  124.7553  106.8097  105.5681 C   0  0  0  0  0  0  0  0  0  0  0  0
  123.4730  105.2173  106.7573 C   0  0  0  0  0  0  0  0  0  0  0  0
  123.3315  106.4267  105.8553 C   0  0  1  0  0  0  0  0  0  0  0  0
  124.8807  105.3051  107.3106 C   0  0  2  0  0  0  0  0  0  0  0  0
  124.9720  105.9413  108.6891 C   0  0  0  0  0  0  0  0  0  0  0  0
  122.6797  107.5666  106.4789 N   0  0  0  0  0  0  0  0  0  0  0  0
  125.1149  107.6438  104.7500 O   0  0  0  0  0  0  0  0  0  0  0  0
  125.6093  106.1027  106.3674 O   0  0  0  0  0  0  0  0  0  0  0  0
  124.4716  107.2669  108.6174 O   0  0  0  0  0  0  0  0  0  0  0  0
  122.7326  105.2588  107.5859 H   0  0  0  0  0  0  0  0  0  0  0  0
  123.2817  104.2609  106.2283 H   0  0  0  0  0  0  0  0  0  0  0  0
  122.8442  106.1796  104.9053 H   0  0  0  0  0  0  0  0  0  0  0  0
  125.3605  104.3080  107.3391 H   0  0  0  0  0  0  0  0  0  0  0  0
  126.0114  105.9725  109.0260 H   0  0  0  0  0  0  0  0  0  0  0  0
  124.3759  105.3758  109.4099 H   0  0  0  0  0  0  0  0  0  0  0  0
  121.8557  107.4067  107.0249 H   0  0  0  0  0  0  0  0  0  0  0  0
  122.9430  108.4873  106.1860 H   0  0  0  0  0  0  0  0  0  0  0  0
  124.5432  107.6447  109.5098 H   0  0  0  0  0  0  0  0  0  0  0  0
  1  3  1  0  0  0  0
  1  7  2  0  0  0  0
  1  8  1  0  0  0  0
  2  3  1  0  0  0  0
  2  4  1  0  0  0  0
  3  6  1  0  0  0  0
  4  5  1  0  0  0  0
  4  8  1  0  0  0  0
  5  9  1  0  0  0  0
  2 10  1  0  0  0  0
  2 11  1  0  0  0  0
  3 12  1  0  0  0  0
  4 13  1  0  0  0  0
  5 14  1  0  0  0  0
  5 15  1  0  0  0  0
  6 16  1  0  0  0  0
  6 17  1  0  0  0  0
  9 18  1  0  0  0  0
M  END
> <FRED Chemgauss4 score>
-5.606134

$$$$
C86752271	P135821318
  -OEChem-05182014473D

 27 28  0     1  0  0  0  0  0999 V2000
  121.6852  104.7448  103.9712 C   0  0  0  0  0  0  0  0  0  0  0  0
  126.7507  105.8429  108.0261 C   0  0  0  0  0  0  0  0  0  0  0  0
  125.9000  105.3736  108.9990 C   0  0  0  0  0  0  0  0  0  0  0  0
  120.5472  104.9253  103.2199 C   0  0  0  0  0  0  0  0  0  0  0  0
  120.6050  106.5792  104.6379 C   0  0  0  0  0  0  0  0  0  0  0  0
  121.7226  105.8188  104.8921 C   0  0  0  0  0  0  0  0  0  0  0  0
  124.9672  105.2906  107.0042 C   0  0  0  0  0  0  0  0  0  0  0  0
  123.5685  104.4736  108.9284 C   0  0  0  0  0  0  0  0  0  0  0  0
  123.9107  105.0256  105.9558 C   0  0  0  0  0  0  0  0  0  0  0  0
  122.7822  106.0810  105.9488 C   0  0  1  0  0  0  0  0  0  0  0  0
  126.1640  105.7889  106.7866 N   0  0  0  0  0  0  0  0  0  0  0  0
  124.7614  105.0239  108.3292 N   0  0  0  0  0  0  0  0  0  0  0  0
  123.3643  107.4202  105.7868 N   0  0  0  0  0  0  0  0  0  0  0  0
  119.8832  106.0414  103.6199 O   0  0  0  0  0  0  0  0  0  0  0  0
  122.3965  103.9381  103.8652 H   0  0  0  0  0  0  0  0  0  0  0  0
  127.7558  106.2170  108.1552 H   0  0  0  0  0  0  0  0  0  0  0  0
  126.0033  105.2630  110.0695 H   0  0  0  0  0  0  0  0  0  0  0  0
  120.0936  104.3779  102.4067 H   0  0  0  0  0  0  0  0  0  0  0  0
  120.2005  107.4841  105.0681 H   0  0  0  0  0  0  0  0  0  0  0  0
  122.9150  105.3054  109.2043 H   0  0  0  0  0  0  0  0  0  0  0  0
  123.0695  103.8174  108.2098 H   0  0  0  0  0  0  0  0  0  0  0  0
  123.8435  103.8924  109.8131 H   0  0  0  0  0  0  0  0  0  0  0  0
  123.4885  104.0305  106.1543 H   0  0  0  0  0  0  0  0  0  0  0  0
  124.3831  104.9486  104.9676 H   0  0  0  0  0  0  0  0  0  0  0  0
  122.2964  106.0758  106.9329 H   0  0  0  0  0  0  0  0  0  0  0  0
  124.2542  107.5876  106.1941 H   0  0  0  0  0  0  0  0  0  0  0  0
  122.7679  108.1451  105.4633 H   0  0  0  0  0  0  0  0  0  0  0  0
  1  4  2  0  0  0  0
  1  6  1  0  0  0  0
  2  3  2  0  0  0  0
  2 11  1  0  0  0  0
  3 12  1  0  0  0  0
  4 14  1  0  0  0  0
  5  6  2  0  0  0  0
  5 14  1  0  0  0  0
  6 10  1  0  0  0  0
  7  9  1  0  0  0  0
  7 11  2  0  0  0  0
  7 12  1  0  0  0  0
  8 12  1  0  0  0  0
  9 10  1  0  0  0  0
 10 13  1  0  0  0  0
  1 15  1  0  0  0  0
  2 16  1  0  0  0  0
  3 17  1  0  0  0  0
  4 18  1  0  0  0  0
  5 19  1  0  0  0  0
  8 20  1  0  0  0  0
  8 21  1  0  0  0  0
  8 22  1  0  0  0  0
  9 23  1  0  0  0  0
  9 24  1  0  0  0  0
 10 25  1  0  0  0  0
 13 26  1  0  0  0  0
 13 27  1  0  0  0  0
M  END
> <FRED Chemgauss4 score>
-5.604574

$$$$
C82515892	P128954846
  -OEChem-05182014473D

 28 28  0     1  0  0  0  0  0999 V2000
  118.8544  104.2977  104.8626 C   0  0  0  0  0  0  0  0  0  0  0  0
  118.6037  105.7774  105.0558 C   0  0  0  0  0  0  0  0  0  0  0  0
  119.8367  106.4106  105.6884 C   0  0  0  0  0  0  0  0  0  0  0  0
  121.0010  105.0389  103.8664 C   0  0  0  0  0  0  0  0  0  0  0  0
  121.0676  106.2700  104.7795 C   0  0  2  0  0  0  0  0  0  0  0  0
  123.9683  107.6354  106.7727 C   0  0  0  0  0  0  0  0  0  0  0  0
  122.6829  107.6052  105.9565 C   0  0  0  0  0  0  0  0  0  0  0  0
  125.1613  107.0621  106.0175 C   0  0  0  0  0  0  0  0  0  0  0  0
  120.1074  104.0079  104.3550 N   0  0  0  0  0  0  0  0  0  0  0  0
  122.2922  106.2542  105.5816 N   0  0  0  0  0  0  0  0  0  0  0  0
  118.0060  103.4482  105.1229 O   0  0  0  0  0  0  0  0  0  0  0  0
  125.3777  107.8389  104.8468 O   0  0  0  0  0  0  0  0  0  0  0  0
  118.4247  106.2049  104.0881 H   0  0  0  0  0  0  0  0  0  0  0  0
  117.7577  105.9073  105.7003 H   0  0  0  0  0  0  0  0  0  0  0  0
  119.6323  107.4733  105.8973 H   0  0  0  0  0  0  0  0  0  0  0  0
  120.0345  105.9359  106.6647 H   0  0  0  0  0  0  0  0  0  0  0  0
  120.6664  105.3184  102.8598 H   0  0  0  0  0  0  0  0  0  0  0  0
  121.9894  104.5706  103.7660 H   0  0  0  0  0  0  0  0  0  0  0  0
  121.1229  107.1899  104.1296 H   0  0  0  0  0  0  0  0  0  0  0  0
  124.1923  108.6711  107.0572 H   0  0  0  0  0  0  0  0  0  0  0  0
  123.8372  107.0876  107.7145 H   0  0  0  0  0  0  0  0  0  0  0  0
  121.8574  108.0257  106.5392 H   0  0  0  0  0  0  0  0  0  0  0  0
  122.7863  108.1909  105.0375 H   0  0  0  0  0  0  0  0  0  0  0  0
  126.0701  107.0961  106.6262 H   0  0  0  0  0  0  0  0  0  0  0  0
  124.9715  106.0267  105.7171 H   0  0  0  0  0  0  0  0  0  0  0  0
  120.4028  103.0609  104.3252 H   0  0  0  0  0  0  0  0  0  0  0  0
  122.1312  105.7035  106.4232 H   0  0  0  0  0  0  0  0  0  0  0  0
  126.1408  107.4498  104.3898 H   0  0  0  0  0  0  0  0  0  0  0  0
  1  2  1  0  0  0  0
  1  9  1  0  0  0  0
  1 11  2  0  0  0  0
  2  3  1  0  0  0  0
  3  5  1  0  0  0  0
  4  5  1  0  0  0  0
  4  9  1  0  0  0  0
  5 10  1  0  0  0  0
  6  7  1  0  0  0  0
  6  8  1  0  0  0  0
  7 10  1  0  0  0  0
  8 12  1  0  0  0  0
  2 13  1  0  0  0  0
  2 14  1  0  0  0  0
  3 15  1  0  0  0  0
  3 16  1  0  0  0  0
  4 17  1  0  0  0  0
  4 18  1  0  0  0  0
  5 19  1  0  0  0  0
  6 20  1  0  0  0  0
  6 21  1  0  0  0  0
  7 22  1  0  0  0  0
  7 23  1  0  0  0  0
  8 24  1  0  0  0  0
  8 25  1  0  0  0  0
  9 26  1  0  0  0  0
 10 27  1  0  0  0  0
 12 28  1  0  0  0  0
M  END
> <FRED Chemgauss4 score>
-5.603456

$$$$
C44509817	P128444641
  -OEChem-05182014473D

 18 17  0     0  0  0  0  0  0999 V2000
  123.6511  104.6570  107.3817 C   0  0  0  0  0  0  0  0  0  0  0  0
  124.8625  104.8355  108.1739 C   0  0  0  0  0  0  0  0  0  0  0  0
  123.9567  107.9427  107.0305 C   0  0  0  0  0  0  0  0  0  0  0  0
  122.7872  108.0977  107.9854 C   0  0  0  0  0  0  0  0  0  0  0  0
  122.6852  104.5119  106.7552 N   0  0  0  0  0  0  0  0  0  0  0  0
  125.1408  107.4718  107.7712 N   0  0  0  0  0  0  0  0  0  0  0  0
  127.2188  105.9334  107.8700 O   0  0  0  0  0  0  0  0  0  0  0  0
  125.6642  105.8065  105.8892 O   0  0  0  0  0  0  0  0  0  0  0  0
  121.6575  108.5859  107.2732 O   0  0  0  0  0  0  0  0  0  0  0  0
  125.8840  106.0060  107.3088 S   0  0  0  0  0  0  0  0  0  0  0  0
  125.4308  103.9082  108.2740 H   0  0  0  0  0  0  0  0  0  0  0  0
  124.6518  105.2461  109.1638 H   0  0  0  0  0  0  0  0  0  0  0  0
  123.7328  107.2154  106.2436 H   0  0  0  0  0  0  0  0  0  0  0  0
  124.2025  108.9044  106.5700 H   0  0  0  0  0  0  0  0  0  0  0  0
  123.0344  108.8241  108.7658 H   0  0  0  0  0  0  0  0  0  0  0  0
  122.5224  107.1450  108.4555 H   0  0  0  0  0  0  0  0  0  0  0  0
  125.1147  107.6828  108.7773 H   0  0  0  0  0  0  0  0  0  0  0  0
  120.9361  108.6701  107.9173 H   0  0  0  0  0  0  0  0  0  0  0  0
  1  2  1  0  0  0  0
  1  5  3  0  0  0  0
  2 10  1  0  0  0  0
  3  4  1  0  0  0  0
  3  6  1  0  0  0  0
  4  9  1  0  0  0  0
  6 10  1  0  0  0  0
  7 10  2  0  0  0  0
  8 10  2  0  0  0  0
  2 11  1  0  0  0  0
  2 12  1  0  0  0  0
  3 13  1  0  0  0  0
  3 14  1  0  0  0  0
  4 15  1  0  0  0  0
  4 16  1  0  0  0  0
  6 17  1  0  0  0  0
  9 18  1  0  0  0  0
M  END
> <FRED Chemgauss4 score>
-5.599905

$$$$
C93934539	P147229462
  -OEChem-05182014473D

 41 42  0     1  0  0  0  0  0999 V2000
  124.7368  106.4798  106.1778 C   0  0  0  0  0  0  0  0  0  0  0  0
  117.5852  104.2112  104.9970 C   0  0  0  0  0  0  0  0  0  0  0  0
  117.4045  105.6315  105.5232 C   0  0  0  0  0  0  0  0  0  0  0  0
  118.9423  104.0258  104.3195 C   0  0  0  0  0  0  0  0  0  0  0  0
  118.5582  106.0620  106.4252 C   0  0  0  0  0  0  0  0  0  0  0  0
  120.8477  107.7334  106.9318 C   0  0  0  0  0  0  0  0  0  0  0  0
  122.2935  106.0850  105.9380 C   0  0  0  0  0  0  0  0  0  0  0  0
  122.0046  108.1715  107.8260 C   0  0  0  0  0  0  0  0  0  0  0  0
  123.4124  106.5592  106.8622 C   0  0  2  0  0  0  0  0  0  0  0  0
  120.1213  104.4387  105.2170 C   0  0  1  0  0  0  0  0  0  0  0  0
  119.9126  105.8796  105.7316 C   0  0  2  0  0  0  0  0  0  0  0  0
  120.5734  102.0469  105.8014 C   0  0  0  0  0  0  0  0  0  0  0  0
  120.3370  103.4174  106.3424 C   0  0  0  0  0  0  0  0  0  0  0  0
  120.9935  106.3123  106.5855 N   0  0  2  0  0  0  0  0  0  0  0  0
  125.4417  105.3265  106.3852 N   0  0  0  0  0  0  0  0  0  0  0  0
  123.2541  107.9413  107.1732 O   0  0  0  0  0  0  0  0  0  0  0  0
  125.3147  107.7244  105.2255 S   0  0  0  0  0  0  0  0  0  0  0  0
  117.4839  103.4968  105.8205 H   0  0  0  0  0  0  0  0  0  0  0  0
  116.7885  103.9866  104.2787 H   0  0  0  0  0  0  0  0  0  0  0  0
  117.3237  106.3258  104.6765 H   0  0  0  0  0  0  0  0  0  0  0  0
  116.4547  105.7002  106.0707 H   0  0  0  0  0  0  0  0  0  0  0  0
  119.0522  102.9736  104.0069 H   0  0  0  0  0  0  0  0  0  0  0  0
  118.9591  104.6180  103.3896 H   0  0  0  0  0  0  0  0  0  0  0  0
  118.4310  107.1175  106.6873 H   0  0  0  0  0  0  0  0  0  0  0  0
  118.5233  105.4989  107.3624 H   0  0  0  0  0  0  0  0  0  0  0  0
  119.9037  107.9009  107.4638 H   0  0  0  0  0  0  0  0  0  0  0  0
  120.8374  108.3480  106.0214 H   0  0  0  0  0  0  0  0  0  0  0  0
  122.3390  106.6212  104.9793 H   0  0  0  0  0  0  0  0  0  0  0  0
  122.4305  105.0178  105.7219 H   0  0  0  0  0  0  0  0  0  0  0  0
  121.9303  109.2439  108.0332 H   0  0  0  0  0  0  0  0  0  0  0  0
  121.9930  107.6460  108.7887 H   0  0  0  0  0  0  0  0  0  0  0  0
  123.4635  105.9720  107.7868 H   0  0  0  0  0  0  0  0  0  0  0  0
  121.0238  104.4387  104.6022 H   0  0  0  0  0  0  0  0  0  0  0  0
  119.9235  106.5573  104.8387 H   0  0  0  0  0  0  0  0  0  0  0  0
  119.7115  101.7383  105.1982 H   0  0  0  0  0  0  0  0  0  0  0  0
  120.6973  101.3214  106.6124 H   0  0  0  0  0  0  0  0  0  0  0  0
  121.4612  102.0265  105.1606 H   0  0  0  0  0  0  0  0  0  0  0  0
  121.1930  103.7295  106.9443 H   0  0  0  0  0  0  0  0  0  0  0  0
  119.4570  103.4123  106.9890 H   0  0  0  0  0  0  0  0  0  0  0  0
  125.0700  104.5855  106.9702 H   0  0  0  0  0  0  0  0  0  0  0  0
  126.3535  105.1623  105.9707 H   0  0  0  0  0  0  0  0  0  0  0  0
  1  9  1  0  0  0  0
  1 15  1  0  0  0  0
  1 17  2  0  0  0  0
  2  3  1  0  0  0  0
  2  4  1  0  0  0  0
  3  5  1  0  0  0  0
  4 10  1  0  0  0  0
  5 11  1  0  0  0  0
  6  8  1  0  0  0  0
  6 14  1  0  0  0  0
  7  9  1  0  0  0  0
  7 14  1  0  0  0  0
  8 16  1  0  0  0  0
  9 16  1  0  0  0  0
 10 11  1  0  0  0  0
 10 13  1  0  0  0  0
 11 14  1  0  0  0  0
 12 13  1  0  0  0  0
  2 18  1  0  0  0  0
  2 19  1  0  0  0  0
  3 20  1  0  0  0  0
  3 21  1  0  0  0  0
  4 22  1  0  0  0  0
  4 23  1  0  0  0  0
  5 24  1  0  0  0  0
  5 25  1  0  0  0  0
  6 26  1  0  0  0  0
  6 27  1  0  0  0  0
  7 28  1  0  0  0  0
  7 29  1  0  0  0  0
  8 30  1  0  0  0  0
  8 31  1  0  0  0  0
  9 32  1  0  0  0  0
 10 33  1  0  0  0  0
 11 34  1  0  0  0  0
 12 35  1  0  0  0  0
 12 36  1  0  0  0  0
 12 37  1  0  0  0  0
 13 38  1  0  0  0  0
 13 39  1  0  0  0  0
 15 40  1  0  0  0  0
 15 41  1  0  0  0  0
M  END
> <FRED Chemgauss4 score>
-5.595744

$$$$
C11991515	P128707706
  -OEChem-05182014473D

 22 22  0     1  0  0  0  0  0999 V2000
  122.6367  106.4777  105.9083 C   0  0  0  0  0  0  0  0  0  0  0  0
  123.2244  105.4034  106.7609 C   0  0  0  0  0  0  0  0  0  0  0  0
  125.3050  106.1122  106.0513 C   0  0  0  0  0  0  0  0  0  0  0  0
  119.0230  104.7272  105.7397 C   0  0  0  0  0  0  0  0  0  0  0  0
  120.9372  104.8326  107.3691 C   0  0  0  0  0  0  0  0  0  0  0  0
  120.3865  104.1615  106.1133 C   0  0  1  0  0  0  0  0  0  0  0  0
  123.3628  107.2751  105.2063 N   0  0  0  0  0  0  0  0  0  0  0  0
  124.5123  105.2694  106.7949 N   0  0  0  0  0  0  0  0  0  0  0  0
  124.6955  107.0877  105.2818 N   0  0  0  0  0  0  0  0  0  0  0  0
  122.3689  104.6453  107.4384 N   0  0  0  0  0  0  0  0  0  0  0  0
  126.5334  106.0150  106.0580 O   0  0  0  0  0  0  0  0  0  0  0  0
  120.2469  102.7648  106.3671 O   0  0  0  0  0  0  0  0  0  0  0  0
  121.5382  106.5557  105.9091 H   0  0  0  0  0  0  0  0  0  0  0  0
  118.3079  104.6169  106.5606 H   0  0  0  0  0  0  0  0  0  0  0  0
  119.0973  105.7884  105.4772 H   0  0  0  0  0  0  0  0  0  0  0  0
  118.6227  104.2129  104.8592 H   0  0  0  0  0  0  0  0  0  0  0  0
  120.7258  105.9073  107.3603 H   0  0  0  0  0  0  0  0  0  0  0  0
  120.4854  104.4010  108.2682 H   0  0  0  0  0  0  0  0  0  0  0  0
  121.0819  104.2848  105.2750 H   0  0  0  0  0  0  0  0  0  0  0  0
  125.2917  107.7030  104.7381 H   0  0  0  0  0  0  0  0  0  0  0  0
  122.7508  103.9053  108.0262 H   0  0  0  0  0  0  0  0  0  0  0  0
  119.9134  102.3684  105.5477 H   0  0  0  0  0  0  0  0  0  0  0  0
  1  2  1  0  0  0  0
  1  7  2  0  0  0  0
  2  8  2  0  0  0  0
  2 10  1  0  0  0  0
  3  8  1  0  0  0  0
  3  9  1  0  0  0  0
  3 11  2  0  0  0  0
  4  6  1  0  0  0  0
  5  6  1  0  0  0  0
  5 10  1  0  0  0  0
  6 12  1  0  0  0  0
  7  9  1  0  0  0  0
  1 13  1  0  0  0  0
  4 14  1  0  0  0  0
  4 15  1  0  0  0  0
  4 16  1  0  0  0  0
  5 17  1  0  0  0  0
  5 18  1  0  0  0  0
  6 19  1  0  0  0  0
  9 20  1  0  0  0  0
 10 21  1  0  0  0  0
 12 22  1  0  0  0  0
M  END
> <FRED Chemgauss4 score>
-5.594709

$$$$
C85170154	P133262288
  -OEChem-05182014473D

 29 29  0     1  0  0  0  0  0999 V2000
  120.0892  104.0646  106.6350 C   0  0  0  0  0  0  0  0  0  0  0  0
  118.5258  103.3737  105.3665 C   0  0  0  0  0  0  0  0  0  0  0  0
  120.0186  104.9767  105.6085 C   0  0  0  0  0  0  0  0  0  0  0  0
  118.5387  105.1256  103.5816 C   0  0  0  0  0  0  0  0  0  0  0  0
  123.0599  107.0651  105.1261 C   0  0  0  0  0  0  0  0  0  0  0  0
  120.1946  107.5024  105.9353 C   0  0  0  0  0  0  0  0  0  0  0  0
  124.4868  106.8963  105.6151 C   0  0  0  0  0  0  0  0  0  0  0  0
  120.8155  106.2376  105.3221 C   0  0  1  0  0  0  0  0  0  0  0  0
  119.1576  103.0691  106.4783 N   0  0  0  0  0  0  0  0  0  0  0  0
  119.0129  104.5205  104.8037 N   0  0  0  0  0  0  0  0  0  0  0  0
  120.5275  107.6483  107.3284 N   0  0  0  0  0  0  0  0  0  0  0  0
  122.2013  106.0961  105.7849 N   0  0  0  0  0  0  0  0  0  0  0  0
  125.3295  107.8228  104.9416 O   0  0  0  0  0  0  0  0  0  0  0  0
  120.7626  104.0721  107.4800 H   0  0  0  0  0  0  0  0  0  0  0  0
  117.7170  102.8078  104.9247 H   0  0  0  0  0  0  0  0  0  0  0  0
  117.7400  105.8259  103.8398 H   0  0  0  0  0  0  0  0  0  0  0  0
  119.3634  105.6502  103.0912 H   0  0  0  0  0  0  0  0  0  0  0  0
  118.1633  104.3450  102.9140 H   0  0  0  0  0  0  0  0  0  0  0  0
  122.6800  108.0672  105.3488 H   0  0  0  0  0  0  0  0  0  0  0  0
  123.0041  106.8924  104.0471 H   0  0  0  0  0  0  0  0  0  0  0  0
  120.5720  108.3997  105.4318 H   0  0  0  0  0  0  0  0  0  0  0  0
  119.1022  107.5134  105.8573 H   0  0  0  0  0  0  0  0  0  0  0  0
  124.8441  105.8873  105.3873 H   0  0  0  0  0  0  0  0  0  0  0  0
  124.5658  107.0681  106.6935 H   0  0  0  0  0  0  0  0  0  0  0  0
  120.8579  106.3783  104.2340 H   0  0  0  0  0  0  0  0  0  0  0  0
  119.9209  108.1889  107.9229 H   0  0  0  0  0  0  0  0  0  0  0  0
  121.4485  107.3884  107.6415 H   0  0  0  0  0  0  0  0  0  0  0  0
  122.5198  105.1551  105.5720 H   0  0  0  0  0  0  0  0  0  0  0  0
  126.2276  107.6820  105.2817 H   0  0  0  0  0  0  0  0  0  0  0  0
  1  3  2  0  0  0  0
  1  9  1  0  0  0  0
  2  9  2  0  0  0  0
  2 10  1  0  0  0  0
  3  8  1  0  0  0  0
  3 10  1  0  0  0  0
  4 10  1  0  0  0  0
  5  7  1  0  0  0  0
  5 12  1  0  0  0  0
  6  8  1  0  0  0  0
  6 11  1  0  0  0  0
  7 13  1  0  0  0  0
  8 12  1  0  0  0  0
  1 14  1  0  0  0  0
  2 15  1  0  0  0  0
  4 16  1  0  0  0  0
  4 17  1  0  0  0  0
  4 18  1  0  0  0  0
  5 19  1  0  0  0  0
  5 20  1  0  0  0  0
  6 21  1  0  0  0  0
  6 22  1  0  0  0  0
  7 23  1  0  0  0  0
  7 24  1  0  0  0  0
  8 25  1  0  0  0  0
 11 26  1  0  0  0  0
 11 27  1  0  0  0  0
 12 28  1  0  0  0  0
 13 29  1  0  0  0  0
M  END
> <FRED Chemgauss4 score>
-5.593418

$$$$
C48630893	P72706708
  -OEChem-05182014473D

 28 28  0     1  0  0  0  0  0999 V2000
  122.4858  106.7972  105.3161 C   0  0  0  0  0  0  0  0  0  0  0  0
  124.3572  106.5844  106.2159 C   0  0  0  0  0  0  0  0  0  0  0  0
  120.1675  106.2154  106.0734 C   0  0  0  0  0  0  0  0  0  0  0  0
  124.2957  104.8371  108.7353 C   0  0  0  0  0  0  0  0  0  0  0  0
  126.6550  105.5059  109.1946 C   0  0  0  0  0  0  0  0  0  0  0  0
  121.1142  106.4882  104.8954 C   0  0  0  0  0  0  0  0  0  0  0  0
  125.5995  106.1413  106.9680 C   0  0  2  0  0  0  0  0  0  0  0  0
  125.3579  105.9146  108.4822 C   0  0  0  0  0  0  0  0  0  0  0  0
  123.2260  105.9339  106.0721 N   0  0  0  0  0  0  0  0  0  0  0  0
  123.0879  107.9409  104.9831 N   0  0  0  0  0  0  0  0  0  0  0  0
  124.2832  107.7795  105.5709 N   0  0  0  0  0  0  0  0  0  0  0  0
  126.6327  107.1251  106.7247 N   0  0  0  0  0  0  0  0  0  0  0  0
  120.5576  105.4081  106.7025 H   0  0  0  0  0  0  0  0  0  0  0  0
  119.1701  105.9249  105.7289 H   0  0  0  0  0  0  0  0  0  0  0  0
  120.0635  107.1085  106.6990 H   0  0  0  0  0  0  0  0  0  0  0  0
  124.5898  103.8794  108.2923 H   0  0  0  0  0  0  0  0  0  0  0  0
  124.1500  104.6808  109.8097 H   0  0  0  0  0  0  0  0  0  0  0  0
  123.3256  105.1230  108.3173 H   0  0  0  0  0  0  0  0  0  0  0  0
  127.0592  104.5763  108.7796 H   0  0  0  0  0  0  0  0  0  0  0  0
  126.4776  105.3490  110.2641 H   0  0  0  0  0  0  0  0  0  0  0  0
  127.4217  106.2818  109.1034 H   0  0  0  0  0  0  0  0  0  0  0  0
  120.6784  107.3102  104.2892 H   0  0  0  0  0  0  0  0  0  0  0  0
  121.0835  105.6070  104.2203 H   0  0  0  0  0  0  0  0  0  0  0  0
  125.9819  105.2084  106.5334 H   0  0  0  0  0  0  0  0  0  0  0  0
  125.0115  106.8475  108.9461 H   0  0  0  0  0  0  0  0  0  0  0  0
  124.9783  108.5120  105.4884 H   0  0  0  0  0  0  0  0  0  0  0  0
  126.6611  107.5842  105.8333 H   0  0  0  0  0  0  0  0  0  0  0  0
  127.4068  107.1784  107.3607 H   0  0  0  0  0  0  0  0  0  0  0  0
  1  6  1  0  0  0  0
  1  9  1  0  0  0  0
  1 10  2  0  0  0  0
  2  7  1  0  0  0  0
  2  9  2  0  0  0  0
  2 11  1  0  0  0  0
  3  6  1  0  0  0  0
  4  8  1  0  0  0  0
  5  8  1  0  0  0  0
  7  8  1  0  0  0  0
  7 12  1  0  0  0  0
 10 11  1  0  0  0  0
  3 13  1  0  0  0  0
  3 14  1  0  0  0  0
  3 15  1  0  0  0  0
  4 16  1  0  0  0  0
  4 17  1  0  0  0  0
  4 18  1  0  0  0  0
  5 19  1  0  0  0  0
  5 20  1  0  0  0  0
  5 21  1  0  0  0  0
  6 22  1  0  0  0  0
  6 23  1  0  0  0  0
  7 24  1  0  0  0  0
  8 25  1  0  0  0  0
 11 26  1  0  0  0  0
 12 27  1  0  0  0  0
 12 28  1  0  0  0  0
M  END
> <FRED Chemgauss4 score>
-5.587133

$$$$
C19504393	P28890989
  -OEChem-05182014473D

 18 17  0     0  0  0  0  0  0999 V2000
  119.6390  104.0618  106.2856 C   0  0  0  0  0  0  0  0  0  0  0  0
  123.1644  106.9785  105.7259 C   0  0  0  0  0  0  0  0  0  0  0  0
  121.0406  104.5063  106.2885 C   0  0  0  0  0  0  0  0  0  0  0  0
  124.6125  107.2945  106.0008 C   0  0  0  0  0  0  0  0  0  0  0  0
  121.1866  105.9280  106.8207 C   0  0  0  0  0  0  0  0  0  0  0  0
  118.5335  103.7090  106.2824 N   0  0  0  0  0  0  0  0  0  0  0  0
  125.2008  107.9670  104.8332 N   0  0  0  0  0  0  0  0  0  0  0  0
  122.5707  106.3436  106.8074 N   0  0  0  0  0  0  0  0  0  0  0  0
  122.5999  107.2589  104.6718 O   0  0  0  0  0  0  0  0  0  0  0  0
  121.4262  104.4699  105.2630 H   0  0  0  0  0  0  0  0  0  0  0  0
  121.6460  103.8130  106.8840 H   0  0  0  0  0  0  0  0  0  0  0  0
  124.6871  107.9530  106.8712 H   0  0  0  0  0  0  0  0  0  0  0  0
  125.1629  106.3698  106.1978 H   0  0  0  0  0  0  0  0  0  0  0  0
  120.6116  106.6156  106.1919 H   0  0  0  0  0  0  0  0  0  0  0  0
  120.7946  106.0052  107.8409 H   0  0  0  0  0  0  0  0  0  0  0  0
  126.1853  107.9141  104.7207 H   0  0  0  0  0  0  0  0  0  0  0  0
  124.6271  108.6036  104.3327 H   0  0  0  0  0  0  0  0  0  0  0  0
  123.1372  106.1617  107.6308 H   0  0  0  0  0  0  0  0  0  0  0  0
  1  3  1  0  0  0  0
  1  6  3  0  0  0  0
  2  4  1  0  0  0  0
  2  8  1  0  0  0  0
  2  9  2  0  0  0  0
  3  5  1  0  0  0  0
  4  7  1  0  0  0  0
  5  8  1  0  0  0  0
  3 10  1  0  0  0  0
  3 11  1  0  0  0  0
  4 12  1  0  0  0  0
  4 13  1  0  0  0  0
  5 14  1  0  0  0  0
  5 15  1  0  0  0  0
  7 16  1  0  0  0  0
  7 17  1  0  0  0  0
  8 18  1  0  0  0  0
M  END
> <FRED Chemgauss4 score>
-5.582278

$$$$
C83572707	P130735775
  -OEChem-05182014473D

 24 24  0     1  0  0  0  0  0999 V2000
  124.4269  107.1958  105.5536 C   0  0  0  0  0  0  0  0  0  0  0  0
  122.9568  105.6913  106.1940 C   0  0  0  0  0  0  0  0  0  0  0  0
  124.2723  106.0507  106.3577 C   0  0  0  0  0  0  0  0  0  0  0  0
  122.5943  104.9183  109.5635 C   0  0  0  0  0  0  0  0  0  0  0  0
  123.6941  104.4727  108.9461 C   0  0  0  0  0  0  0  0  0  0  0  0
  121.0621  106.6442  104.8596 C   0  0  0  0  0  0  0  0  0  0  0  0
  124.9183  105.3100  108.7022 C   0  0  0  0  0  0  0  0  0  0  0  0
  125.3243  105.3625  107.2140 C   0  0  2  0  0  0  0  0  0  0  0  0
  123.2998  107.5409  104.9256 N   0  0  0  0  0  0  0  0  0  0  0  0
  122.4243  106.6071  105.3350 N   0  0  0  0  0  0  0  0  0  0  0  0
  126.6394  105.9755  107.1131 N   0  0  0  0  0  0  0  0  0  0  0  0
  125.3131  107.7944  105.3968 H   0  0  0  0  0  0  0  0  0  0  0  0
  122.3692  104.8812  106.6044 H   0  0  0  0  0  0  0  0  0  0  0  0
  121.7325  104.2787  109.7186 H   0  0  0  0  0  0  0  0  0  0  0  0
  122.5440  105.9387  109.9272 H   0  0  0  0  0  0  0  0  0  0  0  0
  123.7182  103.4419  108.6025 H   0  0  0  0  0  0  0  0  0  0  0  0
  120.4790  107.2547  105.5541 H   0  0  0  0  0  0  0  0  0  0  0  0
  121.0383  107.0784  103.8562 H   0  0  0  0  0  0  0  0  0  0  0  0
  120.6658  105.6258  104.8185 H   0  0  0  0  0  0  0  0  0  0  0  0
  124.7794  106.3244  109.0988 H   0  0  0  0  0  0  0  0  0  0  0  0
  125.7390  104.8719  109.2860 H   0  0  0  0  0  0  0  0  0  0  0  0
  125.4435  104.3288  106.8622 H   0  0  0  0  0  0  0  0  0  0  0  0
  126.9251  106.3439  106.2287 H   0  0  0  0  0  0  0  0  0  0  0  0
  127.2892  105.8311  107.8591 H   0  0  0  0  0  0  0  0  0  0  0  0
  1  3  1  0  0  0  0
  1  9  2  0  0  0  0
  2  3  2  0  0  0  0
  2 10  1  0  0  0  0
  3  8  1  0  0  0  0
  4  5  2  0  0  0  0
  5  7  1  0  0  0  0
  6 10  1  0  0  0  0
  7  8  1  0  0  0  0
  8 11  1  0  0  0  0
  9 10  1  0  0  0  0
  1 12  1  0  0  0  0
  2 13  1  0  0  0  0
  4 14  1  0  0  0  0
  4 15  1  0  0  0  0
  5 16  1  0  0  0  0
  6 17  1  0  0  0  0
  6 18  1  0  0  0  0
  6 19  1  0  0  0  0
  7 20  1  0  0  0  0
  7 21  1  0  0  0  0
  8 22  1  0  0  0  0
 11 23  1  0  0  0  0
 11 24  1  0  0  0  0
M  END
> <FRED Chemgauss4 score>
-5.577149

$$$$
C04904580	P07155831
  -OEChem-05182014473D

 22 22  0     0  0  0  0  0  0999 V2000
  125.3885  106.6283  106.9530 C   0  0  0  0  0  0  0  0  0  0  0  0
  124.5440  107.7688  106.5463 C   0  0  0  0  0  0  0  0  0  0  0  0
  124.5923  103.8244  109.1844 C   0  0  0  0  0  0  0  0  0  0  0  0
  123.2031  104.1619  108.6607 C   0  0  0  0  0  0  0  0  0  0  0  0
  125.5055  104.4628  108.1499 C   0  0  0  0  0  0  0  0  0  0  0  0
  123.3758  105.5725  108.1142 C   0  0  0  0  0  0  0  0  0  0  0  0
  124.7732  105.6343  107.6883 N   0  0  0  0  0  0  0  0  0  0  0  0
  123.8007  109.9081  107.2374 N   0  0  0  0  0  0  0  0  0  0  0  0
  124.5489  108.7741  107.4835 N   0  0  0  0  0  0  0  0  0  0  0  0
  126.5750  106.6230  106.6262 O   0  0  0  0  0  0  0  0  0  0  0  0
  123.9435  107.7409  105.4824 O   0  0  0  0  0  0  0  0  0  0  0  0
  124.7441  104.2958  110.1628 H   0  0  0  0  0  0  0  0  0  0  0  0
  124.7610  102.7493  109.2901 H   0  0  0  0  0  0  0  0  0  0  0  0
  122.9371  103.4753  107.8479 H   0  0  0  0  0  0  0  0  0  0  0  0
  122.4278  104.0998  109.4291 H   0  0  0  0  0  0  0  0  0  0  0  0
  126.4819  104.7484  108.5521 H   0  0  0  0  0  0  0  0  0  0  0  0
  125.6579  103.8051  107.2870 H   0  0  0  0  0  0  0  0  0  0  0  0
  122.7036  105.7907  107.2794 H   0  0  0  0  0  0  0  0  0  0  0  0
  123.2319  106.3255  108.8967 H   0  0  0  0  0  0  0  0  0  0  0  0
  123.4602  110.2391  108.1394 H   0  0  0  0  0  0  0  0  0  0  0  0
  122.9761  109.6109  106.7171 H   0  0  0  0  0  0  0  0  0  0  0  0
  125.0736  108.7291  108.3517 H   0  0  0  0  0  0  0  0  0  0  0  0
  1  2  1  0  0  0  0
  1  7  1  0  0  0  0
  1 10  2  0  0  0  0
  2  9  1  0  0  0  0
  2 11  2  0  0  0  0
  3  4  1  0  0  0  0
  3  5  1  0  0  0  0
  4  6  1  0  0  0  0
  5  7  1  0  0  0  0
  6  7  1  0  0  0  0
  8  9  1  0  0  0  0
  3 12  1  0  0  0  0
  3 13  1  0  0  0  0
  4 14  1  0  0  0  0
  4 15  1  0  0  0  0
  5 16  1  0  0  0  0
  5 17  1  0  0  0  0
  6 18  1  0  0  0  0
  6 19  1  0  0  0  0
  8 20  1  0  0  0  0
  8 21  1  0  0  0  0
  9 22  1  0  0  0  0
M  END
> <FRED Chemgauss4 score>
-5.576709

$$$$
C88062048	P137749640
  -OEChem-05182014473D

 26 25  0     0  0  0  0  0  0999 V2000
  117.5255  104.1736  105.7802 C   0  0  0  0  0  0  0  0  0  0  0  0
  124.9184  107.4111  106.4633 C   0  0  0  0  0  0  0  0  0  0  0  0
  118.5504  103.2523  105.1537 C   0  0  0  0  0  0  0  0  0  0  0  0
  120.2755  104.6939  105.8385 C   0  0  0  0  0  0  0  0  0  0  0  0
  124.1398  106.1096  106.4562 C   0  0  0  0  0  0  0  0  0  0  0  0
  121.7619  104.7052  106.1377 C   0  0  0  0  0  0  0  0  0  0  0  0
  124.8994  108.0616  105.1816 N   0  0  0  0  0  0  0  0  0  0  0  0
  122.3278  106.8218  104.7119 O   0  0  0  0  0  0  0  0  0  0  0  0
  121.8310  107.1054  107.1705 O   0  0  0  0  0  0  0  0  0  0  0  0
  119.7725  103.3643  105.8701 O   0  0  0  0  0  0  0  0  0  0  0  0
  122.4311  106.3517  106.0829 S   0  0  0  0  0  0  0  0  0  0  0  0
  117.3440  103.9031  106.8241 H   0  0  0  0  0  0  0  0  0  0  0  0
  117.8647  105.2138  105.7383 H   0  0  0  0  0  0  0  0  0  0  0  0
  116.5781  104.1255  105.2330 H   0  0  0  0  0  0  0  0  0  0  0  0
  124.5160  108.1161  107.1974 H   0  0  0  0  0  0  0  0  0  0  0  0
  125.9679  107.2204  106.7074 H   0  0  0  0  0  0  0  0  0  0  0  0
  118.7273  103.5282  104.1099 H   0  0  0  0  0  0  0  0  0  0  0  0
  118.2103  102.2133  105.1972 H   0  0  0  0  0  0  0  0  0  0  0  0
  119.7304  105.2768  106.5875 H   0  0  0  0  0  0  0  0  0  0  0  0
  120.0607  105.1165  104.8523 H   0  0  0  0  0  0  0  0  0  0  0  0
  124.1735  105.6403  107.4439 H   0  0  0  0  0  0  0  0  0  0  0  0
  124.5325  105.4051  105.7168 H   0  0  0  0  0  0  0  0  0  0  0  0
  122.3264  104.1167  105.4086 H   0  0  0  0  0  0  0  0  0  0  0  0
  121.9583  104.3243  107.1437 H   0  0  0  0  0  0  0  0  0  0  0  0
  125.6573  108.6769  104.9309 H   0  0  0  0  0  0  0  0  0  0  0  0
  124.0482  108.0597  104.6416 H   0  0  0  0  0  0  0  0  0  0  0  0
  1  3  1  0  0  0  0
  2  5  1  0  0  0  0
  2  7  1  0  0  0  0
  3 10  1  0  0  0  0
  4  6  1  0  0  0  0
  4 10  1  0  0  0  0
  5 11  1  0  0  0  0
  6 11  1  0  0  0  0
  8 11  2  0  0  0  0
  9 11  2  0  0  0  0
  1 12  1  0  0  0  0
  1 13  1  0  0  0  0
  1 14  1  0  0  0  0
  2 15  1  0  0  0  0
  2 16  1  0  0  0  0
  3 17  1  0  0  0  0
  3 18  1  0  0  0  0
  4 19  1  0  0  0  0
  4 20  1  0  0  0  0
  5 21  1  0  0  0  0
  5 22  1  0  0  0  0
  6 23  1  0  0  0  0
  6 24  1  0  0  0  0
  7 25  1  0  0  0  0
  7 26  1  0  0  0  0
M  END
> <FRED Chemgauss4 score>
-5.567460

$$$$
C93934857	P147229780
  -OEChem-05182014473D

 42 42  0     1  0  0  0  0  0999 V2000
  119.7213  104.5625  101.6107 C   0  0  0  0  0  0  0  0  0  0  0  0
  120.9093  105.6203  106.7453 C   0  0  0  0  0  0  0  0  0  0  0  0
  117.6879  104.5780  105.2341 C   0  0  0  0  0  0  0  0  0  0  0  0
  119.8061  104.6651  104.0937 C   0  0  0  0  0  0  0  0  0  0  0  0
  117.0044  105.0251  103.9445 C   0  0  0  0  0  0  0  0  0  0  0  0
  119.0707  105.1172  102.8345 C   0  0  2  0  0  0  0  0  0  0  0  0
  120.2072  103.2371  106.4057 C   0  0  0  0  0  0  0  0  0  0  0  0
  127.6420  106.1726  108.1453 C   0  0  0  0  0  0  0  0  0  0  0  0
  124.0503  105.4263  107.8186 C   0  0  0  0  0  0  0  0  0  0  0  0
  122.7621  106.0436  108.3467 C   0  0  0  0  0  0  0  0  0  0  0  0
  125.2960  106.1718  108.2820 C   0  0  0  0  0  0  0  0  0  0  0  0
  119.7359  104.6795  106.5057 C   0  0  2  0  0  0  0  0  0  0  0  0
  119.0597  105.1041  105.2815 N   0  0  2  0  0  0  0  0  0  0  0  0
  119.8416  103.2008  101.5702 N   0  0  0  0  0  0  0  0  0  0  0  0
  121.5866  105.3214  107.9192 N   0  0  0  0  0  0  0  0  0  0  0  0
  121.2269  106.5104  105.9591 O   0  0  0  0  0  0  0  0  0  0  0  0
  117.7485  104.5850  102.8076 O   0  0  0  0  0  0  0  0  0  0  0  0
  126.4412  105.5368  107.7290 O   0  0  0  0  0  0  0  0  0  0  0  0
  120.2677  105.5475  100.3774 S   0  0  0  0  0  0  0  0  0  0  0  0
  117.1096  104.9466  106.0891 H   0  0  0  0  0  0  0  0  0  0  0  0
  117.6997  103.4812  105.2789 H   0  0  0  0  0  0  0  0  0  0  0  0
  119.9159  103.5718  104.0979 H   0  0  0  0  0  0  0  0  0  0  0  0
  120.8150  105.0957  104.0974 H   0  0  0  0  0  0  0  0  0  0  0  0
  116.0051  104.5829  103.8796 H   0  0  0  0  0  0  0  0  0  0  0  0
  116.8880  106.1151  103.9056 H   0  0  0  0  0  0  0  0  0  0  0  0
  119.0353  106.2093  102.7443 H   0  0  0  0  0  0  0  0  0  0  0  0
  120.9344  103.1125  105.5951 H   0  0  0  0  0  0  0  0  0  0  0  0
  120.6882  102.9117  107.3340 H   0  0  0  0  0  0  0  0  0  0  0  0
  119.3660  102.5653  106.2038 H   0  0  0  0  0  0  0  0  0  0  0  0
  128.4993  105.6596  107.7025 H   0  0  0  0  0  0  0  0  0  0  0  0
  127.7108  106.1450  109.2357 H   0  0  0  0  0  0  0  0  0  0  0  0
  127.6289  107.2121  107.8092 H   0  0  0  0  0  0  0  0  0  0  0  0
  124.1155  104.3833  108.1528 H   0  0  0  0  0  0  0  0  0  0  0  0
  124.0359  105.3892  106.7220 H   0  0  0  0  0  0  0  0  0  0  0  0
  122.7616  106.0344  109.4410 H   0  0  0  0  0  0  0  0  0  0  0  0
  122.6572  107.0810  108.0132 H   0  0  0  0  0  0  0  0  0  0  0  0
  125.2834  107.2131  107.9458 H   0  0  0  0  0  0  0  0  0  0  0  0
  125.3799  106.1501  109.3732 H   0  0  0  0  0  0  0  0  0  0  0  0
  119.0108  104.7844  107.3202 H   0  0  0  0  0  0  0  0  0  0  0  0
  119.5038  102.6240  102.3334 H   0  0  0  0  0  0  0  0  0  0  0  0
  120.2673  102.7137  100.7881 H   0  0  0  0  0  0  0  0  0  0  0  0
  121.2297  104.5928  108.5304 H   0  0  0  0  0  0  0  0  0  0  0  0
  1  6  1  0  0  0  0
  1 14  1  0  0  0  0
  1 19  2  0  0  0  0
  2 12  1  0  0  0  0
  2 15  1  0  0  0  0
  2 16  2  0  0  0  0
  3  5  1  0  0  0  0
  3 13  1  0  0  0  0
  4  6  1  0  0  0  0
  4 13  1  0  0  0  0
  5 17  1  0  0  0  0
  6 17  1  0  0  0  0
  7 12  1  0  0  0  0
  8 18  1  0  0  0  0
  9 10  1  0  0  0  0
  9 11  1  0  0  0  0
 10 15  1  0  0  0  0
 11 18  1  0  0  0  0
 12 13  1  0  0  0  0
  3 20  1  0  0  0  0
  3 21  1  0  0  0  0
  4 22  1  0  0  0  0
  4 23  1  0  0  0  0
  5 24  1  0  0  0  0
  5 25  1  0  0  0  0
  6 26  1  0  0  0  0
  7 27  1  0  0  0  0
  7 28  1  0  0  0  0
  7 29  1  0  0  0  0
  8 30  1  0  0  0  0
  8 31  1  0  0  0  0
  8 32  1  0  0  0  0
  9 33  1  0  0  0  0
  9 34  1  0  0  0  0
 10 35  1  0  0  0  0
 10 36  1  0  0  0  0
 11 37  1  0  0  0  0
 11 38  1  0  0  0  0
 12 39  1  0  0  0  0
 14 40  1  0  0  0  0
 14 41  1  0  0  0  0
 15 42  1  0  0  0  0
M  END
> <FRED Chemgauss4 score>
-5.566366

$$$$
C39088366	P59222491
  -OEChem-05182014473D

 22 22  0     1  0  0  0  0  0999 V2000
  125.1470  107.1598  108.0452 C   0  0  0  0  0  0  0  0  0  0  0  0
  125.3729  104.3727  107.2447 C   0  0  0  0  0  0  0  0  0  0  0  0
  124.9470  104.7236  108.6708 C   0  0  2  0  0  0  0  0  0  0  0  0
  124.3043  106.1028  108.7518 C   0  0  2  0  0  0  0  0  0  0  0  0
  125.5788  106.7407  106.6314 C   0  0  2  0  0  0  0  0  0  0  0  0
  124.4461  106.8437  105.6060 C   0  0  0  0  0  0  0  0  0  0  0  0
  126.2041  105.4134  106.6362 N   0  0  0  0  0  0  0  0  0  0  0  0
  126.0882  104.6635  109.5224 O   0  0  0  0  0  0  0  0  0  0  0  0
  124.0005  108.1864  105.5629 O   0  0  0  0  0  0  0  0  0  0  0  0
  123.0780  106.0465  108.1649 F   0  0  0  0  0  0  0  0  0  0  0  0
  124.5780  108.1072  108.0089 H   0  0  0  0  0  0  0  0  0  0  0  0
  126.0329  107.3858  108.6642 H   0  0  0  0  0  0  0  0  0  0  0  0
  125.8992  103.4062  107.2277 H   0  0  0  0  0  0  0  0  0  0  0  0
  124.4752  104.2238  106.6285 H   0  0  0  0  0  0  0  0  0  0  0  0
  124.2308  103.9596  109.0440 H   0  0  0  0  0  0  0  0  0  0  0  0
  124.1336  106.3853  109.8052 H   0  0  0  0  0  0  0  0  0  0  0  0
  126.3769  107.4827  106.2971 H   0  0  0  0  0  0  0  0  0  0  0  0
  123.6198  106.1979  105.9011 H   0  0  0  0  0  0  0  0  0  0  0  0
  124.8099  106.5517  104.6216 H   0  0  0  0  0  0  0  0  0  0  0  0
  127.1015  105.4595  107.1368 H   0  0  0  0  0  0  0  0  0  0  0  0
  125.7805  104.8909  110.4137 H   0  0  0  0  0  0  0  0  0  0  0  0
  123.2833  108.2289  104.9074 H   0  0  0  0  0  0  0  0  0  0  0  0
  1  4  1  0  0  0  0
  1  5  1  0  0  0  0
  2  3  1  0  0  0  0
  2  7  1  0  0  0  0
  3  4  1  0  0  0  0
  3  8  1  0  0  0  0
  4 10  1  0  0  0  0
  5  6  1  0  0  0  0
  5  7  1  0  0  0  0
  6  9  1  0  0  0  0
  1 11  1  0  0  0  0
  1 12  1  0  0  0  0
  2 13  1  0  0  0  0
  2 14  1  0  0  0  0
  3 15  1  0  0  0  0
  4 16  1  0  0  0  0
  5 17  1  0  0  0  0
  6 18  1  0  0  0  0
  6 19  1  0  0  0  0
  7 20  1  0  0  0  0
  8 21  1  0  0  0  0
  9 22  1  0  0  0  0
M  END
> <FRED Chemgauss4 score>
-5.553508

$$$$
C04963500	P110855107
  -OEChem-05182014473D

 20 21  0     1  0  0  0  0  0999 V2000
  125.9793  105.4049  108.6501 C   0  0  0  0  0  0  0  0  0  0  0  0
  121.9422  106.5856  105.2334 C   0  0  0  0  0  0  0  0  0  0  0  0
  125.9596  105.8429  107.2124 C   0  0  2  0  0  0  0  0  0  0  0  0
  123.3024  106.1916  105.7375 C   0  0  1  0  0  0  0  0  0  0  0  0
  125.3844  107.1950  106.8066 C   0  0  2  0  0  0  0  0  0  0  0  0
  124.5092  107.1034  105.5488 C   0  0  2  0  0  0  0  0  0  0  0  0
  124.9965  104.9159  107.7238 O   0  0  0  0  0  0  0  0  0  0  0  0
  122.2995  106.7070  106.6191 O   0  0  0  0  0  0  0  0  0  0  0  0
  126.4636  108.0973  106.5714 O   0  0  0  0  0  0  0  0  0  0  0  0
  124.0418  108.3975  105.1731 O   0  0  0  0  0  0  0  0  0  0  0  0
  126.7540  104.7171  108.9632 H   0  0  0  0  0  0  0  0  0  0  0  0
  125.6476  106.0977  109.4122 H   0  0  0  0  0  0  0  0  0  0  0  0
  121.8410  107.4982  104.6608 H   0  0  0  0  0  0  0  0  0  0  0  0
  121.2501  105.7982  104.9647 H   0  0  0  0  0  0  0  0  0  0  0  0
  126.7194  105.4725  106.5390 H   0  0  0  0  0  0  0  0  0  0  0  0
  123.5546  105.1430  105.8061 H   0  0  0  0  0  0  0  0  0  0  0  0
  124.7883  107.5998  107.6325 H   0  0  0  0  0  0  0  0  0  0  0  0
  125.1119  106.7256  104.7154 H   0  0  0  0  0  0  0  0  0  0  0  0
  126.9943  107.7115  105.8578 H   0  0  0  0  0  0  0  0  0  0  0  0
  123.4747  108.7058  105.8964 H   0  0  0  0  0  0  0  0  0  0  0  0
  1  3  1  0  0  0  0
  1  7  1  0  0  0  0
  2  4  1  0  0  0  0
  2  8  1  0  0  0  0
  3  5  1  0  0  0  0
  3  7  1  0  0  0  0
  4  6  1  0  0  0  0
  4  8  1  0  0  0  0
  5  6  1  0  0  0  0
  5  9  1  0  0  0  0
  6 10  1  0  0  0  0
  1 11  1  0  0  0  0
  1 12  1  0  0  0  0
  2 13  1  0  0  0  0
  2 14  1  0  0  0  0
  3 15  1  0  0  0  0
  4 16  1  0  0  0  0
  5 17  1  0  0  0  0
  6 18  1  0  0  0  0
  9 19  1  0  0  0  0
 10 20  1  0  0  0  0
M  END
> <FRED Chemgauss4 score>
-5.553012

$$$$
C83267836	P130159078
  -OEChem-05182014473D

 19 19  0     1  0  0  0  0  0999 V2000
  123.4836  106.6482  105.5331 C   0  0  0  0  0  0  0  0  0  0  0  0
  121.5802  106.3185  104.7927 C   0  0  0  0  0  0  0  0  0  0  0  0
  125.0694  107.7459  107.1678 C   0  0  0  0  0  0  0  0  0  0  0  0
  120.2821  105.5565  102.9516 C   0  0  0  0  0  0  0  0  0  0  0  0
  124.8496  107.2681  105.7339 C   0  0  2  0  0  0  0  0  0  0  0  0
  122.5854  107.1417  104.6322 N   0  0  0  0  0  0  0  0  0  0  0  0
  123.0829  105.5784  106.2265 N   0  0  0  0  0  0  0  0  0  0  0  0
  125.0796  108.3449  104.7982 N   0  0  0  0  0  0  0  0  0  0  0  0
  121.7941  105.3544  105.7261 O   0  0  0  0  0  0  0  0  0  0  0  0
  120.4152  106.3166  104.1751 O   0  0  0  0  0  0  0  0  0  0  0  0
  124.3258  108.4988  107.4512 H   0  0  0  0  0  0  0  0  0  0  0  0
  124.9875  106.9075  107.8687 H   0  0  0  0  0  0  0  0  0  0  0  0
  126.0640  108.1846  107.3059 H   0  0  0  0  0  0  0  0  0  0  0  0
  119.2639  105.6576  102.5679 H   0  0  0  0  0  0  0  0  0  0  0  0
  120.5058  104.5050  103.1486 H   0  0  0  0  0  0  0  0  0  0  0  0
  120.9875  105.9449  102.2132 H   0  0  0  0  0  0  0  0  0  0  0  0
  125.6202  106.5201  105.5103 H   0  0  0  0  0  0  0  0  0  0  0  0
  124.6984  108.2716  103.8721 H   0  0  0  0  0  0  0  0  0  0  0  0
  125.7737  109.0369  105.0173 H   0  0  0  0  0  0  0  0  0  0  0  0
  1  5  1  0  0  0  0
  1  6  1  0  0  0  0
  1  7  2  0  0  0  0
  2  6  2  0  0  0  0
  2  9  1  0  0  0  0
  2 10  1  0  0  0  0
  3  5  1  0  0  0  0
  4 10  1  0  0  0  0
  5  8  1  0  0  0  0
  7  9  1  0  0  0  0
  3 11  1  0  0  0  0
  3 12  1  0  0  0  0
  3 13  1  0  0  0  0
  4 14  1  0  0  0  0
  4 15  1  0  0  0  0
  4 16  1  0  0  0  0
  5 17  1  0  0  0  0
  8 18  1  0  0  0  0
  8 19  1  0  0  0  0
M  END
> <FRED Chemgauss4 score>
-5.550375

$$$$
C42040499	P63626359
  -OEChem-05182014473D

 17 17  0     1  0  0  0  0  0999 V2000
  123.8658  107.4770  107.4445 C   0  0  0  0  0  0  0  0  0  0  0  0
  122.5643  108.5293  108.8264 C   0  0  0  0  0  0  0  0  0  0  0  0
  125.2285  105.5019  106.8028 C   0  0  0  0  0  0  0  0  0  0  0  0
  125.1396  107.0172  106.8285 C   0  0  1  0  0  0  0  0  0  0  0  0
  122.6803  107.1406  107.0293 N   0  0  0  0  0  0  0  0  0  0  0  0
  123.8853  108.3021  108.5110 N   0  0  0  0  0  0  0  0  0  0  0  0
  121.8364  107.7908  107.8840 N   0  0  0  0  0  0  0  0  0  0  0  0
  125.1374  107.5753  105.5042 N   0  0  0  0  0  0  0  0  0  0  0  0
  122.1179  109.2215  109.7284 O   0  0  0  0  0  0  0  0  0  0  0  0
  124.3857  105.0599  106.2589 H   0  0  0  0  0  0  0  0  0  0  0  0
  126.1496  105.1707  106.3117 H   0  0  0  0  0  0  0  0  0  0  0  0
  125.2150  105.0957  107.8196 H   0  0  0  0  0  0  0  0  0  0  0  0
  125.9855  107.4497  107.3739 H   0  0  0  0  0  0  0  0  0  0  0  0
  124.7006  108.6762  108.9813 H   0  0  0  0  0  0  0  0  0  0  0  0
  120.8263  107.7455  107.8425 H   0  0  0  0  0  0  0  0  0  0  0  0
  125.7314  107.1695  104.7980 H   0  0  0  0  0  0  0  0  0  0  0  0
  124.7084  108.4745  105.3497 H   0  0  0  0  0  0  0  0  0  0  0  0
  1  4  1  0  0  0  0
  1  5  2  0  0  0  0
  1  6  1  0  0  0  0
  2  6  1  0  0  0  0
  2  7  1  0  0  0  0
  2  9  2  0  0  0  0
  3  4  1  0  0  0  0
  4  8  1  0  0  0  0
  5  7  1  0  0  0  0
  3 10  1  0  0  0  0
  3 11  1  0  0  0  0
  3 12  1  0  0  0  0
  4 13  1  0  0  0  0
  6 14  1  0  0  0  0
  7 15  1  0  0  0  0
  8 16  1  0  0  0  0
  8 17  1  0  0  0  0
M  END
> <FRED Chemgauss4 score>
-5.547624

$$$$
C36746501	P54604745
  -OEChem-05182014473D

 22 22  0     0  0  0  0  0  0999 V2000
  124.2613  104.5556  108.8218 C   0  0  0  0  0  0  0  0  0  0  0  0
  125.4942  105.9649  107.7458 C   0  0  0  0  0  0  0  0  0  0  0  0
  121.3326  105.8572  105.8278 C   0  0  0  0  0  0  0  0  0  0  0  0
  120.0746  105.8346  106.6310 C   0  0  0  0  0  0  0  0  0  0  0  0
  124.5232  104.0339  106.3892 C   0  0  0  0  0  0  0  0  0  0  0  0
  123.4902  104.6726  105.4761 C   0  0  0  0  0  0  0  0  0  0  0  0
  124.5983  105.3953  109.7474 N   0  0  0  0  0  0  0  0  0  0  0  0
  125.3821  106.3035  109.0957 N   0  0  0  0  0  0  0  0  0  0  0  0
  124.7524  104.8176  107.5899 N   0  0  0  0  0  0  0  0  0  0  0  0
  122.2209  104.8376  106.1312 N   0  0  0  0  0  0  0  0  0  0  0  0
  121.4968  106.7332  104.9868 O   0  0  0  0  0  0  0  0  0  0  0  0
  126.3648  106.8248  106.6239 S   0  0  0  0  0  0  0  0  0  0  0  0
  123.6250  103.6716  108.9565 H   0  0  0  0  0  0  0  0  0  0  0  0
  120.1588  106.4198  107.5609 H   0  0  0  0  0  0  0  0  0  0  0  0
  119.2212  106.2719  106.0882 H   0  0  0  0  0  0  0  0  0  0  0  0
  119.7352  104.8353  106.9473 H   0  0  0  0  0  0  0  0  0  0  0  0
  125.4875  103.9205  105.8837 H   0  0  0  0  0  0  0  0  0  0  0  0
  124.1804  103.0457  106.7114 H   0  0  0  0  0  0  0  0  0  0  0  0
  123.8231  105.6676  105.1651 H   0  0  0  0  0  0  0  0  0  0  0  0
  123.3216  104.0671  104.5797 H   0  0  0  0  0  0  0  0  0  0  0  0
  125.7898  107.0864  109.5906 H   0  0  0  0  0  0  0  0  0  0  0  0
  121.9611  104.1703  106.8562 H   0  0  0  0  0  0  0  0  0  0  0  0
  1  7  2  0  0  0  0
  1  9  1  0  0  0  0
  2  8  1  0  0  0  0
  2  9  1  0  0  0  0
  2 12  2  0  0  0  0
  3  4  1  0  0  0  0
  3 10  1  0  0  0  0
  3 11  2  0  0  0  0
  5  6  1  0  0  0  0
  5  9  1  0  0  0  0
  6 10  1  0  0  0  0
  7  8  1  0  0  0  0
  1 13  1  0  0  0  0
  4 14  1  0  0  0  0
  4 15  1  0  0  0  0
  4 16  1  0  0  0  0
  5 17  1  0  0  0  0
  5 18  1  0  0  0  0
  6 19  1  0  0  0  0
  6 20  1  0  0  0  0
  8 21  1  0  0  0  0
 10 22  1  0  0  0  0
M  END
> <FRED Chemgauss4 score>
-5.546175

$$$$
C82576096	P129060985
  -OEChem-05182014473D

 23 23  0     1  0  0  0  0  0999 V2000
  122.6842  105.5148  106.4989 C   0  0  0  0  0  0  0  0  0  0  0  0
  124.9441  103.0932  106.5017 C   0  0  0  0  0  0  0  0  0  0  0  0
  120.4446  104.3351  106.5718 C   0  0  0  0  0  0  0  0  0  0  0  0
  125.5017  105.5568  106.8544 C   0  0  0  0  0  0  0  0  0  0  0  0
  124.7152  104.3409  107.3491 C   0  0  1  0  0  0  0  0  0  0  0  0
  123.1514  106.5660  105.8657 N   0  0  0  0  0  0  0  0  0  0  0  0
  122.1025  107.0417  105.1117 N   0  0  0  0  0  0  0  0  0  0  0  0
  121.0172  106.2961  105.2801 N   0  0  0  0  0  0  0  0  0  0  0  0
  121.3833  105.3424  106.1477 N   0  0  0  0  0  0  0  0  0  0  0  0
  126.8849  105.5050  107.2697 N   0  0  0  0  0  0  0  0  0  0  0  0
  123.3006  104.6513  107.3862 N   0  0  0  0  0  0  0  0  0  0  0  0
  124.6409  103.2447  105.4600 H   0  0  0  0  0  0  0  0  0  0  0  0
  126.0062  102.8242  106.4932 H   0  0  0  0  0  0  0  0  0  0  0  0
  124.3837  102.2420  106.9020 H   0  0  0  0  0  0  0  0  0  0  0  0
  119.9307  104.7065  107.4624 H   0  0  0  0  0  0  0  0  0  0  0  0
  119.7276  104.1443  105.7684 H   0  0  0  0  0  0  0  0  0  0  0  0
  120.9837  103.4109  106.7977 H   0  0  0  0  0  0  0  0  0  0  0  0
  125.0540  106.4779  107.2445 H   0  0  0  0  0  0  0  0  0  0  0  0
  125.4599  105.6117  105.7612 H   0  0  0  0  0  0  0  0  0  0  0  0
  125.0383  104.1194  108.3731 H   0  0  0  0  0  0  0  0  0  0  0  0
  127.1029  105.1553  108.1854 H   0  0  0  0  0  0  0  0  0  0  0  0
  127.5715  105.9999  106.7291 H   0  0  0  0  0  0  0  0  0  0  0  0
  122.7383  104.2086  108.1012 H   0  0  0  0  0  0  0  0  0  0  0  0
  1  6  2  0  0  0  0
  1  9  1  0  0  0  0
  1 11  1  0  0  0  0
  2  5  1  0  0  0  0
  3  9  1  0  0  0  0
  4  5  1  0  0  0  0
  4 10  1  0  0  0  0
  5 11  1  0  0  0  0
  6  7  1  0  0  0  0
  7  8  2  0  0  0  0
  8  9  1  0  0  0  0
  2 12  1  0  0  0  0
  2 13  1  0  0  0  0
  2 14  1  0  0  0  0
  3 15  1  0  0  0  0
  3 16  1  0  0  0  0
  3 17  1  0  0  0  0
  4 18  1  0  0  0  0
  4 19  1  0  0  0  0
  5 20  1  0  0  0  0
 10 21  1  0  0  0  0
 10 22  1  0  0  0  0
 11 23  1  0  0  0  0
M  END
> <FRED Chemgauss4 score>
-5.545782

$$$$
C85281249	P133458567
  -OEChem-05182014473D

 30 31  0     1  0  0  0  0  0999 V2000
  122.0576  105.1832  105.8579 C   0  0  0  0  0  0  0  0  0  0  0  0
  126.4866  103.5521  108.7721 C   0  0  0  0  0  0  0  0  0  0  0  0
  125.3644  103.2065  109.7980 C   0  0  0  0  0  0  0  0  0  0  0  0
  125.6775  104.0207  107.5730 C   0  0  2  0  0  0  0  0  0  0  0  0
  125.4956  105.0889  106.4582 C   0  0  1  0  0  0  0  0  0  0  0  0
  124.1461  105.4705  107.1814 C   0  0  2  0  0  0  0  0  0  0  0  0
  124.8093  104.9732  108.4624 C   0  0  1  0  0  0  0  0  0  0  0  0
  120.4946  104.5757  103.3222 C   0  0  0  0  0  0  0  0  0  0  0  0
  120.9724  104.1634  105.5859 C   0  0  0  0  0  0  0  0  0  0  0  0
  126.4961  106.1482  106.5844 N   0  0  0  0  0  0  0  0  0  0  0  0
  122.9889  104.6913  106.7450 N   0  0  0  0  0  0  0  0  0  0  0  0
  122.0708  106.2943  105.3350 O   0  0  0  0  0  0  0  0  0  0  0  0
  124.2884  104.1347  109.5002 O   0  0  0  0  0  0  0  0  0  0  0  0
  120.0301  104.6714  104.6656 O   0  0  0  0  0  0  0  0  0  0  0  0
  127.1399  104.3434  109.1599 H   0  0  0  0  0  0  0  0  0  0  0  0
  127.1071  102.6781  108.5540 H   0  0  0  0  0  0  0  0  0  0  0  0
  124.9831  102.1923  109.6457 H   0  0  0  0  0  0  0  0  0  0  0  0
  125.6974  103.3345  110.8312 H   0  0  0  0  0  0  0  0  0  0  0  0
  125.1528  103.1119  107.2234 H   0  0  0  0  0  0  0  0  0  0  0  0
  125.3927  104.6989  105.4415 H   0  0  0  0  0  0  0  0  0  0  0  0
  123.9042  106.5387  107.1750 H   0  0  0  0  0  0  0  0  0  0  0  0
  125.3447  105.8047  108.9484 H   0  0  0  0  0  0  0  0  0  0  0  0
  119.7378  104.9784  102.6446 H   0  0  0  0  0  0  0  0  0  0  0  0
  120.6968  103.5294  103.0793 H   0  0  0  0  0  0  0  0  0  0  0  0
  121.4153  105.1553  103.2222 H   0  0  0  0  0  0  0  0  0  0  0  0
  121.4230  103.2620  105.1595 H   0  0  0  0  0  0  0  0  0  0  0  0
  120.4612  103.9013  106.5175 H   0  0  0  0  0  0  0  0  0  0  0  0
  126.2226  107.0783  106.3565 H   0  0  0  0  0  0  0  0  0  0  0  0
  127.4492  105.8797  106.6921 H   0  0  0  0  0  0  0  0  0  0  0  0
  122.8680  103.7583  107.1072 H   0  0  0  0  0  0  0  0  0  0  0  0
  1  9  1  0  0  0  0
  1 11  1  0  0  0  0
  1 12  2  0  0  0  0
  2  3  1  0  0  0  0
  2  4  1  0  0  0  0
  3 13  1  0  0  0  0
  4  5  1  0  0  0  0
  4  7  1  0  0  0  0
  5  6  1  0  0  0  0
  5 10  1  0  0  0  0
  6  7  1  0  0  0  0
  6 11  1  0  0  0  0
  7 13  1  0  0  0  0
  8 14  1  0  0  0  0
  9 14  1  0  0  0  0
  2 15  1  0  0  0  0
  2 16  1  0  0  0  0
  3 17  1  0  0  0  0
  3 18  1  0  0  0  0
  4 19  1  0  0  0  0
  5 20  1  0  0  0  0
  6 21  1  0  0  0  0
  7 22  1  0  0  0  0
  8 23  1  0  0  0  0
  8 24  1  0  0  0  0
  8 25  1  0  0  0  0
  9 26  1  0  0  0  0
  9 27  1  0  0  0  0
 10 28  1  0  0  0  0
 10 29  1  0  0  0  0
 11 30  1  0  0  0  0
M  END
> <FRED Chemgauss4 score>
-5.544415

$$$$
C83746311	P131018920
  -OEChem-05182014473D

 26 27  0     1  0  0  0  0  0999 V2000
  123.3579  106.2564  105.6585 C   0  0  0  0  0  0  0  0  0  0  0  0
  121.5081  105.1266  105.2888 C   0  0  0  0  0  0  0  0  0  0  0  0
  126.7206  106.1366  108.4392 C   0  0  0  0  0  0  0  0  0  0  0  0
  122.7306  105.0207  105.9059 C   0  0  0  0  0  0  0  0  0  0  0  0
  125.5322  104.6633  107.5594 C   0  0  0  0  0  0  0  0  0  0  0  0
  120.3925  106.9438  103.9728 C   0  0  0  0  0  0  0  0  0  0  0  0
  123.2781  103.8399  106.6749 C   0  0  0  0  0  0  0  0  0  0  0  0
  124.8172  103.7263  106.6009 C   0  0  2  0  0  0  0  0  0  0  0  0
  122.5969  107.0863  104.9401 N   0  0  0  0  0  0  0  0  0  0  0  0
  126.3824  105.6067  107.2270 N   0  0  0  0  0  0  0  0  0  0  0  0
  125.3784  104.6411  108.9105 N   0  0  0  0  0  0  0  0  0  0  0  0
  126.1331  105.5804  109.5007 N   0  0  0  0  0  0  0  0  0  0  0  0
  121.4788  106.3708  104.7308 N   0  0  0  0  0  0  0  0  0  0  0  0
  125.2270  102.3340  106.8292 N   0  0  0  0  0  0  0  0  0  0  0  0
  124.3382  106.5887  105.9699 H   0  0  0  0  0  0  0  0  0  0  0  0
  120.6777  104.4393  105.2004 H   0  0  0  0  0  0  0  0  0  0  0  0
  127.4208  106.9561  108.5348 H   0  0  0  0  0  0  0  0  0  0  0  0
  119.7297  107.4610  104.6715 H   0  0  0  0  0  0  0  0  0  0  0  0
  120.7931  107.6452  103.2356 H   0  0  0  0  0  0  0  0  0  0  0  0
  119.8544  106.1463  103.4528 H   0  0  0  0  0  0  0  0  0  0  0  0
  122.8173  102.9319  106.2611 H   0  0  0  0  0  0  0  0  0  0  0  0
  122.9372  103.8889  107.7175 H   0  0  0  0  0  0  0  0  0  0  0  0
  125.1327  103.9721  105.5788 H   0  0  0  0  0  0  0  0  0  0  0  0
  126.1559  105.7223  110.5068 H   0  0  0  0  0  0  0  0  0  0  0  0
  126.1651  102.1705  107.1102 H   0  0  0  0  0  0  0  0  0  0  0  0
  124.6235  101.6171  106.5012 H   0  0  0  0  0  0  0  0  0  0  0  0
  1  4  1  0  0  0  0
  1  9  2  0  0  0  0
  2  4  2  0  0  0  0
  2 13  1  0  0  0  0
  3 10  2  0  0  0  0
  3 12  1  0  0  0  0
  4  7  1  0  0  0  0
  5  8  1  0  0  0  0
  5 10  1  0  0  0  0
  5 11  2  0  0  0  0
  6 13  1  0  0  0  0
  7  8  1  0  0  0  0
  8 14  1  0  0  0  0
  9 13  1  0  0  0  0
 11 12  1  0  0  0  0
  1 15  1  0  0  0  0
  2 16  1  0  0  0  0
  3 17  1  0  0  0  0
  6 18  1  0  0  0  0
  6 19  1  0  0  0  0
  6 20  1  0  0  0  0
  7 21  1  0  0  0  0
  7 22  1  0  0  0  0
  8 23  1  0  0  0  0
 12 24  1  0  0  0  0
 14 25  1  0  0  0  0
 14 26  1  0  0  0  0
M  END
> <FRED Chemgauss4 score>
-5.540710

$$$$
C84405759	P132074113
  -OEChem-05182014473D

 18 18  0     1  0  0  0  0  0999 V2000
  120.7321  104.3398  106.1032 C   0  0  0  0  0  0  0  0  0  0  0  0
  125.3705  105.8828  106.8280 C   0  0  0  0  0  0  0  0  0  0  0  0
  123.1777  106.7295  105.9598 C   0  0  0  0  0  0  0  0  0  0  0  0
  124.6364  104.9987  107.8054 C   0  0  0  0  0  0  0  0  0  0  0  0
  123.3019  105.6014  108.2099 C   0  0  0  0  0  0  0  0  0  0  0  0
  122.4438  105.9127  106.9952 C   0  0  2  0  0  0  0  0  0  0  0  0
  119.6229  104.0520  105.9221 N   0  0  0  0  0  0  0  0  0  0  0  0
  124.5661  106.6475  105.9903 N   0  0  0  0  0  0  0  0  0  0  0  0
  122.0193  104.6721  106.3116 N   0  0  0  0  0  0  0  0  0  0  0  0
  126.5986  105.8721  106.7495 O   0  0  0  0  0  0  0  0  0  0  0  0
  122.5714  107.3878  105.1135 O   0  0  0  0  0  0  0  0  0  0  0  0
  124.4700  104.0222  107.3353 H   0  0  0  0  0  0  0  0  0  0  0  0
  125.2791  104.8492  108.6815 H   0  0  0  0  0  0  0  0  0  0  0  0
  122.7704  104.9022  108.8837 H   0  0  0  0  0  0  0  0  0  0  0  0
  123.4729  106.5174  108.8037 H   0  0  0  0  0  0  0  0  0  0  0  0
  121.5371  106.4761  107.2821 H   0  0  0  0  0  0  0  0  0  0  0  0
  125.0586  107.2227  105.3102 H   0  0  0  0  0  0  0  0  0  0  0  0
  122.7532  104.2972  105.6947 H   0  0  0  0  0  0  0  0  0  0  0  0
  1  7  3  0  0  0  0
  1  9  1  0  0  0  0
  2  4  1  0  0  0  0
  2  8  1  0  0  0  0
  2 10  2  0  0  0  0
  3  6  1  0  0  0  0
  3  8  1  0  0  0  0
  3 11  2  0  0  0  0
  4  5  1  0  0  0  0
  5  6  1  0  0  0  0
  6  9  1  0  0  0  0
  4 12  1  0  0  0  0
  4 13  1  0  0  0  0
  5 14  1  0  0  0  0
  5 15  1  0  0  0  0
  6 16  1  0  0  0  0
  8 17  1  0  0  0  0
  9 18  1  0  0  0  0
M  END
> <FRED Chemgauss4 score>
-5.530736

$$$$
C87045598	P136260956
  -OEChem-05182014473D

 28 28  0     1  0  0  0  0  0999 V2000
  120.1970  105.2921  103.3651 C   0  0  0  0  0  0  0  0  0  0  0  0
  121.0874  104.1837  105.4285 C   0  0  0  0  0  0  0  0  0  0  0  0
  122.1958  104.6753  106.3268 C   0  0  0  0  0  0  0  0  0  0  0  0
  120.5877  105.4699  104.7957 C   0  0  1  0  0  0  0  0  0  0  0  0
  122.7820  105.8012  105.4964 C   0  0  2  0  0  0  0  0  0  0  0  0
  118.3313  104.8492  101.7622 C   0  0  0  0  0  0  0  0  0  0  0  0
  117.8549  104.9559  104.1790 C   0  0  0  0  0  0  0  0  0  0  0  0
  123.5213  106.8389  106.3180 C   0  0  0  0  0  0  0  0  0  0  0  0
  124.0496  107.8567  105.4672 N   0  0  0  0  0  0  0  0  0  0  0  0
  118.8479  105.0423  103.1112 N   0  0  0  0  0  0  0  0  0  0  0  0
  121.0634  105.3718  102.4902 O   0  0  0  0  0  0  0  0  0  0  0  0
  121.6662  106.4117  104.8287 O   0  0  0  0  0  0  0  0  0  0  0  0
  121.4893  103.4942  104.6758 H   0  0  0  0  0  0  0  0  0  0  0  0
  120.3006  103.6528  105.9727 H   0  0  0  0  0  0  0  0  0  0  0  0
  121.7671  105.0578  107.2611 H   0  0  0  0  0  0  0  0  0  0  0  0
  122.9277  103.9020  106.5757 H   0  0  0  0  0  0  0  0  0  0  0  0
  119.7416  105.8970  105.3540 H   0  0  0  0  0  0  0  0  0  0  0  0
  123.4467  105.3982  104.7220 H   0  0  0  0  0  0  0  0  0  0  0  0
  118.3702  103.7905  101.4929 H   0  0  0  0  0  0  0  0  0  0  0  0
  118.9287  105.4173  101.0439 H   0  0  0  0  0  0  0  0  0  0  0  0
  117.2941  105.1897  101.7023 H   0  0  0  0  0  0  0  0  0  0  0  0
  117.4274  105.9427  104.3751 H   0  0  0  0  0  0  0  0  0  0  0  0
  118.3183  104.5844  105.0969 H   0  0  0  0  0  0  0  0  0  0  0  0
  117.0497  104.2743  103.8921 H   0  0  0  0  0  0  0  0  0  0  0  0
  124.3412  106.3609  106.8450 H   0  0  0  0  0  0  0  0  0  0  0  0
  122.8377  107.2944  107.0272 H   0  0  0  0  0  0  0  0  0  0  0  0
  124.4074  107.6100  104.5526 H   0  0  0  0  0  0  0  0  0  0  0  0
  124.2528  108.7728  105.8479 H   0  0  0  0  0  0  0  0  0  0  0  0
  1  4  1  0  0  0  0
  1 10  1  0  0  0  0
  1 11  2  0  0  0  0
  2  3  1  0  0  0  0
  2  4  1  0  0  0  0
  3  5  1  0  0  0  0
  4 12  1  0  0  0  0
  5  8  1  0  0  0  0
  5 12  1  0  0  0  0
  6 10  1  0  0  0  0
  7 10  1  0  0  0  0
  8  9  1  0  0  0  0
  2 13  1  0  0  0  0
  2 14  1  0  0  0  0
  3 15  1  0  0  0  0
  3 16  1  0  0  0  0
  4 17  1  0  0  0  0
  5 18  1  0  0  0  0
  6 19  1  0  0  0  0
  6 20  1  0  0  0  0
  6 21  1  0  0  0  0
  7 22  1  0  0  0  0
  7 23  1  0  0  0  0
  7 24  1  0  0  0  0
  8 25  1  0  0  0  0
  8 26  1  0  0  0  0
  9 27  1  0  0  0  0
  9 28  1  0  0  0  0
M  END
> <FRED Chemgauss4 score>
-5.528910

$$$$
C39053143	P59168293
  -OEChem-05182014473D

 15 15  0     0  0  0  0  0  0999 V2000
  122.4192  106.0518  105.2527 C   0  0  0  0  0  0  0  0  0  0  0  0
  123.6559  105.4312  107.1727 C   0  0  0  0  0  0  0  0  0  0  0  0
  122.4663  105.2541  106.3199 C   0  0  0  0  0  0  0  0  0  0  0  0
  124.5319  107.0914  105.8365 C   0  0  0  0  0  0  0  0  0  0  0  0
  120.3814  104.1017  105.9062 C   0  0  0  0  0  0  0  0  0  0  0  0
  124.6123  106.2769  106.9554 N   0  0  0  0  0  0  0  0  0  0  0  0
  123.4203  106.9520  105.0060 N   0  0  0  0  0  0  0  0  0  0  0  0
  121.5247  104.3332  106.6473 N   0  0  0  0  0  0  0  0  0  0  0  0
  125.4060  107.9173  105.5696 O   0  0  0  0  0  0  0  0  0  0  0  0
  119.4878  103.2947  106.1310 O   0  0  0  0  0  0  0  0  0  0  0  0
  121.6089  106.0393  104.5340 H   0  0  0  0  0  0  0  0  0  0  0  0
  123.7171  104.7815  108.0613 H   0  0  0  0  0  0  0  0  0  0  0  0
  120.3490  104.7651  105.0257 H   0  0  0  0  0  0  0  0  0  0  0  0
  123.3417  107.5386  104.1808 H   0  0  0  0  0  0  0  0  0  0  0  0
  121.6694  103.7792  107.4902 H   0  0  0  0  0  0  0  0  0  0  0  0
  1  3  2  0  0  0  0
  1  7  1  0  0  0  0
  2  3  1  0  0  0  0
  2  6  2  0  0  0  0
  3  8  1  0  0  0  0
  4  6  1  0  0  0  0
  4  7  1  0  0  0  0
  4  9  2  0  0  0  0
  5  8  1  0  0  0  0
  5 10  2  0  0  0  0
  1 11  1  0  0  0  0
  2 12  1  0  0  0  0
  5 13  1  0  0  0  0
  7 14  1  0  0  0  0
  8 15  1  0  0  0  0
M  END
> <FRED Chemgauss4 score>
-5.521691

$$$$
C41059448	P62324462
  -OEChem-05182014473D

 20 21  0     1  0  0  0  0  0999 V2000
  121.0996  105.9825  104.5962 C   0  0  0  0  0  0  0  0  0  0  0  0
  120.9405  105.1127  105.6546 C   0  0  0  0  0  0  0  0  0  0  0  0
  122.9231  106.4798  105.7087 C   0  0  0  0  0  0  0  0  0  0  0  0
  125.6394  105.4146  107.4400 C   0  0  0  0  0  0  0  0  0  0  0  0
  126.5803  106.5169  107.0408 C   0  0  0  0  0  0  0  0  0  0  0  0
  125.3918  106.1938  106.1780 C   0  0  0  0  0  0  0  0  0  0  0  0
  124.2458  107.1413  106.0946 C   0  0  1  0  0  0  0  0  0  0  0  0
  122.2357  106.7675  104.6257 N   0  0  0  0  0  0  0  0  0  0  0  0
  124.5314  108.2467  105.1866 N   0  0  0  0  0  0  0  0  0  0  0  0
  122.2620  105.2744  106.7358 S   0  0  0  0  0  0  0  0  0  0  0  0
  120.4102  106.0842  103.7688 H   0  0  0  0  0  0  0  0  0  0  0  0
  120.1385  104.4115  105.8369 H   0  0  0  0  0  0  0  0  0  0  0  0
  125.9956  104.3950  107.3590 H   0  0  0  0  0  0  0  0  0  0  0  0
  124.9804  105.5942  108.2805 H   0  0  0  0  0  0  0  0  0  0  0  0
  126.5522  107.4354  107.6140 H   0  0  0  0  0  0  0  0  0  0  0  0
  127.5663  106.2353  106.6923 H   0  0  0  0  0  0  0  0  0  0  0  0
  125.5765  105.6947  105.2345 H   0  0  0  0  0  0  0  0  0  0  0  0
  124.0971  107.6332  107.0774 H   0  0  0  0  0  0  0  0  0  0  0  0
  125.4676  108.5886  105.1412 H   0  0  0  0  0  0  0  0  0  0  0  0
  123.7610  108.7508  104.8019 H   0  0  0  0  0  0  0  0  0  0  0  0
  1  2  2  0  0  0  0
  1  8  1  0  0  0  0
  2 10  1  0  0  0  0
  3  7  1  0  0  0  0
  3  8  2  0  0  0  0
  3 10  1  0  0  0  0
  4  5  1  0  0  0  0
  4  6  1  0  0  0  0
  5  6  1  0  0  0  0
  6  7  1  0  0  0  0
  7  9  1  0  0  0  0
  1 11  1  0  0  0  0
  2 12  1  0  0  0  0
  4 13  1  0  0  0  0
  4 14  1  0  0  0  0
  5 15  1  0  0  0  0
  5 16  1  0  0  0  0
  6 17  1  0  0  0  0
  7 18  1  0  0  0  0
  9 19  1  0  0  0  0
  9 20  1  0  0  0  0
M  END
> <FRED Chemgauss4 score>
-5.520933

$$$$
C78677401	P122772478
  -OEChem-05182014473D

 19 19  0     1  0  0  0  0  0999 V2000
  121.7434  107.0574  105.6542 C   0  0  0  0  0  0  0  0  0  0  0  0
  121.7762  106.2018  106.7332 C   0  0  0  0  0  0  0  0  0  0  0  0
  124.0266  107.1835  105.6847 C   0  0  0  0  0  0  0  0  0  0  0  0
  124.0594  106.3284  106.7642 C   0  0  0  0  0  0  0  0  0  0  0  0
  125.7024  103.7250  108.5697 C   0  0  0  0  0  0  0  0  0  0  0  0
  125.2018  104.9660  108.5397 C   0  0  0  0  0  0  0  0  0  0  0  0
  125.3858  105.9219  107.3864 C   0  0  2  0  0  0  0  0  0  0  0  0
  122.8680  107.5636  105.1105 N   0  0  0  0  0  0  0  0  0  0  0  0
  122.9348  105.8220  107.3076 N   0  0  0  0  0  0  0  0  0  0  0  0
  126.1824  107.0814  107.8100 N   0  0  0  0  0  0  0  0  0  0  0  0
  120.8121  107.3623  105.1933 H   0  0  0  0  0  0  0  0  0  0  0  0
  120.8721  105.7954  107.1694 H   0  0  0  0  0  0  0  0  0  0  0  0
  124.9265  107.5942  105.2423 H   0  0  0  0  0  0  0  0  0  0  0  0
  125.5330  103.0852  109.4288 H   0  0  0  0  0  0  0  0  0  0  0  0
  126.2865  103.3282  107.7469 H   0  0  0  0  0  0  0  0  0  0  0  0
  124.6235  105.3054  109.3967 H   0  0  0  0  0  0  0  0  0  0  0  0
  125.9837  105.4175  106.6158 H   0  0  0  0  0  0  0  0  0  0  0  0
  126.1234  107.9059  107.2603 H   0  0  0  0  0  0  0  0  0  0  0  0
  126.8880  106.9303  108.4921 H   0  0  0  0  0  0  0  0  0  0  0  0
  1  2  2  0  0  0  0
  1  8  1  0  0  0  0
  2  9  1  0  0  0  0
  3  4  1  0  0  0  0
  3  8  2  0  0  0  0
  4  7  1  0  0  0  0
  4  9  2  0  0  0  0
  5  6  2  0  0  0  0
  6  7  1  0  0  0  0
  7 10  1  0  0  0  0
  1 11  1  0  0  0  0
  2 12  1  0  0  0  0
  3 13  1  0  0  0  0
  5 14  1  0  0  0  0
  5 15  1  0  0  0  0
  6 16  1  0  0  0  0
  7 17  1  0  0  0  0
 10 18  1  0  0  0  0
 10 19  1  0  0  0  0
M  END
> <FRED Chemgauss4 score>
-5.520525

$$$$
C50284112	P75224048
  -OEChem-05182014473D

 22 23  0     1  0  0  0  0  0999 V2000
  120.4089  106.9731  104.5303 C   0  0  0  0  0  0  0  0  0  0  0  0
  119.2531  106.2418  104.6764 C   0  0  0  0  0  0  0  0  0  0  0  0
  120.7611  105.2392  105.8890 C   0  0  0  0  0  0  0  0  0  0  0  0
  121.3883  106.3219  105.3176 C   0  0  0  0  0  0  0  0  0  0  0  0
  122.8037  106.6925  105.5150 C   0  0  0  0  0  0  0  0  0  0  0  0
  124.8040  106.7047  106.1586 C   0  0  0  0  0  0  0  0  0  0  0  0
  125.6515  105.4772  108.2000 C   0  0  0  0  0  0  0  0  0  0  0  0
  126.0202  106.2113  106.9124 C   0  0  2  0  0  0  0  0  0  0  0  0
  123.3578  107.7379  104.9467 N   0  0  0  0  0  0  0  0  0  0  0  0
  124.6738  107.7458  105.3700 N   0  0  0  0  0  0  0  0  0  0  0  0
  126.9399  107.2911  107.1882 N   0  0  0  0  0  0  0  0  0  0  0  0
  119.4593  105.1833  105.5032 O   0  0  0  0  0  0  0  0  0  0  0  0
  123.6586  105.9834  106.3017 O   0  0  0  0  0  0  0  0  0  0  0  0
  120.5249  107.8640  103.9292 H   0  0  0  0  0  0  0  0  0  0  0  0
  118.2527  106.3375  104.2803 H   0  0  0  0  0  0  0  0  0  0  0  0
  121.0807  104.4527  106.5579 H   0  0  0  0  0  0  0  0  0  0  0  0
  125.0904  106.1288  108.8788 H   0  0  0  0  0  0  0  0  0  0  0  0
  125.0301  104.6022  107.9786 H   0  0  0  0  0  0  0  0  0  0  0  0
  126.5375  105.1158  108.7340 H   0  0  0  0  0  0  0  0  0  0  0  0
  126.5771  105.5112  106.2776 H   0  0  0  0  0  0  0  0  0  0  0  0
  127.0389  108.0276  106.5127 H   0  0  0  0  0  0  0  0  0  0  0  0
  127.6017  107.1846  107.9362 H   0  0  0  0  0  0  0  0  0  0  0  0
  1  2  2  0  0  0  0
  1  4  1  0  0  0  0
  2 12  1  0  0  0  0
  3  4  2  0  0  0  0
  3 12  1  0  0  0  0
  4  5  1  0  0  0  0
  5  9  2  0  0  0  0
  5 13  1  0  0  0  0
  6  8  1  0  0  0  0
  6 10  2  0  0  0  0
  6 13  1  0  0  0  0
  7  8  1  0  0  0  0
  8 11  1  0  0  0  0
  9 10  1  0  0  0  0
  1 14  1  0  0  0  0
  2 15  1  0  0  0  0
  3 16  1  0  0  0  0
  7 17  1  0  0  0  0
  7 18  1  0  0  0  0
  7 19  1  0  0  0  0
  8 20  1  0  0  0  0
 11 21  1  0  0  0  0
 11 22  1  0  0  0  0
M  END
> <FRED Chemgauss4 score>
-5.518692

$$$$
C82906542	P129602642
  -OEChem-05182014473D

 37 37  0     1  0  0  0  0  0999 V2000
  122.4334  108.0558  107.2690 C   0  0  0  0  0  0  0  0  0  0  0  0
  121.1261  107.6644  106.5711 C   0  0  0  0  0  0  0  0  0  0  0  0
  123.6721  106.6611  105.7476 C   0  0  0  0  0  0  0  0  0  0  0  0
  122.3721  106.2136  105.0457 C   0  0  1  0  0  0  0  0  0  0  0  0
  121.9270  104.8295  105.5468 C   0  0  0  0  0  0  0  0  0  0  0  0
  124.9028  104.9912  108.6797 C   0  0  0  0  0  0  0  0  0  0  0  0
  120.1117  106.9870  104.4857 C   0  0  0  0  0  0  0  0  0  0  0  0
  124.6816  107.3815  107.8169 C   0  0  0  0  0  0  0  0  0  0  0  0
  126.5516  105.8395  106.9265 C   0  0  0  0  0  0  0  0  0  0  0  0
  125.6446  106.2121  108.1194 C   0  0  2  0  0  0  0  0  0  0  0  0
  123.4361  106.9894  107.1599 N   0  0  1  0  0  0  0  0  0  0  0  0
  121.3630  107.2803  105.1762 N   0  0  1  0  0  0  0  0  0  0  0  0
  127.2396  106.9612  106.3015 N   0  0  0  0  0  0  0  0  0  0  0  0
  126.5380  106.6678  109.1516 O   0  0  0  0  0  0  0  0  0  0  0  0
  122.8142  108.9729  106.7961 H   0  0  0  0  0  0  0  0  0  0  0  0
  122.2315  108.3007  108.3241 H   0  0  0  0  0  0  0  0  0  0  0  0
  120.6918  106.8215  107.1215 H   0  0  0  0  0  0  0  0  0  0  0  0
  120.4135  108.4972  106.6331 H   0  0  0  0  0  0  0  0  0  0  0  0
  124.4377  105.8774  105.6565 H   0  0  0  0  0  0  0  0  0  0  0  0
  124.0587  107.5512  105.2342 H   0  0  0  0  0  0  0  0  0  0  0  0
  122.6187  106.1047  103.9505 H   0  0  0  0  0  0  0  0  0  0  0  0
  121.6789  104.8898  106.6026 H   0  0  0  0  0  0  0  0  0  0  0  0
  122.7342  104.1168  105.4042 H   0  0  0  0  0  0  0  0  0  0  0  0
  121.0542  104.5059  104.9870 H   0  0  0  0  0  0  0  0  0  0  0  0
  125.6034  104.1739  108.8872 H   0  0  0  0  0  0  0  0  0  0  0  0
  124.1348  104.6148  107.9975 H   0  0  0  0  0  0  0  0  0  0  0  0
  124.4251  105.2352  109.6356 H   0  0  0  0  0  0  0  0  0  0  0  0
  120.3121  106.7034  103.4492 H   0  0  0  0  0  0  0  0  0  0  0  0
  119.4621  107.8664  104.4906 H   0  0  0  0  0  0  0  0  0  0  0  0
  119.5905  106.1635  104.9813 H   0  0  0  0  0  0  0  0  0  0  0  0
  124.4484  107.9119  108.7488 H   0  0  0  0  0  0  0  0  0  0  0  0
  125.1905  108.1173  107.1820 H   0  0  0  0  0  0  0  0  0  0  0  0
  127.2979  105.1034  107.2521 H   0  0  0  0  0  0  0  0  0  0  0  0
  125.9513  105.3262  106.1649 H   0  0  0  0  0  0  0  0  0  0  0  0
  127.4984  106.8808  105.3404 H   0  0  0  0  0  0  0  0  0  0  0  0
  127.6078  107.6778  106.8917 H   0  0  0  0  0  0  0  0  0  0  0  0
  126.9953  107.4345  108.7828 H   0  0  0  0  0  0  0  0  0  0  0  0
  1  2  1  0  0  0  0
  1 11  1  0  0  0  0
  2 12  1  0  0  0  0
  3  4  1  0  0  0  0
  3 11  1  0  0  0  0
  4  5  1  0  0  0  0
  4 12  1  0  0  0  0
  6 10  1  0  0  0  0
  7 12  1  0  0  0  0
  8 10  1  0  0  0  0
  8 11  1  0  0  0  0
  9 10  1  0  0  0  0
  9 13  1  0  0  0  0
 10 14  1  0  0  0  0
  1 15  1  0  0  0  0
  1 16  1  0  0  0  0
  2 17  1  0  0  0  0
  2 18  1  0  0  0  0
  3 19  1  0  0  0  0
  3 20  1  0  0  0  0
  4 21  1  0  0  0  0
  5 22  1  0  0  0  0
  5 23  1  0  0  0  0
  5 24  1  0  0  0  0
  6 25  1  0  0  0  0
  6 26  1  0  0  0  0
  6 27  1  0  0  0  0
  7 28  1  0  0  0  0
  7 29  1  0  0  0  0
  7 30  1  0  0  0  0
  8 31  1  0  0  0  0
  8 32  1  0  0  0  0
  9 33  1  0  0  0  0
  9 34  1  0  0  0  0
 13 35  1  0  0  0  0
 13 36  1  0  0  0  0
 14 37  1  0  0  0  0
M  END
> <FRED Chemgauss4 score>
-5.515667

$$$$
C63065426	P96833787
  -OEChem-05182014473D

 22 22  0     1  0  0  0  0  0999 V2000
  123.4806  105.8572  106.5022 C   0  0  0  0  0  0  0  0  0  0  0  0
  121.3754  104.4653  106.3592 C   0  0  0  0  0  0  0  0  0  0  0  0
  123.9859  105.2874  108.9277 C   0  0  0  0  0  0  0  0  0  0  0  0
  125.7620  104.9996  107.1602 C   0  0  0  0  0  0  0  0  0  0  0  0
  124.2533  104.9499  107.4517 C   0  0  2  0  0  0  0  0  0  0  0  0
  123.8746  106.9934  105.9747 N   0  0  0  0  0  0  0  0  0  0  0  0
  122.8258  107.4235  105.1936 N   0  0  0  0  0  0  0  0  0  0  0  0
  121.8124  106.5675  105.2422 N   0  0  0  0  0  0  0  0  0  0  0  0
  122.2241  105.5894  106.0609 N   0  0  0  0  0  0  0  0  0  0  0  0
  122.7178  104.6644  109.3773 N   0  0  0  0  0  0  0  0  0  0  0  0
  126.3213  106.1781  107.7300 O   0  0  0  0  0  0  0  0  0  0  0  0
  120.7814  104.7161  107.2420 H   0  0  0  0  0  0  0  0  0  0  0  0
  120.7236  104.2642  105.5044 H   0  0  0  0  0  0  0  0  0  0  0  0
  121.9955  103.5853  106.5516 H   0  0  0  0  0  0  0  0  0  0  0  0
  123.9310  106.3661  109.1072 H   0  0  0  0  0  0  0  0  0  0  0  0
  124.7879  104.8861  109.5580 H   0  0  0  0  0  0  0  0  0  0  0  0
  126.2919  104.1305  107.5640 H   0  0  0  0  0  0  0  0  0  0  0  0
  125.9401  105.0393  106.0802 H   0  0  0  0  0  0  0  0  0  0  0  0
  123.9207  103.9172  107.2738 H   0  0  0  0  0  0  0  0  0  0  0  0
  121.9613  104.6843  108.7442 H   0  0  0  0  0  0  0  0  0  0  0  0
  122.6398  104.4536  110.3380 H   0  0  0  0  0  0  0  0  0  0  0  0
  127.2687  106.1651  107.5211 H   0  0  0  0  0  0  0  0  0  0  0  0
  1  5  1  0  0  0  0
  1  6  2  0  0  0  0
  1  9  1  0  0  0  0
  2  9  1  0  0  0  0
  3  5  1  0  0  0  0
  3 10  1  0  0  0  0
  4  5  1  0  0  0  0
  4 11  1  0  0  0  0
  6  7  1  0  0  0  0
  7  8  2  0  0  0  0
  8  9  1  0  0  0  0
  2 12  1  0  0  0  0
  2 13  1  0  0  0  0
  2 14  1  0  0  0  0
  3 15  1  0  0  0  0
  3 16  1  0  0  0  0
  4 17  1  0  0  0  0
  4 18  1  0  0  0  0
  5 19  1  0  0  0  0
 10 20  1  0  0  0  0
 10 21  1  0  0  0  0
 11 22  1  0  0  0  0
M  END
> <FRED Chemgauss4 score>
-5.515354

$$$$
C71484901	P110638633
  -OEChem-05182014473D

 20 20  0     1  0  0  0  0  0999 V2000
  124.1263  105.0535  109.6370 C   0  0  0  0  0  0  0  0  0  0  0  0
  125.0071  104.1112  109.1488 C   0  0  0  0  0  0  0  0  0  0  0  0
  124.9632  106.2142  107.9750 C   0  0  0  0  0  0  0  0  0  0  0  0
  125.2197  107.3493  107.0110 C   0  0  0  0  0  0  0  0  0  0  0  0
  123.5415  106.4918  105.2855 C   0  0  0  0  0  0  0  0  0  0  0  0
  124.9832  106.9333  105.5525 C   0  0  1  0  0  0  0  0  0  0  0  0
  124.1001  106.2602  108.9654 N   0  0  0  0  0  0  0  0  0  0  0  0
  122.6050  107.5535  105.5749 N   0  0  0  0  0  0  0  0  0  0  0  0
  125.3025  108.0296  104.6953 O   0  0  0  0  0  0  0  0  0  0  0  0
  125.8401  104.7504  107.7928 S   0  0  0  0  0  0  0  0  0  0  0  0
  123.4739  104.9097  110.4878 H   0  0  0  0  0  0  0  0  0  0  0  0
  125.1930  103.1100  109.5108 H   0  0  0  0  0  0  0  0  0  0  0  0
  124.5724  108.1932  107.2820 H   0  0  0  0  0  0  0  0  0  0  0  0
  126.2537  107.6910  107.1468 H   0  0  0  0  0  0  0  0  0  0  0  0
  123.2907  105.6331  105.9173 H   0  0  0  0  0  0  0  0  0  0  0  0
  123.4261  106.1847  104.2408 H   0  0  0  0  0  0  0  0  0  0  0  0
  125.6528  106.1070  105.2841 H   0  0  0  0  0  0  0  0  0  0  0  0
  122.7786  108.1511  106.3631 H   0  0  0  0  0  0  0  0  0  0  0  0
  121.7102  107.5476  105.1188 H   0  0  0  0  0  0  0  0  0  0  0  0
  126.2359  108.2371  104.8525 H   0  0  0  0  0  0  0  0  0  0  0  0
  1  2  2  0  0  0  0
  1  7  1  0  0  0  0
  2 10  1  0  0  0  0
  3  4  1  0  0  0  0
  3  7  2  0  0  0  0
  3 10  1  0  0  0  0
  4  6  1  0  0  0  0
  5  6  1  0  0  0  0
  5  8  1  0  0  0  0
  6  9  1  0  0  0  0
  1 11  1  0  0  0  0
  2 12  1  0  0  0  0
  4 13  1  0  0  0  0
  4 14  1  0  0  0  0
  5 15  1  0  0  0  0
  5 16  1  0  0  0  0
  6 17  1  0  0  0  0
  8 18  1  0  0  0  0
  8 19  1  0  0  0  0
  9 20  1  0  0  0  0
M  END
> <FRED Chemgauss4 score>
-5.514726

$$$$
C86088781	P134832591
  -OEChem-05182014473D

 24 25  0     1  0  0  0  0  0999 V2000
  122.4030  105.8166  105.9811 C   0  0  0  0  0  0  0  0  0  0  0  0
  120.5412  106.5419  105.3772 C   0  0  0  0  0  0  0  0  0  0  0  0
  124.4202  104.3059  106.2662 C   0  0  0  0  0  0  0  0  0  0  0  0
  125.2870  104.1208  107.2676 C   0  0  0  0  0  0  0  0  0  0  0  0
  124.3001  106.2363  107.6312 C   0  0  0  0  0  0  0  0  0  0  0  0
  123.8874  105.7087  106.2436 C   0  0  2  0  0  0  0  0  0  0  0  0
  125.4731  105.3553  108.0934 C   0  0  2  0  0  0  0  0  0  0  0  0
  119.4349  107.3340  104.8469 C   0  0  0  0  0  0  0  0  0  0  0  0
  121.8056  106.8947  105.3934 N   0  0  0  0  0  0  0  0  0  0  0  0
  120.4032  105.3080  105.9323 N   0  0  0  0  0  0  0  0  0  0  0  0
  121.5878  104.8189  106.3295 N   0  0  0  0  0  0  0  0  0  0  0  0
  126.7639  105.9817  107.8328 N   0  0  0  0  0  0  0  0  0  0  0  0
  124.1307  103.5411  105.5651 H   0  0  0  0  0  0  0  0  0  0  0  0
  125.7616  103.1716  107.4838 H   0  0  0  0  0  0  0  0  0  0  0  0
  124.6275  107.2806  107.5213 H   0  0  0  0  0  0  0  0  0  0  0  0
  123.4850  106.2393  108.3646 H   0  0  0  0  0  0  0  0  0  0  0  0
  124.4080  106.2931  105.4571 H   0  0  0  0  0  0  0  0  0  0  0  0
  125.3894  105.1042  109.1454 H   0  0  0  0  0  0  0  0  0  0  0  0
  119.2546  107.1252  103.7737 H   0  0  0  0  0  0  0  0  0  0  0  0
  118.4786  107.1447  105.3765 H   0  0  0  0  0  0  0  0  0  0  0  0
  119.6066  108.4264  104.9378 H   0  0  0  0  0  0  0  0  0  0  0  0
  121.6899  103.9098  106.7722 H   0  0  0  0  0  0  0  0  0  0  0  0
  127.5574  105.3913  107.6877 H   0  0  0  0  0  0  0  0  0  0  0  0
  126.8598  106.9614  108.0070 H   0  0  0  0  0  0  0  0  0  0  0  0
  1  6  1  0  0  0  0
  1  9  2  0  0  0  0
  1 11  1  0  0  0  0
  2  8  1  0  0  0  0
  2  9  1  0  0  0  0
  2 10  2  0  0  0  0
  3  4  2  0  0  0  0
  3  6  1  0  0  0  0
  4  7  1  0  0  0  0
  5  6  1  0  0  0  0
  5  7  1  0  0  0  0
  7 12  1  0  0  0  0
 10 11  1  0  0  0  0
  3 13  1  0  0  0  0
  4 14  1  0  0  0  0
  5 15  1  0  0  0  0
  5 16  1  0  0  0  0
  6 17  1  0  0  0  0
  7 18  1  0  0  0  0
  8 19  1  0  0  0  0
  8 20  1  0  0  0  0
  8 21  1  0  0  0  0
 11 22  1  0  0  0  0
 12 23  1  0  0  0  0
 12 24  1  0  0  0  0
M  END
> <FRED Chemgauss4 score>
-5.501137

$$$$
Aspartate
  -OEChem-05182014473D

 16 15  0     1  0  0  0  0  0999 V2000
  124.6490  106.9244  105.9213 C   0  0  0  0  0  0  0  0  0  0  0  0
  124.8056  104.4388  107.9113 C   0  0  0  0  0  0  0  0  0  0  0  0
  125.8485  106.2957  106.5989 C   0  0  0  0  0  0  0  0  0  0  0  0
  125.5309  105.7712  108.0020 C   0  0  2  0  0  0  0  0  0  0  0  0
  126.7293  105.6617  108.7988 N   0  0  0  0  0  0  0  0  0  0  0  0
  123.4829  106.5966  106.0898 O   0  0  0  0  0  0  0  0  0  0  0  0
  125.2687  103.4473  107.3603 O   0  0  0  0  0  0  0  0  0  0  0  0
  125.0234  107.9218  105.0776 O   0  0  0  0  0  0  0  0  0  0  0  0
  123.5848  104.4497  108.4982 O   0  0  0  0  0  0  0  0  0  0  0  0
  126.1806  105.4721  105.9553 H   0  0  0  0  0  0  0  0  0  0  0  0
  126.6505  107.0422  106.6479 H   0  0  0  0  0  0  0  0  0  0  0  0
  124.8698  106.4546  108.5468 H   0  0  0  0  0  0  0  0  0  0  0  0
  126.7458  105.0117  109.5653 H   0  0  0  0  0  0  0  0  0  0  0  0
  127.4398  106.3668  108.7076 H   0  0  0  0  0  0  0  0  0  0  0  0
  124.2851  108.3658  104.6076 H   0  0  0  0  0  0  0  0  0  0  0  0
  123.1347  103.5811  108.4244 H   0  0  0  0  0  0  0  0  0  0  0  0
  1  3  1  0  0  0  0
  1  6  2  0  0  0  0
  1  8  1  0  0  0  0
  2  4  1  0  0  0  0
  2  7  2  0  0  0  0
  2  9  1  0  0  0  0
  3  4  1  0  0  0  0
  4  5  1  0  0  0  0
  3 10  1  0  0  0  0
  3 11  1  0  0  0  0
  4 12  1  0  0  0  0
  5 13  1  0  0  0  0
  5 14  1  0  0  0  0
  8 15  1  0  0  0  0
  9 16  1  0  0  0  0
M  END
> <FRED Chemgauss4 score>
-5.499593

$$$$
C94238416	P147693620
  -OEChem-05182014473D

 34 34  0     1  0  0  0  0  0999 V2000
  125.5480  107.0662  107.0310 C   0  0  0  0  0  0  0  0  0  0  0  0
  122.0690  106.4009  105.7797 C   0  0  0  0  0  0  0  0  0  0  0  0
  124.7316  104.0102  106.8568 C   0  0  0  0  0  0  0  0  0  0  0  0
  123.7910  107.2939  108.7877 C   0  0  0  0  0  0  0  0  0  0  0  0
  123.0486  106.1668  108.1069 C   0  0  0  0  0  0  0  0  0  0  0  0
  124.5168  106.3974  106.1160 C   0  0  1  0  0  0  0  0  0  0  0  0
  120.5929  104.9116  107.0946 C   0  0  0  0  0  0  0  0  0  0  0  0
  124.9989  104.9925  105.7506 C   0  0  0  0  0  0  0  0  0  0  0  0
  120.6961  106.2598  106.3866 C   0  0  2  0  0  0  0  0  0  0  0  0
  119.6372  106.4008  105.3036 C   0  0  0  0  0  0  0  0  0  0  0  0
  125.1534  107.3815  108.3111 N   0  0  0  0  0  0  0  0  0  0  0  0
  123.1537  106.3487  106.6591 N   0  0  0  0  0  0  0  0  0  0  0  0
  120.5610  107.3407  107.3583 N   0  0  0  0  0  0  0  0  0  0  0  0
  126.7029  107.2572  106.6414 O   0  0  0  0  0  0  0  0  0  0  0  0
  122.1769  106.5550  104.5601 O   0  0  0  0  0  0  0  0  0  0  0  0
  125.4788  103.7368  107.7841 O   0  0  0  0  0  0  0  0  0  0  0  0
  123.5077  103.4485  106.6830 O   0  0  0  0  0  0  0  0  0  0  0  0
  119.7830  105.4521  104.3504 F   0  0  0  0  0  0  0  0  0  0  0  0
  119.6995  107.6041  104.6901 F   0  0  0  0  0  0  0  0  0  0  0  0
  118.3914  106.2698  105.8138 F   0  0  0  0  0  0  0  0  0  0  0  0
  123.3159  108.2589  108.5805 H   0  0  0  0  0  0  0  0  0  0  0  0
  123.8216  107.1479  109.8715 H   0  0  0  0  0  0  0  0  0  0  0  0
  123.4968  105.1963  108.3504 H   0  0  0  0  0  0  0  0  0  0  0  0
  122.0139  106.1435  108.4517 H   0  0  0  0  0  0  0  0  0  0  0  0
  124.4906  106.9986  105.1985 H   0  0  0  0  0  0  0  0  0  0  0  0
  119.6032  104.7791  107.5473 H   0  0  0  0  0  0  0  0  0  0  0  0
  120.7569  104.0817  106.3977 H   0  0  0  0  0  0  0  0  0  0  0  0
  121.3283  104.8203  107.9034 H   0  0  0  0  0  0  0  0  0  0  0  0
  124.4762  104.6641  104.8505 H   0  0  0  0  0  0  0  0  0  0  0  0
  126.0729  105.0278  105.5596 H   0  0  0  0  0  0  0  0  0  0  0  0
  125.8652  107.6961  108.9633 H   0  0  0  0  0  0  0  0  0  0  0  0
  120.2841  108.2392  107.0260 H   0  0  0  0  0  0  0  0  0  0  0  0
  120.9406  107.2025  108.2702 H   0  0  0  0  0  0  0  0  0  0  0  0
  123.2992  102.8004  107.3893 H   0  0  0  0  0  0  0  0  0  0  0  0
  1  6  1  0  0  0  0
  1 11  1  0  0  0  0
  1 14  2  0  0  0  0
  2  9  1  0  0  0  0
  2 12  1  0  0  0  0
  2 15  2  0  0  0  0
  3  8  1  0  0  0  0
  3 16  2  0  0  0  0
  3 17  1  0  0  0  0
  4  5  1  0  0  0  0
  4 11  1  0  0  0  0
  5 12  1  0  0  0  0
  6  8  1  0  0  0  0
  6 12  1  0  0  0  0
  7  9  1  0  0  0  0
  9 10  1  0  0  0  0
  9 13  1  0  0  0  0
 10 18  1  0  0  0  0
 10 19  1  0  0  0  0
 10 20  1  0  0  0  0
  4 21  1  0  0  0  0
  4 22  1  0  0  0  0
  5 23  1  0  0  0  0
  5 24  1  0  0  0  0
  6 25  1  0  0  0  0
  7 26  1  0  0  0  0
  7 27  1  0  0  0  0
  7 28  1  0  0  0  0
  8 29  1  0  0  0  0
  8 30  1  0  0  0  0
 11 31  1  0  0  0  0
 13 32  1  0  0  0  0
 13 33  1  0  0  0  0
 17 34  1  0  0  0  0
M  END
> <FRED Chemgauss4 score>
-5.489210

$$$$
C39136597	P59287216
  -OEChem-05182014473D

 23 22  0     0  0  0  0  0  0999 V2000
  125.0634  106.8162  107.1090 C   0  0  0  0  0  0  0  0  0  0  0  0
  121.5593  105.9480  105.5988 C   0  0  0  0  0  0  0  0  0  0  0  0
  119.1670  105.2413  105.4183 C   0  0  0  0  0  0  0  0  0  0  0  0
  123.7363  107.0177  106.3942 C   0  0  0  0  0  0  0  0  0  0  0  0
  122.8633  105.7647  106.3766 C   0  0  0  0  0  0  0  0  0  0  0  0
  125.9748  106.2235  109.2295 N   0  0  0  0  0  0  0  0  0  0  0  0
  120.6240  104.3198  107.1199 N   0  0  0  0  0  0  0  0  0  0  0  0
  124.8726  106.4510  108.4313 N   0  0  0  0  0  0  0  0  0  0  0  0
  120.4804  105.1867  106.0388 N   0  0  0  0  0  0  0  0  0  0  0  0
  126.1526  106.9620  106.5600 O   0  0  0  0  0  0  0  0  0  0  0  0
  121.4899  106.7300  104.6479 O   0  0  0  0  0  0  0  0  0  0  0  0
  119.0989  104.5005  104.6173 H   0  0  0  0  0  0  0  0  0  0  0  0
  118.9896  106.2339  104.9957 H   0  0  0  0  0  0  0  0  0  0  0  0
  118.3903  105.0316  106.1586 H   0  0  0  0  0  0  0  0  0  0  0  0
  123.9681  107.2979  105.3590 H   0  0  0  0  0  0  0  0  0  0  0  0
  123.2090  107.8611  106.8551 H   0  0  0  0  0  0  0  0  0  0  0  0
  122.6307  105.4449  107.3986 H   0  0  0  0  0  0  0  0  0  0  0  0
  123.4290  104.9632  105.8860 H   0  0  0  0  0  0  0  0  0  0  0  0
  125.7182  105.4860  109.8845 H   0  0  0  0  0  0  0  0  0  0  0  0
  126.6976  105.8279  108.6297 H   0  0  0  0  0  0  0  0  0  0  0  0
  121.5783  103.9627  107.0977 H   0  0  0  0  0  0  0  0  0  0  0  0
  120.0119  103.5223  106.9530 H   0  0  0  0  0  0  0  0  0  0  0  0
  123.9351  106.3521  108.8079 H   0  0  0  0  0  0  0  0  0  0  0  0
  1  4  1  0  0  0  0
  1  8  1  0  0  0  0
  1 10  2  0  0  0  0
  2  5  1  0  0  0  0
  2  9  1  0  0  0  0
  2 11  2  0  0  0  0
  3  9  1  0  0  0  0
  4  5  1  0  0  0  0
  6  8  1  0  0  0  0
  7  9  1  0  0  0  0
  3 12  1  0  0  0  0
  3 13  1  0  0  0  0
  3 14  1  0  0  0  0
  4 15  1  0  0  0  0
  4 16  1  0  0  0  0
  5 17  1  0  0  0  0
  5 18  1  0  0  0  0
  6 19  1  0  0  0  0
  6 20  1  0  0  0  0
  7 21  1  0  0  0  0
  7 22  1  0  0  0  0
  8 23  1  0  0  0  0
M  END
> <FRED Chemgauss4 score>
-5.488921

$$$$
C85164882	P133260509
  -OEChem-05182014473D

 29 29  0     1  0  0  0  0  0999 V2000
  121.1518  106.6886  104.8138 C   0  0  0  0  0  0  0  0  0  0  0  0
  121.2531  105.3937  104.0182 C   0  0  0  0  0  0  0  0  0  0  0  0
  121.9030  104.1419  105.9219 C   0  0  0  0  0  0  0  0  0  0  0  0
  122.0902  106.6533  106.0272 C   0  0  2  0  0  0  0  0  0  0  0  0
  121.8439  105.3671  106.8382 C   0  0  2  0  0  0  0  0  0  0  0  0
  125.7316  104.6110  107.8988 C   0  0  0  0  0  0  0  0  0  0  0  0
  126.0526  106.0847  108.1127 C   0  0  0  0  0  0  0  0  0  0  0  0
  124.3882  104.4339  107.2020 C   0  0  0  0  0  0  0  0  0  0  0  0
  121.8744  107.8566  106.8314 N   0  0  0  0  0  0  0  0  0  0  0  0
  120.9660  104.2710  104.8498 O   0  0  0  0  0  0  0  0  0  0  0  0
  127.3178  106.1916  108.7504 O   0  0  0  0  0  0  0  0  0  0  0  0
  123.0592  105.1562  108.1860 S   0  0  0  0  0  0  0  0  0  0  0  0
  121.4424  107.5214  104.1690 H   0  0  0  0  0  0  0  0  0  0  0  0
  120.1182  106.8639  105.1187 H   0  0  0  0  0  0  0  0  0  0  0  0
  120.5795  105.3907  103.1545 H   0  0  0  0  0  0  0  0  0  0  0  0
  122.2719  105.2724  103.6386 H   0  0  0  0  0  0  0  0  0  0  0  0
  122.8963  104.0156  105.4892 H   0  0  0  0  0  0  0  0  0  0  0  0
  121.6756  103.2299  106.4772 H   0  0  0  0  0  0  0  0  0  0  0  0
  123.1349  106.6852  105.6620 H   0  0  0  0  0  0  0  0  0  0  0  0
  120.8580  105.3988  107.3190 H   0  0  0  0  0  0  0  0  0  0  0  0
  126.5380  104.1528  107.3116 H   0  0  0  0  0  0  0  0  0  0  0  0
  125.7365  104.1014  108.8711 H   0  0  0  0  0  0  0  0  0  0  0  0
  126.0980  106.6173  107.1575 H   0  0  0  0  0  0  0  0  0  0  0  0
  125.3002  106.5596  108.7503 H   0  0  0  0  0  0  0  0  0  0  0  0
  124.1685  103.3717  107.0538 H   0  0  0  0  0  0  0  0  0  0  0  0
  124.3953  104.9187  106.2206 H   0  0  0  0  0  0  0  0  0  0  0  0
  121.6408  108.6940  106.3524 H   0  0  0  0  0  0  0  0  0  0  0  0
  122.1661  107.8339  107.7800 H   0  0  0  0  0  0  0  0  0  0  0  0
  127.4916  107.1392  108.8717 H   0  0  0  0  0  0  0  0  0  0  0  0
  1  2  1  0  0  0  0
  1  4  1  0  0  0  0
  2 10  1  0  0  0  0
  3  5  1  0  0  0  0
  3 10  1  0  0  0  0
  4  5  1  0  0  0  0
  4  9  1  0  0  0  0
  5 12  1  0  0  0  0
  6  7  1  0  0  0  0
  6  8  1  0  0  0  0
  7 11  1  0  0  0  0
  8 12  1  0  0  0  0
  1 13  1  0  0  0  0
  1 14  1  0  0  0  0
  2 15  1  0  0  0  0
  2 16  1  0  0  0  0
  3 17  1  0  0  0  0
  3 18  1  0  0  0  0
  4 19  1  0  0  0  0
  5 20  1  0  0  0  0
  6 21  1  0  0  0  0
  6 22  1  0  0  0  0
  7 23  1  0  0  0  0
  7 24  1  0  0  0  0
  8 25  1  0  0  0  0
  8 26  1  0  0  0  0
  9 27  1  0  0  0  0
  9 28  1  0  0  0  0
 11 29  1  0  0  0  0
M  END
> <FRED Chemgauss4 score>
-5.486988

$$$$
C35382256	P52512186
  -OEChem-05182014473D

 24 25  0     1  0  0  0  0  0999 V2000
  120.5935  107.6339  105.3618 C   0  0  0  0  0  0  0  0  0  0  0  0
  126.3026  105.3400  108.6381 C   0  0  0  0  0  0  0  0  0  0  0  0
  125.7224  104.1630  109.0486 C   0  0  0  0  0  0  0  0  0  0  0  0
  119.4147  107.1192  104.8744 C   0  0  0  0  0  0  0  0  0  0  0  0
  120.5067  105.4340  105.7211 C   0  0  0  0  0  0  0  0  0  0  0  0
  121.3027  106.5395  105.9115 C   0  0  0  0  0  0  0  0  0  0  0  0
  124.5738  105.1026  107.4194 C   0  0  0  0  0  0  0  0  0  0  0  0
  123.4669  105.2654  106.4027 C   0  0  0  0  0  0  0  0  0  0  0  0
  122.6675  106.5759  106.5779 C   0  0  1  0  0  0  0  0  0  0  0  0
  125.5826  105.9201  107.6239 N   0  0  0  0  0  0  0  0  0  0  0  0
  124.6157  104.0245  108.2591 N   0  0  0  0  0  0  0  0  0  0  0  0
  123.4638  107.7062  106.0809 N   0  0  0  0  0  0  0  0  0  0  0  0
  119.3540  105.7789  105.0896 O   0  0  0  0  0  0  0  0  0  0  0  0
  120.8998  108.6696  105.3235 H   0  0  0  0  0  0  0  0  0  0  0  0
  127.2013  105.7998  109.0222 H   0  0  0  0  0  0  0  0  0  0  0  0
  125.9856  103.4360  109.8030 H   0  0  0  0  0  0  0  0  0  0  0  0
  118.5605  107.5514  104.3740 H   0  0  0  0  0  0  0  0  0  0  0  0
  120.6093  104.3860  105.9635 H   0  0  0  0  0  0  0  0  0  0  0  0
  122.7939  104.4023  106.5039 H   0  0  0  0  0  0  0  0  0  0  0  0
  123.8833  105.1913  105.3894 H   0  0  0  0  0  0  0  0  0  0  0  0
  122.5224  106.7527  107.6513 H   0  0  0  0  0  0  0  0  0  0  0  0
  123.9518  103.2619  108.2896 H   0  0  0  0  0  0  0  0  0  0  0  0
  124.4492  107.6588  106.1918 H   0  0  0  0  0  0  0  0  0  0  0  0
  122.9810  108.5419  105.8479 H   0  0  0  0  0  0  0  0  0  0  0  0
  1  4  2  0  0  0  0
  1  6  1  0  0  0  0
  2  3  2  0  0  0  0
  2 10  1  0  0  0  0
  3 11  1  0  0  0  0
  4 13  1  0  0  0  0
  5  6  2  0  0  0  0
  5 13  1  0  0  0  0
  6  9  1  0  0  0  0
  7  8  1  0  0  0  0
  7 10  2  0  0  0  0
  7 11  1  0  0  0  0
  8  9  1  0  0  0  0
  9 12  1  0  0  0  0
  1 14  1  0  0  0  0
  2 15  1  0  0  0  0
  3 16  1  0  0  0  0
  4 17  1  0  0  0  0
  5 18  1  0  0  0  0
  8 19  1  0  0  0  0
  8 20  1  0  0  0  0
  9 21  1  0  0  0  0
 11 22  1  0  0  0  0
 12 23  1  0  0  0  0
 12 24  1  0  0  0  0
M  END
> <FRED Chemgauss4 score>
-5.475877

$$$$
C72187999	P112132748
  -OEChem-05182014473D

 23 23  0     1  0  0  0  0  0999 V2000
  120.8423  104.6523  104.5097 C   0  0  0  0  0  0  0  0  0  0  0  0
  120.7199  105.0867  106.8720 C   0  0  0  0  0  0  0  0  0  0  0  0
  119.5748  104.1000  104.6003 C   0  0  0  0  0  0  0  0  0  0  0  0
  119.4578  104.5152  106.8569 C   0  0  0  0  0  0  0  0  0  0  0  0
  121.4187  105.1528  105.6718 C   0  0  0  0  0  0  0  0  0  0  0  0
  122.7994  105.7655  105.6307 C   0  0  0  0  0  0  0  0  0  0  0  0
  124.3624  107.5121  106.6481 C   0  0  0  0  0  0  0  0  0  0  0  0
  122.9781  106.8592  106.6929 C   0  0  1  0  0  0  0  0  0  0  0  0
  118.8651  104.0182  105.7481 N   0  0  0  0  0  0  0  0  0  0  0  0
  124.6104  108.1300  105.3656 N   0  0  0  0  0  0  0  0  0  0  0  0
  121.9813  107.8636  106.5031 O   0  0  0  0  0  0  0  0  0  0  0  0
  121.3616  104.6879  103.5580 H   0  0  0  0  0  0  0  0  0  0  0  0
  121.1426  105.4688  107.7949 H   0  0  0  0  0  0  0  0  0  0  0  0
  119.0817  103.6945  103.7228 H   0  0  0  0  0  0  0  0  0  0  0  0
  118.8718  104.4398  107.7669 H   0  0  0  0  0  0  0  0  0  0  0  0
  123.5415  104.9686  105.7679 H   0  0  0  0  0  0  0  0  0  0  0  0
  122.9645  106.1784  104.6274 H   0  0  0  0  0  0  0  0  0  0  0  0
  125.1373  106.7573  106.8195 H   0  0  0  0  0  0  0  0  0  0  0  0
  124.4509  108.2682  107.4351 H   0  0  0  0  0  0  0  0  0  0  0  0
  122.8270  106.4384  107.6946 H   0  0  0  0  0  0  0  0  0  0  0  0
  124.2748  107.6749  104.5357 H   0  0  0  0  0  0  0  0  0  0  0  0
  125.2768  108.8792  105.3098 H   0  0  0  0  0  0  0  0  0  0  0  0
  121.1248  107.4206  106.5985 H   0  0  0  0  0  0  0  0  0  0  0  0
  1  3  1  0  0  0  0
  1  5  2  0  0  0  0
  2  4  2  0  0  0  0
  2  5  1  0  0  0  0
  3  9  2  0  0  0  0
  4  9  1  0  0  0  0
  5  6  1  0  0  0  0
  6  8  1  0  0  0  0
  7  8  1  0  0  0  0
  7 10  1  0  0  0  0
  8 11  1  0  0  0  0
  1 12  1  0  0  0  0
  2 13  1  0  0  0  0
  3 14  1  0  0  0  0
  4 15  1  0  0  0  0
  6 16  1  0  0  0  0
  6 17  1  0  0  0  0
  7 18  1  0  0  0  0
  7 19  1  0  0  0  0
  8 20  1  0  0  0  0
 10 21  1  0  0  0  0
 10 22  1  0  0  0  0
 11 23  1  0  0  0  0
M  END
> <FRED Chemgauss4 score>
-5.474713

$$$$
C83691805	P130926493
  -OEChem-05182014473D

 29 29  0     1  0  0  0  0  0999 V2000
  120.2988  103.9894  106.0160 C   0  0  0  0  0  0  0  0  0  0  0  0
  121.2139  105.0628  106.5990 C   0  0  0  0  0  0  0  0  0  0  0  0
  119.3235  104.5987  105.0172 C   0  0  0  0  0  0  0  0  0  0  0  0
  120.7920  106.3898  104.5093 C   0  0  0  0  0  0  0  0  0  0  0  0
  121.8607  105.8768  105.4748 C   0  0  1  0  0  0  0  0  0  0  0  0
  124.8828  106.3541  105.3414 C   0  0  0  0  0  0  0  0  0  0  0  0
  124.4791  107.5274  107.5322 C   0  0  0  0  0  0  0  0  0  0  0  0
  123.9207  106.5361  106.5131 C   0  0  0  0  0  0  0  0  0  0  0  0
  122.6257  106.9893  106.0275 N   0  0  0  0  0  0  0  0  0  0  0  0
  120.0227  105.3024  103.9907 O   0  0  0  0  0  0  0  0  0  0  0  0
  125.0589  107.6003  104.6770 O   0  0  0  0  0  0  0  0  0  0  0  0
  125.7210  107.0431  108.0306 O   0  0  0  0  0  0  0  0  0  0  0  0
  120.9173  103.2417  105.5047 H   0  0  0  0  0  0  0  0  0  0  0  0
  119.7546  103.4778  106.8167 H   0  0  0  0  0  0  0  0  0  0  0  0
  120.6235  105.7186  107.2524 H   0  0  0  0  0  0  0  0  0  0  0  0
  121.9819  104.5943  107.2262 H   0  0  0  0  0  0  0  0  0  0  0  0
  118.7376  103.8071  104.5393 H   0  0  0  0  0  0  0  0  0  0  0  0
  118.6197  105.2788  105.5114 H   0  0  0  0  0  0  0  0  0  0  0  0
  120.1178  107.1105  104.9887 H   0  0  0  0  0  0  0  0  0  0  0  0
  121.2588  106.8946  103.6563 H   0  0  0  0  0  0  0  0  0  0  0  0
  122.5425  105.2201  104.9267 H   0  0  0  0  0  0  0  0  0  0  0  0
  124.4783  105.6428  104.6137 H   0  0  0  0  0  0  0  0  0  0  0  0
  125.8626  105.9984  105.6785 H   0  0  0  0  0  0  0  0  0  0  0  0
  123.7950  107.6643  108.3769 H   0  0  0  0  0  0  0  0  0  0  0  0
  124.6642  108.5003  107.0655 H   0  0  0  0  0  0  0  0  0  0  0  0
  123.7257  105.5712  106.9960 H   0  0  0  0  0  0  0  0  0  0  0  0
  122.7637  107.6906  105.3018 H   0  0  0  0  0  0  0  0  0  0  0  0
  125.6737  107.4402  103.9436 H   0  0  0  0  0  0  0  0  0  0  0  0
  126.0388  107.6991  108.6710 H   0  0  0  0  0  0  0  0  0  0  0  0
  1  2  1  0  0  0  0
  1  3  1  0  0  0  0
  2  5  1  0  0  0  0
  3 10  1  0  0  0  0
  4  5  1  0  0  0  0
  4 10  1  0  0  0  0
  5  9  1  0  0  0  0
  6  8  1  0  0  0  0
  6 11  1  0  0  0  0
  7  8  1  0  0  0  0
  7 12  1  0  0  0  0
  8  9  1  0  0  0  0
  1 13  1  0  0  0  0
  1 14  1  0  0  0  0
  2 15  1  0  0  0  0
  2 16  1  0  0  0  0
  3 17  1  0  0  0  0
  3 18  1  0  0  0  0
  4 19  1  0  0  0  0
  4 20  1  0  0  0  0
  5 21  1  0  0  0  0
  6 22  1  0  0  0  0
  6 23  1  0  0  0  0
  7 24  1  0  0  0  0
  7 25  1  0  0  0  0
  8 26  1  0  0  0  0
  9 27  1  0  0  0  0
 11 28  1  0  0  0  0
 12 29  1  0  0  0  0
M  END
> <FRED Chemgauss4 score>
-5.468377

$$$$
C90727446	P141907749
  -OEChem-05182014473D

 21 21  0     1  0  0  0  0  0999 V2000
  125.3552  105.3963  107.1023 C   0  0  0  0  0  0  0  0  0  0  0  0
  125.2567  105.0321  108.5491 C   0  0  0  0  0  0  0  0  0  0  0  0
  123.9982  105.4298  106.4481 C   0  0  2  0  0  0  0  0  0  0  0  0
  123.7947  105.3540  108.8299 C   0  0  1  0  0  0  0  0  0  0  0  0
  123.7141  106.7567  105.7684 C   0  0  0  0  0  0  0  0  0  0  0  0
  123.5980  106.7706  109.3673 C   0  0  0  0  0  0  0  0  0  0  0  0
  123.0684  105.1662  107.5592 N   0  0  0  0  0  0  0  0  0  0  0  0
  126.4112  105.5970  106.5169 O   0  0  0  0  0  0  0  0  0  0  0  0
  122.4285  106.7007  105.1716 O   0  0  0  0  0  0  0  0  0  0  0  0
  124.4711  107.6455  108.6737 O   0  0  0  0  0  0  0  0  0  0  0  0
  125.4769  103.9702  108.7009 H   0  0  0  0  0  0  0  0  0  0  0  0
  125.9495  105.6605  109.1217 H   0  0  0  0  0  0  0  0  0  0  0  0
  123.9410  104.6016  105.7183 H   0  0  0  0  0  0  0  0  0  0  0  0
  123.3872  104.6441  109.5714 H   0  0  0  0  0  0  0  0  0  0  0  0
  124.4576  106.9529  104.9917 H   0  0  0  0  0  0  0  0  0  0  0  0
  123.7313  107.5696  106.4986 H   0  0  0  0  0  0  0  0  0  0  0  0
  123.8306  106.8043  110.4331 H   0  0  0  0  0  0  0  0  0  0  0  0
  122.5677  107.0938  109.2086 H   0  0  0  0  0  0  0  0  0  0  0  0
  122.2939  105.8457  107.5186 H   0  0  0  0  0  0  0  0  0  0  0  0
  122.2763  107.5610  104.7463 H   0  0  0  0  0  0  0  0  0  0  0  0
  124.3257  108.5365  109.0341 H   0  0  0  0  0  0  0  0  0  0  0  0
  1  2  1  0  0  0  0
  1  3  1  0  0  0  0
  1  8  2  0  0  0  0
  2  4  1  0  0  0  0
  3  5  1  0  0  0  0
  3  7  1  0  0  0  0
  4  6  1  0  0  0  0
  4  7  1  0  0  0  0
  5  9  1  0  0  0  0
  6 10  1  0  0  0  0
  2 11  1  0  0  0  0
  2 12  1  0  0  0  0
  3 13  1  0  0  0  0
  4 14  1  0  0  0  0
  5 15  1  0  0  0  0
  5 16  1  0  0  0  0
  6 17  1  0  0  0  0
  6 18  1  0  0  0  0
  7 19  1  0  0  0  0
  9 20  1  0  0  0  0
 10 21  1  0  0  0  0
M  END
> <FRED Chemgauss4 score>
-5.467665

$$$$
C82596055	P129090670
  -OEChem-05182014473D

 29 28  0     1  0  0  0  0  0999 V2000
  123.3038  107.3281  109.5189 C   0  0  0  0  0  0  0  0  0  0  0  0
  120.9572  106.5980  104.8845 C   0  0  0  0  0  0  0  0  0  0  0  0
  125.1380  105.9827  108.7458 C   0  0  0  0  0  0  0  0  0  0  0  0
  124.2371  107.7089  107.3381 C   0  0  0  0  0  0  0  0  0  0  0  0
  124.7599  104.6199  109.2966 C   0  0  0  0  0  0  0  0  0  0  0  0
  123.2259  106.3372  105.4395 C   0  0  0  0  0  0  0  0  0  0  0  0
  124.4594  107.0811  105.9564 C   0  0  1  0  0  0  0  0  0  0  0  0
  124.8347  108.1122  105.0103 N   0  0  0  0  0  0  0  0  0  0  0  0
  123.9280  106.7055  108.3504 N   0  0  2  0  0  0  0  0  0  0  0  0
  124.0414  103.8936  108.3077 O   0  0  0  0  0  0  0  0  0  0  0  0
  122.1379  107.2495  105.3299 O   0  0  0  0  0  0  0  0  0  0  0  0
  122.4008  107.8668  109.2201 H   0  0  0  0  0  0  0  0  0  0  0  0
  123.9960  108.0337  109.9863 H   0  0  0  0  0  0  0  0  0  0  0  0
  123.0317  106.5654  110.2535 H   0  0  0  0  0  0  0  0  0  0  0  0
  120.1445  107.3249  104.8117 H   0  0  0  0  0  0  0  0  0  0  0  0
  120.6897  105.8056  105.5880 H   0  0  0  0  0  0  0  0  0  0  0  0
  121.1419  106.1615  103.9001 H   0  0  0  0  0  0  0  0  0  0  0  0
  125.6656  106.5813  109.4952 H   0  0  0  0  0  0  0  0  0  0  0  0
  125.7741  105.8733  107.8622 H   0  0  0  0  0  0  0  0  0  0  0  0
  123.4108  108.4283  107.2905 H   0  0  0  0  0  0  0  0  0  0  0  0
  125.1276  108.2688  107.6475 H   0  0  0  0  0  0  0  0  0  0  0  0
  124.1100  104.7357  110.1695 H   0  0  0  0  0  0  0  0  0  0  0  0
  125.6445  104.0424  109.5842 H   0  0  0  0  0  0  0  0  0  0  0  0
  123.4101  105.8988  104.4526 H   0  0  0  0  0  0  0  0  0  0  0  0
  122.9204  105.5434  106.1277 H   0  0  0  0  0  0  0  0  0  0  0  0
  125.3139  106.3939  105.9920 H   0  0  0  0  0  0  0  0  0  0  0  0
  124.6999  107.9391  104.0322 H   0  0  0  0  0  0  0  0  0  0  0  0
  125.3993  108.8761  105.3310 H   0  0  0  0  0  0  0  0  0  0  0  0
  123.8200  103.0331  108.6986 H   0  0  0  0  0  0  0  0  0  0  0  0
  1  9  1  0  0  0  0
  2 11  1  0  0  0  0
  3  5  1  0  0  0  0
  3  9  1  0  0  0  0
  4  7  1  0  0  0  0
  4  9  1  0  0  0  0
  5 10  1  0  0  0  0
  6  7  1  0  0  0  0
  6 11  1  0  0  0  0
  7  8  1  0  0  0  0
  1 12  1  0  0  0  0
  1 13  1  0  0  0  0
  1 14  1  0  0  0  0
  2 15  1  0  0  0  0
  2 16  1  0  0  0  0
  2 17  1  0  0  0  0
  3 18  1  0  0  0  0
  3 19  1  0  0  0  0
  4 20  1  0  0  0  0
  4 21  1  0  0  0  0
  5 22  1  0  0  0  0
  5 23  1  0  0  0  0
  6 24  1  0  0  0  0
  6 25  1  0  0  0  0
  7 26  1  0  0  0  0
  8 27  1  0  0  0  0
  8 28  1  0  0  0  0
 10 29  1  0  0  0  0
M  END
> <FRED Chemgauss4 score>
-5.458135

$$$$
C88061774	P137749499
  -OEChem-05182014473D

 26 25  0     0  0  0  0  0  0999 V2000
  121.1979  105.6704  104.4606 C   0  0  0  0  0  0  0  0  0  0  0  0
  120.6682  104.9586  102.1355 C   0  0  0  0  0  0  0  0  0  0  0  0
  121.5418  105.0852  105.8210 C   0  0  0  0  0  0  0  0  0  0  0  0
  125.6617  106.8948  107.1321 C   0  0  0  0  0  0  0  0  0  0  0  0
  122.9011  105.5183  106.3438 C   0  0  0  0  0  0  0  0  0  0  0  0
  124.3682  107.4624  107.6841 C   0  0  0  0  0  0  0  0  0  0  0  0
  126.0345  107.5068  105.8860 N   0  0  0  0  0  0  0  0  0  0  0  0
  120.9889  104.6760  103.5156 N   0  0  0  0  0  0  0  0  0  0  0  0
  121.1367  106.8771  104.2419 O   0  0  0  0  0  0  0  0  0  0  0  0
  121.8060  107.7185  107.2342 O   0  0  0  0  0  0  0  0  0  0  0  0
  123.4052  107.8549  105.2859 O   0  0  0  0  0  0  0  0  0  0  0  0
  123.0087  107.2687  106.5546 S   0  0  0  0  0  0  0  0  0  0  0  0
  119.5846  105.0231  102.0072 H   0  0  0  0  0  0  0  0  0  0  0  0
  121.0526  104.1656  101.4882 H   0  0  0  0  0  0  0  0  0  0  0  0
  121.1159  105.9081  101.8302 H   0  0  0  0  0  0  0  0  0  0  0  0
  120.7540  105.3549  106.5343 H   0  0  0  0  0  0  0  0  0  0  0  0
  121.5340  103.9941  105.7099 H   0  0  0  0  0  0  0  0  0  0  0  0
  126.4925  107.0352  107.8306 H   0  0  0  0  0  0  0  0  0  0  0  0
  125.5505  105.8234  106.9393 H   0  0  0  0  0  0  0  0  0  0  0  0
  123.7169  105.2215  105.6783 H   0  0  0  0  0  0  0  0  0  0  0  0
  123.0819  105.0836  107.3319 H   0  0  0  0  0  0  0  0  0  0  0  0
  124.4686  108.5376  107.8601 H   0  0  0  0  0  0  0  0  0  0  0  0
  124.0782  106.9768  108.6208 H   0  0  0  0  0  0  0  0  0  0  0  0
  126.6033  106.9893  105.2345 H   0  0  0  0  0  0  0  0  0  0  0  0
  125.9013  108.4987  105.7660 H   0  0  0  0  0  0  0  0  0  0  0  0
  121.0647  103.7060  103.8073 H   0  0  0  0  0  0  0  0  0  0  0  0
  1  3  1  0  0  0  0
  1  8  1  0  0  0  0
  1  9  2  0  0  0  0
  2  8  1  0  0  0  0
  3  5  1  0  0  0  0
  4  6  1  0  0  0  0
  4  7  1  0  0  0  0
  5 12  1  0  0  0  0
  6 12  1  0  0  0  0
 10 12  2  0  0  0  0
 11 12  2  0  0  0  0
  2 13  1  0  0  0  0
  2 14  1  0  0  0  0
  2 15  1  0  0  0  0
  3 16  1  0  0  0  0
  3 17  1  0  0  0  0
  4 18  1  0  0  0  0
  4 19  1  0  0  0  0
  5 20  1  0  0  0  0
  5 21  1  0  0  0  0
  6 22  1  0  0  0  0
  6 23  1  0  0  0  0
  7 24  1  0  0  0  0
  7 25  1  0  0  0  0
  8 26  1  0  0  0  0
M  END
> <FRED Chemgauss4 score>
-5.455087

$$$$
C69972231	P107842260
  -OEChem-05182014473D

 24 24  0     1  0  0  0  0  0999 V2000
  125.5668  105.8130  107.1557 C   0  0  0  0  0  0  0  0  0  0  0  0
  122.5926  105.9450  105.7290 C   0  0  0  0  0  0  0  0  0  0  0  0
  126.1414  106.1433  108.5152 C   0  0  0  0  0  0  0  0  0  0  0  0
  123.8977  105.3099  108.7557 C   0  0  0  0  0  0  0  0  0  0  0  0
  124.9098  106.2325  109.4103 C   0  0  2  0  0  0  0  0  0  0  0  0
  120.2232  106.6550  105.4202 C   0  0  0  0  0  0  0  0  0  0  0  0
  123.3997  104.8225  106.3298 C   0  0  0  0  0  0  0  0  0  0  0  0
  124.2708  105.3478  107.3590 N   0  0  0  0  0  0  0  0  0  0  0  0
  121.2313  105.7354  105.8964 N   0  0  0  0  0  0  0  0  0  0  0  0
  126.1789  105.9082  106.1022 O   0  0  0  0  0  0  0  0  0  0  0  0
  123.0964  106.9149  105.1688 O   0  0  0  0  0  0  0  0  0  0  0  0
  124.4258  107.5729  109.3961 O   0  0  0  0  0  0  0  0  0  0  0  0
  126.7934  105.3169  108.8151 H   0  0  0  0  0  0  0  0  0  0  0  0
  126.7013  107.0810  108.4685 H   0  0  0  0  0  0  0  0  0  0  0  0
  124.0059  104.2766  109.1005 H   0  0  0  0  0  0  0  0  0  0  0  0
  122.8642  105.6486  108.8727 H   0  0  0  0  0  0  0  0  0  0  0  0
  125.1245  105.9643  110.4487 H   0  0  0  0  0  0  0  0  0  0  0  0
  119.9942  107.3943  106.1922 H   0  0  0  0  0  0  0  0  0  0  0  0
  119.3070  106.1141  105.1681 H   0  0  0  0  0  0  0  0  0  0  0  0
  120.5789  107.1768  104.5277 H   0  0  0  0  0  0  0  0  0  0  0  0
  122.7276  104.0806  106.7709 H   0  0  0  0  0  0  0  0  0  0  0  0
  124.0066  104.3458  105.5544 H   0  0  0  0  0  0  0  0  0  0  0  0
  120.9281  104.8937  106.3776 H   0  0  0  0  0  0  0  0  0  0  0  0
  123.6466  107.5914  109.9731 H   0  0  0  0  0  0  0  0  0  0  0  0
  1  3  1  0  0  0  0
  1  8  1  0  0  0  0
  1 10  2  0  0  0  0
  2  7  1  0  0  0  0
  2  9  1  0  0  0  0
  2 11  2  0  0  0  0
  3  5  1  0  0  0  0
  4  5  1  0  0  0  0
  4  8  1  0  0  0  0
  5 12  1  0  0  0  0
  6  9  1  0  0  0  0
  7  8  1  0  0  0  0
  3 13  1  0  0  0  0
  3 14  1  0  0  0  0
  4 15  1  0  0  0  0
  4 16  1  0  0  0  0
  5 17  1  0  0  0  0
  6 18  1  0  0  0  0
  6 19  1  0  0  0  0
  6 20  1  0  0  0  0
  7 21  1  0  0  0  0
  7 22  1  0  0  0  0
  9 23  1  0  0  0  0
 12 24  1  0  0  0  0
M  END
> <FRED Chemgauss4 score>
-5.449290

$$$$
C83574386	P130729171
  -OEChem-05182014473D

 24 24  0     1  0  0  0  0  0999 V2000
  122.4613  105.3731  106.2242 C   0  0  0  0  0  0  0  0  0  0  0  0
  122.3400  106.2447  105.1539 C   0  0  0  0  0  0  0  0  0  0  0  0
  124.2769  107.3453  105.7154 C   0  0  0  0  0  0  0  0  0  0  0  0
  123.5590  105.5229  107.0643 C   0  0  0  0  0  0  0  0  0  0  0  0
  124.4888  106.5254  106.8121 C   0  0  0  0  0  0  0  0  0  0  0  0
  123.7190  104.5988  108.2257 C   0  0  0  0  0  0  0  0  0  0  0  0
  126.6365  105.5104  107.7421 C   0  0  0  0  0  0  0  0  0  0  0  0
  125.7063  106.7328  107.6962 C   0  0  2  0  0  0  0  0  0  0  0  0
  123.2227  107.2305  104.8769 N   0  0  0  0  0  0  0  0  0  0  0  0
  127.1699  105.1867  106.4447 N   0  0  0  0  0  0  0  0  0  0  0  0
  125.3036  107.1075  109.0571 N   0  0  0  0  0  0  0  0  0  0  0  0
  121.7183  104.6014  106.3941 H   0  0  0  0  0  0  0  0  0  0  0  0
  121.5019  106.1698  104.4690 H   0  0  0  0  0  0  0  0  0  0  0  0
  124.9678  108.1451  105.4670 H   0  0  0  0  0  0  0  0  0  0  0  0
  124.2991  103.7159  107.9325 H   0  0  0  0  0  0  0  0  0  0  0  0
  124.2336  105.0936  109.0589 H   0  0  0  0  0  0  0  0  0  0  0  0
  122.7447  104.2661  108.6055 H   0  0  0  0  0  0  0  0  0  0  0  0
  127.4982  105.7064  108.3904 H   0  0  0  0  0  0  0  0  0  0  0  0
  126.1334  104.6147  108.1217 H   0  0  0  0  0  0  0  0  0  0  0  0
  126.2836  107.5760  107.2949 H   0  0  0  0  0  0  0  0  0  0  0  0
  127.4724  104.2442  106.2608 H   0  0  0  0  0  0  0  0  0  0  0  0
  127.4209  105.9340  105.8182 H   0  0  0  0  0  0  0  0  0  0  0  0
  124.4903  107.6687  109.1597 H   0  0  0  0  0  0  0  0  0  0  0  0
  125.9596  106.9622  109.7889 H   0  0  0  0  0  0  0  0  0  0  0  0
  1  2  2  0  0  0  0
  1  4  1  0  0  0  0
  2  9  1  0  0  0  0
  3  5  1  0  0  0  0
  3  9  2  0  0  0  0
  4  5  2  0  0  0  0
  4  6  1  0  0  0  0
  5  8  1  0  0  0  0
  7  8  1  0  0  0  0
  7 10  1  0  0  0  0
  8 11  1  0  0  0  0
  1 12  1  0  0  0  0
  2 13  1  0  0  0  0
  3 14  1  0  0  0  0
  6 15  1  0  0  0  0
  6 16  1  0  0  0  0
  6 17  1  0  0  0  0
  7 18  1  0  0  0  0
  7 19  1  0  0  0  0
  8 20  1  0  0  0  0
 10 21  1  0  0  0  0
 10 22  1  0  0  0  0
 11 23  1  0  0  0  0
 11 24  1  0  0  0  0
M  END
> <FRED Chemgauss4 score>
-5.449006

$$$$
C95641616	P150394477
  -OEChem-05182014473D

 21 21  0     1  0  0  0  0  0999 V2000
  122.2903  105.4053  106.5851 C   0  0  0  0  0  0  0  0  0  0  0  0
  123.4784  105.4032  107.3073 C   0  0  0  0  0  0  0  0  0  0  0  0
  122.1788  106.2875  105.5225 C   0  0  0  0  0  0  0  0  0  0  0  0
  124.5043  106.2710  106.9499 C   0  0  0  0  0  0  0  0  0  0  0  0
  124.2938  107.1143  105.8708 C   0  0  0  0  0  0  0  0  0  0  0  0
  125.8013  105.2534  108.8990 C   0  0  0  0  0  0  0  0  0  0  0  0
  125.8006  106.2640  107.7414 C   0  0  1  0  0  0  0  0  0  0  0  0
  123.1535  107.1451  105.1454 N   0  0  0  0  0  0  0  0  0  0  0  0
  127.0280  105.2930  109.6517 N   0  0  0  0  0  0  0  0  0  0  0  0
  126.9478  106.0059  106.8627 N   0  0  0  0  0  0  0  0  0  0  0  0
  125.4847  108.2333  105.3339 Cl  0  0  0  0  0  0  0  0  0  0  0  0
  121.4773  104.7371  106.8454 H   0  0  0  0  0  0  0  0  0  0  0  0
  123.5951  104.7223  108.1461 H   0  0  0  0  0  0  0  0  0  0  0  0
  121.2725  106.3286  104.9276 H   0  0  0  0  0  0  0  0  0  0  0  0
  124.9965  105.4793  109.6078 H   0  0  0  0  0  0  0  0  0  0  0  0
  125.6612  104.2228  108.5560 H   0  0  0  0  0  0  0  0  0  0  0  0
  125.9482  107.2643  108.1692 H   0  0  0  0  0  0  0  0  0  0  0  0
  127.3104  104.4780  110.1710 H   0  0  0  0  0  0  0  0  0  0  0  0
  127.4742  106.1809  109.8143 H   0  0  0  0  0  0  0  0  0  0  0  0
  127.7822  105.6659  107.2809 H   0  0  0  0  0  0  0  0  0  0  0  0
  126.9117  106.3685  105.9384 H   0  0  0  0  0  0  0  0  0  0  0  0
  1  2  1  0  0  0  0
  1  3  2  0  0  0  0
  2  4  2  0  0  0  0
  3  8  1  0  0  0  0
  4  5  1  0  0  0  0
  4  7  1  0  0  0  0
  5  8  2  0  0  0  0
  5 11  1  0  0  0  0
  6  7  1  0  0  0  0
  6  9  1  0  0  0  0
  7 10  1  0  0  0  0
  1 12  1  0  0  0  0
  2 13  1  0  0  0  0
  3 14  1  0  0  0  0
  6 15  1  0  0  0  0
  6 16  1  0  0  0  0
  7 17  1  0  0  0  0
  9 18  1  0  0  0  0
  9 19  1  0  0  0  0
 10 20  1  0  0  0  0
 10 21  1  0  0  0  0
M  END
> <FRED Chemgauss4 score>
-5.448478

$$$$
C95891368	P150946078
  -OEChem-05182014473D

 21 22  0     1  0  0  0  0  0999 V2000
  124.2630  106.8694  105.2528 C   0  0  0  0  0  0  0  0  0  0  0  0
  123.4406  105.0914  106.6716 C   0  0  0  0  0  0  0  0  0  0  0  0
  122.0051  106.4606  105.3607 C   0  0  0  0  0  0  0  0  0  0  0  0
  125.4121  104.2973  107.5243 C   0  0  0  0  0  0  0  0  0  0  0  0
  124.4385  106.1675  106.5824 C   0  0  1  0  0  0  0  0  0  0  0  0
  126.7591  106.3140  107.3299 C   0  0  0  0  0  0  0  0  0  0  0  0
  122.9598  107.2298  104.9383 N   0  0  0  0  0  0  0  0  0  0  0  0
  120.7416  106.6901  105.0469 N   0  5  0  0  0  0  0  0  0  0  0  0
  122.2397  105.2951  106.1613 N   0  0  0  0  0  0  0  0  0  0  0  0
  125.7333  105.4878  106.7084 N   0  0  1  0  0  0  0  0  0  0  0  0
  123.9813  104.0459  107.2793 N   0  3  0  0  0  0  0  0  0  0  0  0
  125.2202  107.1675  104.5428 O   0  0  0  0  0  0  0  0  0  0  0  0
  125.9938  103.4306  107.1989 H   0  0  0  0  0  0  0  0  0  0  0  0
  125.5423  104.4601  108.5999 H   0  0  0  0  0  0  0  0  0  0  0  0
  124.2693  106.8898  107.3921 H   0  0  0  0  0  0  0  0  0  0  0  0
  126.9724  107.1834  106.7026 H   0  0  0  0  0  0  0  0  0  0  0  0
  127.6801  105.7391  107.4596 H   0  0  0  0  0  0  0  0  0  0  0  0
  126.4220  106.6615  108.3102 H   0  0  0  0  0  0  0  0  0  0  0  0
  120.1707  105.9127  105.3906 H   0  0  0  0  0  0  0  0  0  0  0  0
  121.5192  104.5993  106.3250 H   0  0  0  0  0  0  0  0  0  0  0  0
  123.4443  103.2031  107.4493 H   0  0  0  0  0  0  0  0  0  0  0  0
  1  5  1  0  0  0  0
  1  7  1  0  0  0  0
  1 12  2  0  0  0  0
  2  5  1  0  0  0  0
  2  9  1  0  0  0  0
  2 11  2  0  0  0  0
  3  7  2  0  0  0  0
  3  8  1  0  0  0  0
  3  9  1  0  0  0  0
  4 10  1  0  0  0  0
  4 11  1  0  0  0  0
  5 10  1  0  0  0  0
  6 10  1  0  0  0  0
  4 13  1  0  0  0  0
  4 14  1  0  0  0  0
  5 15  1  0  0  0  0
  6 16  1  0  0  0  0
  6 17  1  0  0  0  0
  6 18  1  0  0  0  0
  8 19  1  0  0  0  0
  9 20  1  0  0  0  0
 11 21  1  0  0  0  0
M  CHG  2   8  -1  11   1
M  END
> <FRED Chemgauss4 score>
-5.446180

$$$$
C82915748	P129631253
  -OEChem-05182014473D

 24 24  0     1  0  0  0  0  0999 V2000
  121.3350  105.2181  105.3054 C   0  0  0  0  0  0  0  0  0  0  0  0
  121.2618  106.2811  104.3854 C   0  0  0  0  0  0  0  0  0  0  0  0
  122.1857  105.6695  106.2847 C   0  0  0  0  0  0  0  0  0  0  0  0
  124.7839  106.2822  108.1361 C   0  0  0  0  0  0  0  0  0  0  0  0
  123.4882  107.8511  106.6566 C   0  0  0  0  0  0  0  0  0  0  0  0
  125.5936  106.6247  105.7546 C   0  0  0  0  0  0  0  0  0  0  0  0
  124.8927  107.2736  106.9662 C   0  0  2  0  0  0  0  0  0  0  0  0
  122.0065  107.3289  104.7478 N   0  0  0  0  0  0  0  0  0  0  0  0
  122.5557  106.9266  105.9066 N   0  0  0  0  0  0  0  0  0  0  0  0
  125.7919  107.5301  104.6297 N   0  0  0  0  0  0  0  0  0  0  0  0
  125.7503  108.3353  107.4080 O   0  0  0  0  0  0  0  0  0  0  0  0
  120.8403  104.2591  105.2639 H   0  0  0  0  0  0  0  0  0  0  0  0
  120.6958  106.3343  103.4664 H   0  0  0  0  0  0  0  0  0  0  0  0
  122.5496  105.2125  107.1945 H   0  0  0  0  0  0  0  0  0  0  0  0
  125.7646  105.8567  108.3779 H   0  0  0  0  0  0  0  0  0  0  0  0
  124.3743  106.7487  109.0372 H   0  0  0  0  0  0  0  0  0  0  0  0
  124.1397  105.4356  107.8702 H   0  0  0  0  0  0  0  0  0  0  0  0
  123.5859  108.7902  106.0960 H   0  0  0  0  0  0  0  0  0  0  0  0
  122.9884  108.1224  107.5972 H   0  0  0  0  0  0  0  0  0  0  0  0
  125.0249  105.7506  105.4160 H   0  0  0  0  0  0  0  0  0  0  0  0
  126.5671  106.2252  106.0669 H   0  0  0  0  0  0  0  0  0  0  0  0
  125.0582  108.1676  104.4021 H   0  0  0  0  0  0  0  0  0  0  0  0
  126.5509  107.3495  104.0068 H   0  0  0  0  0  0  0  0  0  0  0  0
  125.3183  108.7229  108.1816 H   0  0  0  0  0  0  0  0  0  0  0  0
  1  2  1  0  0  0  0
  1  3  2  0  0  0  0
  2  8  2  0  0  0  0
  3  9  1  0  0  0  0
  4  7  1  0  0  0  0
  5  7  1  0  0  0  0
  5  9  1  0  0  0  0
  6  7  1  0  0  0  0
  6 10  1  0  0  0  0
  7 11  1  0  0  0  0
  8  9  1  0  0  0  0
  1 12  1  0  0  0  0
  2 13  1  0  0  0  0
  3 14  1  0  0  0  0
  4 15  1  0  0  0  0
  4 16  1  0  0  0  0
  4 17  1  0  0  0  0
  5 18  1  0  0  0  0
  5 19  1  0  0  0  0
  6 20  1  0  0  0  0
  6 21  1  0  0  0  0
 10 22  1  0  0  0  0
 10 23  1  0  0  0  0
 11 24  1  0  0  0  0
M  END
> <FRED Chemgauss4 score>
-5.443802

$$$$
Glutamate
  -OEChem-05182014473D

 19 18  0     1  0  0  0  0  0999 V2000
  125.8022  104.9309  108.1740 C   0  0  0  0  0  0  0  0  0  0  0  0
  123.7769  107.4643  107.1135 C   0  0  0  0  0  0  0  0  0  0  0  0
  124.2992  104.8333  108.2505 C   0  0  0  0  0  0  0  0  0  0  0  0
  123.5998  104.9434  106.8927 C   0  0  0  0  0  0  0  0  0  0  0  0
  123.7530  106.2853  106.1571 C   0  0  1  0  0  0  0  0  0  0  0  0
  122.6812  106.5076  105.1891 N   0  0  0  0  0  0  0  0  0  0  0  0
  126.4010  105.6365  107.3724 O   0  0  0  0  0  0  0  0  0  0  0  0
  122.7958  108.0883  107.4966 O   0  0  0  0  0  0  0  0  0  0  0  0
  126.4254  104.1611  109.1002 O   0  0  0  0  0  0  0  0  0  0  0  0
  125.0402  107.7691  107.5127 O   0  0  0  0  0  0  0  0  0  0  0  0
  123.9368  105.5967  108.9475 H   0  0  0  0  0  0  0  0  0  0  0  0
  124.0577  103.8692  108.7151 H   0  0  0  0  0  0  0  0  0  0  0  0
  123.9409  104.1360  106.2322 H   0  0  0  0  0  0  0  0  0  0  0  0
  122.5302  104.7634  107.0610 H   0  0  0  0  0  0  0  0  0  0  0  0
  124.6981  106.2868  105.6005 H   0  0  0  0  0  0  0  0  0  0  0  0
  122.3374  105.7214  104.6825 H   0  0  0  0  0  0  0  0  0  0  0  0
  122.4771  107.4464  104.9243 H   0  0  0  0  0  0  0  0  0  0  0  0
  127.4054  104.2052  109.0881 H   0  0  0  0  0  0  0  0  0  0  0  0
  125.1127  108.5266  108.1317 H   0  0  0  0  0  0  0  0  0  0  0  0
  1  3  1  0  0  0  0
  1  7  2  0  0  0  0
  1  9  1  0  0  0  0
  2  5  1  0  0  0  0
  2  8  2  0  0  0  0
  2 10  1  0  0  0  0
  3  4  1  0  0  0  0
  4  5  1  0  0  0  0
  5  6  1  0  0  0  0
  3 11  1  0  0  0  0
  3 12  1  0  0  0  0
  4 13  1  0  0  0  0
  4 14  1  0  0  0  0
  5 15  1  0  0  0  0
  6 16  1  0  0  0  0
  6 17  1  0  0  0  0
  9 18  1  0  0  0  0
 10 19  1  0  0  0  0
M  END
> <FRED Chemgauss4 score>
-5.443576

$$$$
C86829149	P135918289
  -OEChem-05182014473D

 24 25  0     1  0  0  0  0  0999 V2000
  122.2156  105.9979  105.1272 C   0  0  0  0  0  0  0  0  0  0  0  0
  123.8638  105.6852  106.5236 C   0  0  0  0  0  0  0  0  0  0  0  0
  121.0353  105.5906  104.4725 C   0  0  0  0  0  0  0  0  0  0  0  0
  120.5448  104.3747  104.7725 C   0  0  0  0  0  0  0  0  0  0  0  0
  122.1876  103.8576  106.2765 C   0  0  0  0  0  0  0  0  0  0  0  0
  124.4772  106.8935  109.3125 C   0  0  0  0  0  0  0  0  0  0  0  0
  125.4391  106.0710  108.4638 C   0  0  0  0  0  0  0  0  0  0  0  0
  124.7375  105.0495  107.5263 C   0  0  2  0  0  0  0  0  0  0  0  0
  122.9693  107.0751  105.0980 N   0  0  0  0  0  0  0  0  0  0  0  0
  124.0144  106.8758  105.9841 N   0  0  0  0  0  0  0  0  0  0  0  0
  121.0993  103.4828  105.6721 N   0  0  0  0  0  0  0  0  0  0  0  0
  122.7473  105.0981  106.0145 N   0  0  0  0  0  0  0  0  0  0  0  0
  125.7500  104.1901  106.9176 N   0  0  0  0  0  0  0  0  0  0  0  0
  120.5495  106.2409  103.7552 H   0  0  0  0  0  0  0  0  0  0  0  0
  119.6385  104.0300  104.2848 H   0  0  0  0  0  0  0  0  0  0  0  0
  122.6774  103.1916  107.0045 H   0  0  0  0  0  0  0  0  0  0  0  0
  123.8339  106.2451  109.9158 H   0  0  0  0  0  0  0  0  0  0  0  0
  125.0372  107.5424  109.9935 H   0  0  0  0  0  0  0  0  0  0  0  0
  123.8402  107.5301  108.6908 H   0  0  0  0  0  0  0  0  0  0  0  0
  126.0628  106.7572  107.8772 H   0  0  0  0  0  0  0  0  0  0  0  0
  126.1136  105.5266  109.1370 H   0  0  0  0  0  0  0  0  0  0  0  0
  124.1594  104.3602  108.1786 H   0  0  0  0  0  0  0  0  0  0  0  0
  125.4938  103.6627  106.1117 H   0  0  0  0  0  0  0  0  0  0  0  0
  126.5807  104.0051  107.4365 H   0  0  0  0  0  0  0  0  0  0  0  0
  1  3  1  0  0  0  0
  1  9  2  0  0  0  0
  1 12  1  0  0  0  0
  2  8  1  0  0  0  0
  2 10  2  0  0  0  0
  2 12  1  0  0  0  0
  3  4  2  0  0  0  0
  4 11  1  0  0  0  0
  5 11  2  0  0  0  0
  5 12  1  0  0  0  0
  6  7  1  0  0  0  0
  7  8  1  0  0  0  0
  8 13  1  0  0  0  0
  9 10  1  0  0  0  0
  3 14  1  0  0  0  0
  4 15  1  0  0  0  0
  5 16  1  0  0  0  0
  6 17  1  0  0  0  0
  6 18  1  0  0  0  0
  6 19  1  0  0  0  0
  7 20  1  0  0  0  0
  7 21  1  0  0  0  0
  8 22  1  0  0  0  0
 13 23  1  0  0  0  0
 13 24  1  0  0  0  0
M  END
> <FRED Chemgauss4 score>
-5.442881

$$$$
C84991571	P133024477
  -OEChem-05182014473D

 28 28  0     1  0  0  0  0  0999 V2000
  118.2163  104.6617  104.9825 C   0  0  0  0  0  0  0  0  0  0  0  0
  119.3497  104.1335  104.1390 C   0  0  0  0  0  0  0  0  0  0  0  0
  118.4694  103.9772  106.3064 C   0  0  0  0  0  0  0  0  0  0  0  0
  120.4915  104.0268  105.1388 C   0  0  1  0  0  0  0  0  0  0  0  0
  121.3560  105.2790  105.1881 C   0  0  0  0  0  0  0  0  0  0  0  0
  122.1306  105.3727  106.5062 C   0  0  0  0  0  0  0  0  0  0  0  0
  124.3007  106.4016  105.7364 C   0  0  0  0  0  0  0  0  0  0  0  0
  123.0306  106.6130  106.5623 C   0  0  1  0  0  0  0  0  0  0  0  0
  125.1380  107.5793  105.7921 N   0  0  0  0  0  0  0  0  0  0  0  0
  119.8910  103.8409  106.4329 O   0  0  0  0  0  0  0  0  0  0  0  0
  122.3042  107.7200  106.0305 O   0  0  0  0  0  0  0  0  0  0  0  0
  118.1969  105.7517  105.0608 H   0  0  0  0  0  0  0  0  0  0  0  0
  117.2576  104.3308  104.5659 H   0  0  0  0  0  0  0  0  0  0  0  0
  119.1202  103.1749  103.6540 H   0  0  0  0  0  0  0  0  0  0  0  0
  119.5876  104.8596  103.3459 H   0  0  0  0  0  0  0  0  0  0  0  0
  118.1179  104.5892  107.1428 H   0  0  0  0  0  0  0  0  0  0  0  0
  117.9970  102.9938  106.3684 H   0  0  0  0  0  0  0  0  0  0  0  0
  121.1097  103.1576  104.9333 H   0  0  0  0  0  0  0  0  0  0  0  0
  122.0576  105.2638  104.3459 H   0  0  0  0  0  0  0  0  0  0  0  0
  120.7147  106.1585  105.0612 H   0  0  0  0  0  0  0  0  0  0  0  0
  121.4104  105.4041  107.3338 H   0  0  0  0  0  0  0  0  0  0  0  0
  122.7401  104.4697  106.6327 H   0  0  0  0  0  0  0  0  0  0  0  0
  124.8735  105.5486  106.1151 H   0  0  0  0  0  0  0  0  0  0  0  0
  124.0489  106.2097  104.6882 H   0  0  0  0  0  0  0  0  0  0  0  0
  123.2804  106.8412  107.6057 H   0  0  0  0  0  0  0  0  0  0  0  0
  125.7817  107.7506  105.0413 H   0  0  0  0  0  0  0  0  0  0  0  0
  125.2072  108.0825  106.6579 H   0  0  0  0  0  0  0  0  0  0  0  0
  121.5186  107.8263  106.5883 H   0  0  0  0  0  0  0  0  0  0  0  0
  1  2  1  0  0  0  0
  1  3  1  0  0  0  0
  2  4  1  0  0  0  0
  3 10  1  0  0  0  0
  4  5  1  0  0  0  0
  4 10  1  0  0  0  0
  5  6  1  0  0  0  0
  6  8  1  0  0  0  0
  7  8  1  0  0  0  0
  7  9  1  0  0  0  0
  8 11  1  0  0  0  0
  1 12  1  0  0  0  0
  1 13  1  0  0  0  0
  2 14  1  0  0  0  0
  2 15  1  0  0  0  0
  3 16  1  0  0  0  0
  3 17  1  0  0  0  0
  4 18  1  0  0  0  0
  5 19  1  0  0  0  0
  5 20  1  0  0  0  0
  6 21  1  0  0  0  0
  6 22  1  0  0  0  0
  7 23  1  0  0  0  0
  7 24  1  0  0  0  0
  8 25  1  0  0  0  0
  9 26  1  0  0  0  0
  9 27  1  0  0  0  0
 11 28  1  0  0  0  0
M  END
> <FRED Chemgauss4 score>
-5.442082

$$$$
C39134825	P59289426
  -OEChem-05182014473D

 20 20  0     1  0  0  0  0  0999 V2000
  126.9443  105.7904  108.1339 C   0  0  0  0  0  0  0  0  0  0  0  0
  125.9650  105.5719  109.0801 C   0  0  0  0  0  0  0  0  0  0  0  0
  125.2300  106.5913  107.0251 C   0  0  0  0  0  0  0  0  0  0  0  0
  122.0440  107.4555  106.9254 C   0  0  0  0  0  0  0  0  0  0  0  0
  124.4048  107.2213  105.9209 C   0  0  1  0  0  0  0  0  0  0  0  0
  122.9411  106.7335  105.9209 C   0  0  2  0  0  0  0  0  0  0  0  0
  126.5247  106.3745  106.9548 N   0  0  0  0  0  0  0  0  0  0  0  0
  122.3811  106.8699  104.5922 N   0  0  0  0  0  0  0  0  0  0  0  0
  124.4635  108.6450  106.0058 O   0  0  0  0  0  0  0  0  0  0  0  0
  124.4538  106.1179  108.4805 S   0  0  0  0  0  0  0  0  0  0  0  0
  127.9897  105.5403  108.2552 H   0  0  0  0  0  0  0  0  0  0  0  0
  126.0626  105.1342  110.0634 H   0  0  0  0  0  0  0  0  0  0  0  0
  122.0377  108.5356  106.7535 H   0  0  0  0  0  0  0  0  0  0  0  0
  122.4008  107.2860  107.9478 H   0  0  0  0  0  0  0  0  0  0  0  0
  121.0118  107.0920  106.8806 H   0  0  0  0  0  0  0  0  0  0  0  0
  124.8792  106.9614  104.9651 H   0  0  0  0  0  0  0  0  0  0  0  0
  122.9106  105.6589  106.1380 H   0  0  0  0  0  0  0  0  0  0  0  0
  121.3841  106.9059  104.4916 H   0  0  0  0  0  0  0  0  0  0  0  0
  122.9786  106.7211  103.8008 H   0  0  0  0  0  0  0  0  0  0  0  0
  123.9205  108.9854  105.2789 H   0  0  0  0  0  0  0  0  0  0  0  0
  1  2  2  0  0  0  0
  1  7  1  0  0  0  0
  2 10  1  0  0  0  0
  3  5  1  0  0  0  0
  3  7  2  0  0  0  0
  3 10  1  0  0  0  0
  4  6  1  0  0  0  0
  5  6  1  0  0  0  0
  5  9  1  0  0  0  0
  6  8  1  0  0  0  0
  1 11  1  0  0  0  0
  2 12  1  0  0  0  0
  4 13  1  0  0  0  0
  4 14  1  0  0  0  0
  4 15  1  0  0  0  0
  5 16  1  0  0  0  0
  6 17  1  0  0  0  0
  8 18  1  0  0  0  0
  8 19  1  0  0  0  0
  9 20  1  0  0  0  0
M  END
> <FRED Chemgauss4 score>
-5.432662

$$$$
C97373805	P154225540
  -OEChem-05182014473D

 46 48  0     1  0  0  0  0  0999 V2000
  122.1549  106.4686  108.4019 C   0  0  0  0  0  0  0  0  0  0  0  0
  123.7606  108.1293  107.6943 C   0  0  0  0  0  0  0  0  0  0  0  0
  121.8118  107.2656  109.4939 C   0  0  0  0  0  0  0  0  0  0  0  0
  123.4174  108.9264  108.7863 C   0  0  0  0  0  0  0  0  0  0  0  0
  118.0140  105.4585   99.4397 C   0  0  0  0  0  0  0  0  0  0  0  0
  119.2279  104.9204   99.7967 C   0  0  0  0  0  0  0  0  0  0  0  0
  117.7095  104.5915  101.3596 C   0  0  0  0  0  0  0  0  0  0  0  0
  123.1294  106.9004  107.5021 C   0  0  0  0  0  0  0  0  0  0  0  0
  122.4429  108.4945  109.6861 C   0  0  0  0  0  0  0  0  0  0  0  0
  124.9493  106.2414  105.9054 C   0  0  0  0  0  0  0  0  0  0  0  0
  122.0897  105.8071  102.8227 C   0  0  0  0  0  0  0  0  0  0  0  0
  120.3225  106.4674  104.3250 C   0  0  0  0  0  0  0  0  0  0  0  0
  122.9963  105.4993  104.0210 C   0  0  0  0  0  0  0  0  0  0  0  0
  121.2259  106.1611  105.5260 C   0  0  0  0  0  0  0  0  0  0  0  0
  120.0066  103.6695  101.8436 C   0  0  0  0  0  0  0  0  0  0  0  0
  120.2155  104.3097  103.2117 C   0  0  0  0  0  0  0  0  0  0  0  0
  123.5007  106.0372  106.3169 C   0  0  2  0  0  0  0  0  0  0  0  0
  117.0731  105.2506  100.4170 N   0  0  0  0  0  0  0  0  0  0  0  0
  119.0173  104.3689  101.0290 N   0  0  0  0  0  0  0  0  0  0  0  0
  120.6556  105.7002  103.1183 N   0  0  0  0  0  0  0  0  0  0  0  0
  122.6399  106.3345  105.1738 N   0  0  0  0  0  0  0  0  0  0  0  0
  125.8139  105.3578  106.5156 N   0  0  0  0  0  0  0  0  0  0  0  0
  125.3128  107.0990  105.1036 O   0  0  0  0  0  0  0  0  0  0  0  0
  122.0192  109.4777  111.0332 Cl  0  0  0  0  0  0  0  0  0  0  0  0
  121.6588  105.5122  108.2591 H   0  0  0  0  0  0  0  0  0  0  0  0
  124.5207  108.4732  106.9977 H   0  0  0  0  0  0  0  0  0  0  0  0
  121.0504  106.9162  110.1865 H   0  0  0  0  0  0  0  0  0  0  0  0
  123.9177  109.8816  108.9233 H   0  0  0  0  0  0  0  0  0  0  0  0
  117.7697  105.9851   98.5287 H   0  0  0  0  0  0  0  0  0  0  0  0
  120.1868  104.8841   99.2988 H   0  0  0  0  0  0  0  0  0  0  0  0
  117.2808  104.2530  102.2930 H   0  0  0  0  0  0  0  0  0  0  0  0
  122.3316  106.8194  102.4311 H   0  0  0  0  0  0  0  0  0  0  0  0
  122.3509  105.1035  102.0056 H   0  0  0  0  0  0  0  0  0  0  0  0
  119.2748  106.2524  104.6206 H   0  0  0  0  0  0  0  0  0  0  0  0
  120.3527  107.5587  104.1127 H   0  0  0  0  0  0  0  0  0  0  0  0
  122.9252  104.4323  104.2723 H   0  0  0  0  0  0  0  0  0  0  0  0
  124.0342  105.6965  103.7266 H   0  0  0  0  0  0  0  0  0  0  0  0
  120.9596  106.8462  106.3400 H   0  0  0  0  0  0  0  0  0  0  0  0
  121.0322  105.1400  105.8821 H   0  0  0  0  0  0  0  0  0  0  0  0
  120.9463  103.6722  101.2784 H   0  0  0  0  0  0  0  0  0  0  0  0
  119.6890  102.6243  101.9388 H   0  0  0  0  0  0  0  0  0  0  0  0
  119.2750  104.3121  103.7711 H   0  0  0  0  0  0  0  0  0  0  0  0
  120.9633  103.7673  103.7990 H   0  0  0  0  0  0  0  0  0  0  0  0
  123.3555  104.9785  106.5642 H   0  0  0  0  0  0  0  0  0  0  0  0
  125.4972  104.6474  107.1677 H   0  0  0  0  0  0  0  0  0  0  0  0
  126.8096  105.3870  106.3232 H   0  0  0  0  0  0  0  0  0  0  0  0
  1  3  1  0  0  0  0
  1  8  2  0  0  0  0
  2  4  2  0  0  0  0
  2  8  1  0  0  0  0
  3  9  2  0  0  0  0
  4  9  1  0  0  0  0
  5  6  2  0  0  0  0
  5 18  1  0  0  0  0
  6 19  1  0  0  0  0
  7 18  2  0  0  0  0
  7 19  1  0  0  0  0
  8 17  1  0  0  0  0
  9 24  1  0  0  0  0
 10 17  1  0  0  0  0
 10 22  1  0  0  0  0
 10 23  2  0  0  0  0
 11 13  1  0  0  0  0
 11 20  1  0  0  0  0
 12 14  1  0  0  0  0
 12 20  1  0  0  0  0
 13 21  1  0  0  0  0
 14 21  1  0  0  0  0
 15 16  1  0  0  0  0
 15 19  1  0  0  0  0
 16 20  1  0  0  0  0
 17 21  1  0  0  0  0
  1 25  1  0  0  0  0
  2 26  1  0  0  0  0
  3 27  1  0  0  0  0
  4 28  1  0  0  0  0
  5 29  1  0  0  0  0
  6 30  1  0  0  0  0
  7 31  1  0  0  0  0
 11 32  1  0  0  0  0
 11 33  1  0  0  0  0
 12 34  1  0  0  0  0
 12 35  1  0  0  0  0
 13 36  1  0  0  0  0
 13 37  1  0  0  0  0
 14 38  1  0  0  0  0
 14 39  1  0  0  0  0
 15 40  1  0  0  0  0
 15 41  1  0  0  0  0
 16 42  1  0  0  0  0
 16 43  1  0  0  0  0
 17 44  1  0  0  0  0
 22 45  1  0  0  0  0
 22 46  1  0  0  0  0
M  END
> <FRED Chemgauss4 score>
-5.424325

$$$$
C78724846	P122853911
  -OEChem-05182014473D

 20 20  0     1  0  0  0  0  0999 V2000
  123.1726  106.2217  106.8393 C   0  0  0  0  0  0  0  0  0  0  0  0
  124.6015  107.4703  105.9697 C   0  0  0  0  0  0  0  0  0  0  0  0
  120.9159  104.0030  105.2650 C   0  0  0  0  0  0  0  0  0  0  0  0
  121.1740  106.5042  105.2364 C   0  0  0  0  0  0  0  0  0  0  0  0
  120.4462  105.3170  105.8736 C   0  0  1  0  0  0  0  0  0  0  0  0
  124.4539  106.6665  106.9971 N   0  0  0  0  0  0  0  0  0  0  0  0
  123.4541  107.4956  105.2399 N   0  0  0  0  0  0  0  0  0  0  0  0
  122.5180  106.6997  105.7789 N   0  0  0  0  0  0  0  0  0  0  0  0
  125.7554  108.1382  105.7408 N   0  0  0  0  0  0  0  0  0  0  0  0
  119.0444  105.4201  105.6335 O   0  0  0  0  0  0  0  0  0  0  0  0
  122.7186  105.5246  107.5323 H   0  0  0  0  0  0  0  0  0  0  0  0
  120.7761  103.9945  104.1797 H   0  0  0  0  0  0  0  0  0  0  0  0
  121.9775  103.8399  105.4807 H   0  0  0  0  0  0  0  0  0  0  0  0
  120.3738  103.1542  105.6963 H   0  0  0  0  0  0  0  0  0  0  0  0
  121.2920  106.3621  104.1553 H   0  0  0  0  0  0  0  0  0  0  0  0
  120.6182  107.4369  105.3910 H   0  0  0  0  0  0  0  0  0  0  0  0
  120.6024  105.2861  106.9578 H   0  0  0  0  0  0  0  0  0  0  0  0
  126.5546  108.0838  106.3871 H   0  0  0  0  0  0  0  0  0  0  0  0
  125.8547  108.8042  104.9623 H   0  0  0  0  0  0  0  0  0  0  0  0
  118.6340  104.6548  106.0649 H   0  0  0  0  0  0  0  0  0  0  0  0
  1  6  2  0  0  0  0
  1  8  1  0  0  0  0
  2  6  1  0  0  0  0
  2  7  2  0  0  0  0
  2  9  1  0  0  0  0
  3  5  1  0  0  0  0
  4  5  1  0  0  0  0
  4  8  1  0  0  0  0
  5 10  1  0  0  0  0
  7  8  1  0  0  0  0
  1 11  1  0  0  0  0
  3 12  1  0  0  0  0
  3 13  1  0  0  0  0
  3 14  1  0  0  0  0
  4 15  1  0  0  0  0
  4 16  1  0  0  0  0
  5 17  1  0  0  0  0
  9 18  1  0  0  0  0
  9 19  1  0  0  0  0
 10 20  1  0  0  0  0
M  END
> <FRED Chemgauss4 score>
-5.420520

$$$$
C37996101	P57098702
  -OEChem-05182014473D

 17 17  0     0  0  0  0  0  0999 V2000
  123.8113  106.9592  105.7011 C   0  0  0  0  0  0  0  0  0  0  0  0
  121.8331  106.4789  105.2397 C   0  0  0  0  0  0  0  0  0  0  0  0
  125.6542  105.9144  107.8526 C   0  0  0  0  0  0  0  0  0  0  0  0
  124.3893  105.1807  107.4709 C   0  0  0  0  0  0  0  0  0  0  0  0
  122.7649  107.3439  104.9126 N   0  0  0  0  0  0  0  0  0  0  0  0
  122.3134  105.6227  106.1808 N   0  0  0  0  0  0  0  0  0  0  0  0
  123.5856  105.9106  106.4954 N   0  0  0  0  0  0  0  0  0  0  0  0
  120.6026  106.5028  104.6781 N   0  0  0  0  0  0  0  0  0  0  0  0
  125.4684  106.7382  108.9425 N   0  0  0  0  0  0  0  0  0  0  0  0
  126.7242  105.7966  107.2622 O   0  0  0  0  0  0  0  0  0  0  0  0
  124.7635  107.4742  105.6809 H   0  0  0  0  0  0  0  0  0  0  0  0
  123.7755  105.0138  108.3632 H   0  0  0  0  0  0  0  0  0  0  0  0
  124.6395  104.2039  107.0417 H   0  0  0  0  0  0  0  0  0  0  0  0
  120.3249  107.2287  104.0034 H   0  0  0  0  0  0  0  0  0  0  0  0
  119.8579  105.8544  104.9689 H   0  0  0  0  0  0  0  0  0  0  0  0
  124.5733  106.8208  109.4140 H   0  0  0  0  0  0  0  0  0  0  0  0
  126.2323  107.2940  109.3129 H   0  0  0  0  0  0  0  0  0  0  0  0
  1  5  2  0  0  0  0
  1  7  1  0  0  0  0
  2  5  1  0  0  0  0
  2  6  2  0  0  0  0
  2  8  1  0  0  0  0
  3  4  1  0  0  0  0
  3  9  1  0  0  0  0
  3 10  2  0  0  0  0
  4  7  1  0  0  0  0
  6  7  1  0  0  0  0
  1 11  1  0  0  0  0
  4 12  1  0  0  0  0
  4 13  1  0  0  0  0
  8 14  1  0  0  0  0
  8 15  1  0  0  0  0
  9 16  1  0  0  0  0
  9 17  1  0  0  0  0
M  END
> <FRED Chemgauss4 score>
-5.413232

$$$$
C83746260	P131008103
  -OEChem-05182014473D

 21 22  0     1  0  0  0  0  0999 V2000
  124.4035  106.8657  105.6749 C   0  0  0  0  0  0  0  0  0  0  0  0
  124.4230  107.0112  108.0061 C   0  0  0  0  0  0  0  0  0  0  0  0
  122.9770  108.2557  106.7703 C   0  0  0  0  0  0  0  0  0  0  0  0
  126.6073  103.4321  109.8404 C   0  0  0  0  0  0  0  0  0  0  0  0
  124.9545  106.4419  106.8670 C   0  0  0  0  0  0  0  0  0  0  0  0
  126.0667  104.5859  108.1870 C   0  0  0  0  0  0  0  0  0  0  0  0
  126.0456  105.4393  106.9208 C   0  0  2  0  0  0  0  0  0  0  0  0
  123.4099  107.7744  105.5895 N   0  0  0  0  0  0  0  0  0  0  0  0
  123.4302  107.9247  107.9945 N   0  0  0  0  0  0  0  0  0  0  0  0
  127.1368  104.1078  108.7784 N   0  0  0  0  0  0  0  0  0  0  0  0
  124.9559  104.2062  108.8739 N   0  0  0  0  0  0  0  0  0  0  0  0
  125.2769  103.4621  109.9432 N   0  0  0  0  0  0  0  0  0  0  0  0
  127.3682  106.0707  106.7314 N   0  0  0  0  0  0  0  0  0  0  0  0
  124.7515  106.4779  104.7225 H   0  0  0  0  0  0  0  0  0  0  0  0
  124.7879  106.7450  108.9933 H   0  0  0  0  0  0  0  0  0  0  0  0
  122.1800  108.9881  106.7306 H   0  0  0  0  0  0  0  0  0  0  0  0
  127.2261  102.9050  110.5546 H   0  0  0  0  0  0  0  0  0  0  0  0
  125.9752  104.7374  106.0658 H   0  0  0  0  0  0  0  0  0  0  0  0
  124.5844  103.0828  110.5831 H   0  0  0  0  0  0  0  0  0  0  0  0
  127.4187  106.8340  106.1047 H   0  0  0  0  0  0  0  0  0  0  0  0
  128.1559  105.5802  107.0733 H   0  0  0  0  0  0  0  0  0  0  0  0
  1  5  1  0  0  0  0
  1  8  2  0  0  0  0
  2  5  2  0  0  0  0
  2  9  1  0  0  0  0
  3  8  1  0  0  0  0
  3  9  2  0  0  0  0
  4 10  2  0  0  0  0
  4 12  1  0  0  0  0
  5  7  1  0  0  0  0
  6  7  1  0  0  0  0
  6 10  1  0  0  0  0
  6 11  2  0  0  0  0
  7 13  1  0  0  0  0
 11 12  1  0  0  0  0
  1 14  1  0  0  0  0
  2 15  1  0  0  0  0
  3 16  1  0  0  0  0
  4 17  1  0  0  0  0
  7 18  1  0  0  0  0
 12 19  1  0  0  0  0
 13 20  1  0  0  0  0
 13 21  1  0  0  0  0
M  END
> <FRED Chemgauss4 score>
-5.408463

$$$$
C44473341	P67172336
  -OEChem-05182014473D

 25 25  0     1  0  0  0  0  0999 V2000
  124.4347  107.3730  105.8673 C   0  0  0  0  0  0  0  0  0  0  0  0
  124.6220  106.1543  106.5465 C   0  0  0  0  0  0  0  0  0  0  0  0
  123.3791  105.5699  106.5523 C   0  0  0  0  0  0  0  0  0  0  0  0
  122.9090  104.2868  107.1081 C   0  0  0  0  0  0  0  0  0  0  0  0
  121.1424  106.2743  105.6489 C   0  0  0  0  0  0  0  0  0  0  0  0
  125.8233  105.3553  108.6504 C   0  0  0  0  0  0  0  0  0  0  0  0
  125.9118  105.6126  107.1380 C   0  0  2  0  0  0  0  0  0  0  0  0
  123.1722  107.5533  105.4702 N   0  0  0  0  0  0  0  0  0  0  0  0
  122.5550  106.4400  105.9012 N   0  0  0  0  0  0  0  0  0  0  0  0
  125.4849  106.5473  109.3835 N   0  0  0  0  0  0  0  0  0  0  0  0
  127.0354  106.5114  106.8474 N   0  0  0  0  0  0  0  0  0  0  0  0
  125.1636  108.1389  105.6437 H   0  0  0  0  0  0  0  0  0  0  0  0
  122.5677  104.4053  108.1499 H   0  0  0  0  0  0  0  0  0  0  0  0
  122.0703  103.8657  106.5273 H   0  0  0  0  0  0  0  0  0  0  0  0
  123.7003  103.5171  107.1009 H   0  0  0  0  0  0  0  0  0  0  0  0
  120.5963  106.7057  106.4920 H   0  0  0  0  0  0  0  0  0  0  0  0
  120.8761  106.7851  104.7194 H   0  0  0  0  0  0  0  0  0  0  0  0
  120.9155  105.2091  105.5499 H   0  0  0  0  0  0  0  0  0  0  0  0
  125.0380  104.6234  108.8712 H   0  0  0  0  0  0  0  0  0  0  0  0
  126.7608  104.9709  109.0659 H   0  0  0  0  0  0  0  0  0  0  0  0
  126.1392  104.6558  106.6499 H   0  0  0  0  0  0  0  0  0  0  0  0
  125.7475  106.6171  110.3530 H   0  0  0  0  0  0  0  0  0  0  0  0
  124.8244  107.1953  108.9865 H   0  0  0  0  0  0  0  0  0  0  0  0
  127.0289  106.9923  105.9782 H   0  0  0  0  0  0  0  0  0  0  0  0
  127.8401  106.4462  107.4265 H   0  0  0  0  0  0  0  0  0  0  0  0
  1  2  1  0  0  0  0
  1  8  2  0  0  0  0
  2  3  2  0  0  0  0
  2  7  1  0  0  0  0
  3  4  1  0  0  0  0
  3  9  1  0  0  0  0
  5  9  1  0  0  0  0
  6  7  1  0  0  0  0
  6 10  1  0  0  0  0
  7 11  1  0  0  0  0
  8  9  1  0  0  0  0
  1 12  1  0  0  0  0
  4 13  1  0  0  0  0
  4 14  1  0  0  0  0
  4 15  1  0  0  0  0
  5 16  1  0  0  0  0
  5 17  1  0  0  0  0
  5 18  1  0  0  0  0
  6 19  1  0  0  0  0
  6 20  1  0  0  0  0
  7 21  1  0  0  0  0
 10 22  1  0  0  0  0
 10 23  1  0  0  0  0
 11 24  1  0  0  0  0
 11 25  1  0  0  0  0
M  END
> <FRED Chemgauss4 score>
-5.403865

$$$$
C04578981	P112129092
  -OEChem-05182014473D

 23 23  0     1  0  0  0  0  0999 V2000
  125.4960  107.3656  106.9623 C   0  0  2  0  0  0  0  0  0  0  0  0
  125.2656  107.2567  105.4696 C   0  0  1  0  0  0  0  0  0  0  0  0
  125.0473  105.9794  107.4078 C   0  0  2  0  0  0  0  0  0  0  0  0
  123.9434  106.5016  105.4102 C   0  0  1  0  0  0  0  0  0  0  0  0
  124.2617  104.6822  109.1963 C   0  0  0  0  0  0  0  0  0  0  0  0
  121.5917  106.6388  105.4212 C   0  0  0  0  0  0  0  0  0  0  0  0
  123.9612  105.6041  106.5372 O   0  0  0  0  0  0  0  0  0  0  0  0
  124.6448  108.3581  107.5284 O   0  0  0  0  0  0  0  0  0  0  0  0
  125.2262  108.4970  104.8021 O   0  0  0  0  0  0  0  0  0  0  0  0
  124.6809  105.9729  108.7762 O   0  0  0  0  0  0  0  0  0  0  0  0
  122.8139  107.3651  105.4783 O   0  0  0  0  0  0  0  0  0  0  0  0
  126.4995  107.5508  107.1891 H   0  0  0  0  0  0  0  0  0  0  0  0
  126.0968  106.6590  104.9637 H   0  0  0  0  0  0  0  0  0  0  0  0
  125.8822  105.2452  107.2802 H   0  0  0  0  0  0  0  0  0  0  0  0
  123.8805  105.8918  104.5130 H   0  0  0  0  0  0  0  0  0  0  0  0
  123.9873  104.7136  110.2535 H   0  0  0  0  0  0  0  0  0  0  0  0
  125.0726  103.9662  109.0404 H   0  0  0  0  0  0  0  0  0  0  0  0
  123.3935  104.3807  108.6056 H   0  0  0  0  0  0  0  0  0  0  0  0
  120.7507  107.3344  105.4760 H   0  0  0  0  0  0  0  0  0  0  0  0
  121.5480  105.9313  106.2531 H   0  0  0  0  0  0  0  0  0  0  0  0
  121.5475  106.0910  104.4769 H   0  0  0  0  0  0  0  0  0  0  0  0
  124.8295  108.3903  108.4846 H   0  0  0  0  0  0  0  0  0  0  0  0
  126.0853  108.9207  104.9546 H   0  0  0  0  0  0  0  0  0  0  0  0
  1  2  1  0  0  0  0
  1  3  1  0  0  0  0
  1  8  1  0  0  0  0
  2  4  1  0  0  0  0
  2  9  1  0  0  0  0
  3  7  1  0  0  0  0
  3 10  1  0  0  0  0
  4  7  1  0  0  0  0
  4 11  1  0  0  0  0
  5 10  1  0  0  0  0
  6 11  1  0  0  0  0
  1 12  1  0  0  0  0
  2 13  1  0  0  0  0
  3 14  1  0  0  0  0
  4 15  1  0  0  0  0
  5 16  1  0  0  0  0
  5 17  1  0  0  0  0
  5 18  1  0  0  0  0
  6 19  1  0  0  0  0
  6 20  1  0  0  0  0
  6 21  1  0  0  0  0
  8 22  1  0  0  0  0
  9 23  1  0  0  0  0
M  END
> <FRED Chemgauss4 score>
-5.402089

$$$$
C70648394	P108999506
  -OEChem-05182014473D

 23 23  0     1  0  0  0  0  0999 V2000
  123.3721  106.9984  105.9965 C   0  0  0  0  0  0  0  0  0  0  0  0
  122.3235  105.1049  106.1520 C   0  0  0  0  0  0  0  0  0  0  0  0
  126.8294  104.2525  109.2710 C   0  0  0  0  0  0  0  0  0  0  0  0
  124.0210  105.5627  108.0308 C   0  0  0  0  0  0  0  0  0  0  0  0
  125.4701  106.0882  108.0351 C   0  0  1  0  0  0  0  0  0  0  0  0
  126.2882  105.6778  109.2821 C   0  0  2  0  0  0  0  0  0  0  0  0
  122.5515  106.9165  104.9736 N   0  0  0  0  0  0  0  0  0  0  0  0
  121.8843  105.7118  105.0725 N   0  0  0  0  0  0  0  0  0  0  0  0
  123.2615  105.8792  106.7646 N   0  0  0  0  0  0  0  0  0  0  0  0
  126.1234  105.6439  106.7964 N   0  0  0  0  0  0  0  0  0  0  0  0
  127.4028  106.5619  109.4294 O   0  0  0  0  0  0  0  0  0  0  0  0
  124.0441  107.8143  106.2211 H   0  0  0  0  0  0  0  0  0  0  0  0
  122.0077  104.1400  106.5223 H   0  0  0  0  0  0  0  0  0  0  0  0
  127.4476  104.0952  108.3797 H   0  0  0  0  0  0  0  0  0  0  0  0
  126.0225  103.5146  109.2128 H   0  0  0  0  0  0  0  0  0  0  0  0
  127.4431  104.0395  110.1498 H   0  0  0  0  0  0  0  0  0  0  0  0
  123.4695  105.9401  108.9015 H   0  0  0  0  0  0  0  0  0  0  0  0
  124.0238  104.4692  108.1451 H   0  0  0  0  0  0  0  0  0  0  0  0
  125.4529  107.1845  107.9908 H   0  0  0  0  0  0  0  0  0  0  0  0
  125.6758  105.8057  110.1817 H   0  0  0  0  0  0  0  0  0  0  0  0
  127.1160  105.6309  106.7787 H   0  0  0  0  0  0  0  0  0  0  0  0
  125.5627  105.5742  105.9799 H   0  0  0  0  0  0  0  0  0  0  0  0
  127.8244  106.3291  110.2694 H   0  0  0  0  0  0  0  0  0  0  0  0
  1  7  2  0  0  0  0
  1  9  1  0  0  0  0
  2  8  2  0  0  0  0
  2  9  1  0  0  0  0
  3  6  1  0  0  0  0
  4  5  1  0  0  0  0
  4  9  1  0  0  0  0
  5  6  1  0  0  0  0
  5 10  1  0  0  0  0
  6 11  1  0  0  0  0
  7  8  1  0  0  0  0
  1 12  1  0  0  0  0
  2 13  1  0  0  0  0
  3 14  1  0  0  0  0
  3 15  1  0  0  0  0
  3 16  1  0  0  0  0
  4 17  1  0  0  0  0
  4 18  1  0  0  0  0
  5 19  1  0  0  0  0
  6 20  1  0  0  0  0
 10 21  1  0  0  0  0
 10 22  1  0  0  0  0
 11 23  1  0  0  0  0
M  END
> <FRED Chemgauss4 score>
-5.398149

$$$$
C85798425	P134352706
  -OEChem-05182014473D

 31 31  0     1  0  0  0  0  0999 V2000
  121.5502  107.9082  106.6311 C   0  0  0  0  0  0  0  0  0  0  0  0
  121.7141  107.8941  107.9962 C   0  0  0  0  0  0  0  0  0  0  0  0
  123.6436  107.6928  106.9506 C   0  0  0  0  0  0  0  0  0  0  0  0
  123.0220  108.5176  110.5243 C   0  0  0  0  0  0  0  0  0  0  0  0
  126.1623  105.6326  109.0085 C   0  0  0  0  0  0  0  0  0  0  0  0
  125.2060  103.8956  107.6517 C   0  0  0  0  0  0  0  0  0  0  0  0
  123.7274  107.6890  109.4644 C   0  0  0  0  0  0  0  0  0  0  0  0
  125.6016  106.0720  106.7140 C   0  0  0  0  0  0  0  0  0  0  0  0
  125.1438  107.5378  106.7712 C   0  0  1  0  0  0  0  0  0  0  0  0
  122.7550  107.7822  105.9859 N   0  0  0  0  0  0  0  0  0  0  0  0
  123.0603  107.7551  108.1855 N   0  0  0  0  0  0  0  0  0  0  0  0
  125.6017  108.2433  105.5681 N   0  0  0  0  0  0  0  0  0  0  0  0
  125.2320  105.3328  107.9206 N   0  0  0  0  0  0  0  0  0  0  0  0
  120.6260  108.0026  106.0800 H   0  0  0  0  0  0  0  0  0  0  0  0
  121.0150  107.9680  108.8174 H   0  0  0  0  0  0  0  0  0  0  0  0
  122.9686  109.5716  110.2319 H   0  0  0  0  0  0  0  0  0  0  0  0
  123.5596  108.4541  111.4754 H   0  0  0  0  0  0  0  0  0  0  0  0
  121.9983  108.1640  110.6863 H   0  0  0  0  0  0  0  0  0  0  0  0
  126.1772  106.7078  109.2045 H   0  0  0  0  0  0  0  0  0  0  0  0
  127.1723  105.3094  108.7420 H   0  0  0  0  0  0  0  0  0  0  0  0
  125.8572  105.1127  109.9207 H   0  0  0  0  0  0  0  0  0  0  0  0
  124.5092  103.6781  106.8380 H   0  0  0  0  0  0  0  0  0  0  0  0
  124.8866  103.3499  108.5438 H   0  0  0  0  0  0  0  0  0  0  0  0
  126.2017  103.5466  107.3652 H   0  0  0  0  0  0  0  0  0  0  0  0
  123.7759  106.6365  109.7658 H   0  0  0  0  0  0  0  0  0  0  0  0
  124.7578  108.0354  109.3258 H   0  0  0  0  0  0  0  0  0  0  0  0
  125.1250  105.5522  105.8750 H   0  0  0  0  0  0  0  0  0  0  0  0
  126.6855  105.9757  106.5906 H   0  0  0  0  0  0  0  0  0  0  0  0
  125.6436  108.0122  107.6259 H   0  0  0  0  0  0  0  0  0  0  0  0
  126.4687  107.9643  105.1714 H   0  0  0  0  0  0  0  0  0  0  0  0
  125.1395  109.0883  105.3248 H   0  0  0  0  0  0  0  0  0  0  0  0
  1  2  2  0  0  0  0
  1 10  1  0  0  0  0
  2 11  1  0  0  0  0
  3  9  1  0  0  0  0
  3 10  2  0  0  0  0
  3 11  1  0  0  0  0
  4  7  1  0  0  0  0
  5 13  1  0  0  0  0
  6 13  1  0  0  0  0
  7 11  1  0  0  0  0
  8  9  1  0  0  0  0
  8 13  1  0  0  0  0
  9 12  1  0  0  0  0
  1 14  1  0  0  0  0
  2 15  1  0  0  0  0
  4 16  1  0  0  0  0
  4 17  1  0  0  0  0
  4 18  1  0  0  0  0
  5 19  1  0  0  0  0
  5 20  1  0  0  0  0
  5 21  1  0  0  0  0
  6 22  1  0  0  0  0
  6 23  1  0  0  0  0
  6 24  1  0  0  0  0
  7 25  1  0  0  0  0
  7 26  1  0  0  0  0
  8 27  1  0  0  0  0
  8 28  1  0  0  0  0
  9 29  1  0  0  0  0
 12 30  1  0  0  0  0
 12 31  1  0  0  0  0
M  END
> <FRED Chemgauss4 score>
-5.397405

$$$$
C86072807	P134778184
  -OEChem-05182014473D

 28 28  0     1  0  0  0  0  0999 V2000
  124.4345  107.0605  105.7201 C   0  0  0  0  0  0  0  0  0  0  0  0
  124.3023  107.1957  108.0483 C   0  0  0  0  0  0  0  0  0  0  0  0
  123.0853  108.5882  106.7265 C   0  0  0  0  0  0  0  0  0  0  0  0
  124.8519  106.5777  106.9437 C   0  0  0  0  0  0  0  0  0  0  0  0
  125.8770  102.8778  107.1958 C   0  0  0  0  0  0  0  0  0  0  0  0
  125.4274  104.1659  109.2948 C   0  0  0  0  0  0  0  0  0  0  0  0
  123.6397  103.5972  106.1721 C   0  0  0  0  0  0  0  0  0  0  0  0
  125.8551  105.4340  107.0675 C   0  0  2  0  0  0  0  0  0  0  0  0
  125.2663  104.1680  107.7694 C   0  0  0  0  0  0  0  0  0  0  0  0
  123.5493  108.0681  105.5742 N   0  0  0  0  0  0  0  0  0  0  0  0
  123.4130  108.2078  107.9761 N   0  0  0  0  0  0  0  0  0  0  0  0
  127.1102  105.8887  107.6833 N   0  0  0  0  0  0  0  0  0  0  0  0
  123.8631  104.1155  107.4708 O   0  0  0  0  0  0  0  0  0  0  0  0
  124.8077  106.6416  104.7908 H   0  0  0  0  0  0  0  0  0  0  0  0
  124.5660  106.8898  109.0559 H   0  0  0  0  0  0  0  0  0  0  0  0
  122.3735  109.3997  106.6382 H   0  0  0  0  0  0  0  0  0  0  0  0
  125.7899  102.8255  106.1063 H   0  0  0  0  0  0  0  0  0  0  0  0
  126.9406  102.8021  107.4515 H   0  0  0  0  0  0  0  0  0  0  0  0
  125.3954  101.9940  107.6292 H   0  0  0  0  0  0  0  0  0  0  0  0
  125.0074  105.0662  109.7535 H   0  0  0  0  0  0  0  0  0  0  0  0
  124.9614  103.2846  109.7466 H   0  0  0  0  0  0  0  0  0  0  0  0
  126.4874  104.1101  109.5707 H   0  0  0  0  0  0  0  0  0  0  0  0
  122.5662  103.5680  105.9703 H   0  0  0  0  0  0  0  0  0  0  0  0
  124.0619  102.5916  106.1026 H   0  0  0  0  0  0  0  0  0  0  0  0
  124.1279  104.2465  105.4415 H   0  0  0  0  0  0  0  0  0  0  0  0
  126.1155  105.1433  106.0396 H   0  0  0  0  0  0  0  0  0  0  0  0
  127.3904  106.8260  107.5166 H   0  0  0  0  0  0  0  0  0  0  0  0
  127.7141  105.1968  108.0594 H   0  0  0  0  0  0  0  0  0  0  0  0
  1  4  1  0  0  0  0
  1 10  2  0  0  0  0
  2  4  2  0  0  0  0
  2 11  1  0  0  0  0
  3 10  1  0  0  0  0
  3 11  2  0  0  0  0
  4  8  1  0  0  0  0
  5  9  1  0  0  0  0
  6  9  1  0  0  0  0
  7 13  1  0  0  0  0
  8  9  1  0  0  0  0
  8 12  1  0  0  0  0
  9 13  1  0  0  0  0
  1 14  1  0  0  0  0
  2 15  1  0  0  0  0
  3 16  1  0  0  0  0
  5 17  1  0  0  0  0
  5 18  1  0  0  0  0
  5 19  1  0  0  0  0
  6 20  1  0  0  0  0
  6 21  1  0  0  0  0
  6 22  1  0  0  0  0
  7 23  1  0  0  0  0
  7 24  1  0  0  0  0
  7 25  1  0  0  0  0
  8 26  1  0  0  0  0
 12 27  1  0  0  0  0
 12 28  1  0  0  0  0
M  END
> <FRED Chemgauss4 score>
-5.396394

$$$$
C82469324	P128880837
  -OEChem-05182014473D

 34 34  0     1  0  0  0  0  0999 V2000
  124.0496  107.2843  106.0385 C   0  0  0  0  0  0  0  0  0  0  0  0
  119.5194  107.0139  104.6472 C   0  0  0  0  0  0  0  0  0  0  0  0
  120.3394  107.2936  105.9013 C   0  0  0  0  0  0  0  0  0  0  0  0
  121.6794  105.9191  104.5988 C   0  0  0  0  0  0  0  0  0  0  0  0
  120.4249  106.1530  103.7632 C   0  0  1  0  0  0  0  0  0  0  0  0
  122.5951  105.5727  107.1546 C   0  0  0  0  0  0  0  0  0  0  0  0
  120.7096  104.1380  102.5145 C   0  0  0  0  0  0  0  0  0  0  0  0
  118.5513  105.1859  102.6429 C   0  0  0  0  0  0  0  0  0  0  0  0
  122.6521  106.9701  106.5567 C   0  0  2  0  0  0  0  0  0  0  0  0
  121.7186  107.1097  105.4486 N   0  0  2  0  0  0  0  0  0  0  0  0
  126.3255  107.4349  106.7301 N   0  0  0  0  0  0  0  0  0  0  0  0
  124.9996  107.2184  107.0446 N   0  0  0  0  0  0  0  0  0  0  0  0
  119.8034  104.9227  103.3565 N   0  0  0  0  0  0  0  0  0  0  0  0
  124.2859  107.5251  104.8560 O   0  0  0  0  0  0  0  0  0  0  0  0
  118.5734  106.5242  104.9048 H   0  0  0  0  0  0  0  0  0  0  0  0
  119.2727  107.9464  104.1250 H   0  0  0  0  0  0  0  0  0  0  0  0
  120.1623  108.3050  106.2804 H   0  0  0  0  0  0  0  0  0  0  0  0
  120.0701  106.5745  106.6857 H   0  0  0  0  0  0  0  0  0  0  0  0
  121.5907  105.0047  105.2011 H   0  0  0  0  0  0  0  0  0  0  0  0
  122.5715  105.8313  103.9693 H   0  0  0  0  0  0  0  0  0  0  0  0
  120.6852  106.7279  102.8696 H   0  0  0  0  0  0  0  0  0  0  0  0
  122.8790  104.8139  106.4181 H   0  0  0  0  0  0  0  0  0  0  0  0
  123.2726  105.4871  108.0110 H   0  0  0  0  0  0  0  0  0  0  0  0
  121.5847  105.3318  107.5046 H   0  0  0  0  0  0  0  0  0  0  0  0
  120.2272  103.2051  102.2111 H   0  0  0  0  0  0  0  0  0  0  0  0
  121.6241  103.8988  103.0640 H   0  0  0  0  0  0  0  0  0  0  0  0
  120.9773  104.7035  101.6179 H   0  0  0  0  0  0  0  0  0  0  0  0
  118.0873  104.2442  102.3384 H   0  0  0  0  0  0  0  0  0  0  0  0
  118.7441  105.7879  101.7508 H   0  0  0  0  0  0  0  0  0  0  0  0
  117.8554  105.7286  103.2883 H   0  0  0  0  0  0  0  0  0  0  0  0
  122.3650  107.7138  107.3081 H   0  0  0  0  0  0  0  0  0  0  0  0
  126.7493  107.8926  107.5362 H   0  0  0  0  0  0  0  0  0  0  0  0
  126.3424  108.1209  105.9765 H   0  0  0  0  0  0  0  0  0  0  0  0
  124.7623  107.0181  108.0111 H   0  0  0  0  0  0  0  0  0  0  0  0
  1  9  1  0  0  0  0
  1 12  1  0  0  0  0
  1 14  2  0  0  0  0
  2  3  1  0  0  0  0
  2  5  1  0  0  0  0
  3 10  1  0  0  0  0
  4  5  1  0  0  0  0
  4 10  1  0  0  0  0
  5 13  1  0  0  0  0
  6  9  1  0  0  0  0
  7 13  1  0  0  0  0
  8 13  1  0  0  0  0
  9 10  1  0  0  0  0
 11 12  1  0  0  0  0
  2 15  1  0  0  0  0
  2 16  1  0  0  0  0
  3 17  1  0  0  0  0
  3 18  1  0  0  0  0
  4 19  1  0  0  0  0
  4 20  1  0  0  0  0
  5 21  1  0  0  0  0
  6 22  1  0  0  0  0
  6 23  1  0  0  0  0
  6 24  1  0  0  0  0
  7 25  1  0  0  0  0
  7 26  1  0  0  0  0
  7 27  1  0  0  0  0
  8 28  1  0  0  0  0
  8 29  1  0  0  0  0
  8 30  1  0  0  0  0
  9 31  1  0  0  0  0
 11 32  1  0  0  0  0
 11 33  1  0  0  0  0
 12 34  1  0  0  0  0
M  END
> <FRED Chemgauss4 score>
-5.392651

$$$$
C86491376	P135426479
  -OEChem-05182014473D

 23 24  0     0  0  0  0  0  0999 V2000
  120.6551  107.5129  106.3797 C   0  0  0  0  0  0  0  0  0  0  0  0
  124.4702  106.4197  106.6606 C   0  0  0  0  0  0  0  0  0  0  0  0
  118.9098  106.9241  105.3130 C   0  0  0  0  0  0  0  0  0  0  0  0
  121.0183  106.3922  105.6708 C   0  0  0  0  0  0  0  0  0  0  0  0
  125.2842  107.4893  106.3842 C   0  0  0  0  0  0  0  0  0  0  0  0
  119.7421  104.9025  104.0984 C   0  0  0  0  0  0  0  0  0  0  0  0
  122.2941  105.6616  105.5809 C   0  0  0  0  0  0  0  0  0  0  0  0
  119.3413  107.8387  106.1529 N   0  0  0  0  0  0  0  0  0  0  0  0
  124.7614  108.2081  105.3452 N   0  0  0  0  0  0  0  0  0  0  0  0
  123.6361  107.6142  104.9633 N   0  0  0  0  0  0  0  0  0  0  0  0
  123.4632  106.5421  105.7533 N   0  0  0  0  0  0  0  0  0  0  0  0
  119.8899  106.0262  104.9926 N   0  0  0  0  0  0  0  0  0  0  0  0
  126.4313  107.8101  107.0157 N   0  0  0  0  0  0  0  0  0  0  0  0
  121.2710  108.1035  107.0426 H   0  0  0  0  0  0  0  0  0  0  0  0
  124.5156  105.6190  107.3856 H   0  0  0  0  0  0  0  0  0  0  0  0
  117.9094  106.8616  104.9070 H   0  0  0  0  0  0  0  0  0  0  0  0
  119.9948  105.2388  103.0894 H   0  0  0  0  0  0  0  0  0  0  0  0
  120.4121  104.0971  104.4119 H   0  0  0  0  0  0  0  0  0  0  0  0
  118.7095  104.5442  104.1357 H   0  0  0  0  0  0  0  0  0  0  0  0
  122.3828  104.8602  106.3419 H   0  0  0  0  0  0  0  0  0  0  0  0
  122.4242  105.1454  104.6084 H   0  0  0  0  0  0  0  0  0  0  0  0
  126.7813  107.2757  107.8258 H   0  0  0  0  0  0  0  0  0  0  0  0
  126.9682  108.6597  106.7826 H   0  0  0  0  0  0  0  0  0  0  0  0
  1  4  2  0  0  0  0
  1  8  1  0  0  0  0
  2  5  2  0  0  0  0
  2 11  1  0  0  0  0
  3  8  2  0  0  0  0
  3 12  1  0  0  0  0
  4  7  1  0  0  0  0
  4 12  1  0  0  0  0
  5  9  1  0  0  0  0
  5 13  1  0  0  0  0
  6 12  1  0  0  0  0
  7 11  1  0  0  0  0
  9 10  2  0  0  0  0
 10 11  1  0  0  0  0
  1 14  1  0  0  0  0
  2 15  1  0  0  0  0
  3 16  1  0  0  0  0
  6 17  1  0  0  0  0
  6 18  1  0  0  0  0
  6 19  1  0  0  0  0
  7 20  1  0  0  0  0
  7 21  1  0  0  0  0
 13 22  1  0  0  0  0
 13 23  1  0  0  0  0
M  END
> <FRED Chemgauss4 score>
-5.382999

$$$$
C34616736	P51361932
  -OEChem-05182014473D

 16 16  0     1  0  0  0  0  0999 V2000
  125.4985  105.8789  107.9166 C   0  0  0  0  0  0  0  0  0  0  0  0
  123.6500  106.7640  105.8718 C   0  0  0  0  0  0  0  0  0  0  0  0
  125.9970  107.3973  105.1656 C   0  0  0  0  0  0  0  0  0  0  0  0
  124.7885  104.8907  107.0265 C   0  0  0  0  0  0  0  0  0  0  0  0
  124.9039  107.5534  106.1685 C   0  0  2  0  0  0  0  0  0  0  0  0
  123.6122  105.5146  106.4602 N   0  0  0  0  0  0  0  0  0  0  0  0
  125.4383  107.1838  107.4653 N   0  0  0  0  0  0  0  0  0  0  0  0
  126.1658  105.5245  108.8861 O   0  0  0  0  0  0  0  0  0  0  0  0
  122.7906  107.1732  105.0935 O   0  0  0  0  0  0  0  0  0  0  0  0
  125.7964  107.1807  103.9751 O   0  0  0  0  0  0  0  0  0  0  0  0
  127.0229  107.4886  105.5606 H   0  0  0  0  0  0  0  0  0  0  0  0
  125.4444  104.5877  106.2010 H   0  0  0  0  0  0  0  0  0  0  0  0
  124.4854  104.0105  107.6087 H   0  0  0  0  0  0  0  0  0  0  0  0
  124.6289  108.6405  106.2131 H   0  0  0  0  0  0  0  0  0  0  0  0
  122.7247  105.0140  106.4971 H   0  0  0  0  0  0  0  0  0  0  0  0
  125.7906  107.9312  108.0806 H   0  0  0  0  0  0  0  0  0  0  0  0
  1  4  1  0  0  0  0
  1  7  1  0  0  0  0
  1  8  2  0  0  0  0
  2  5  1  0  0  0  0
  2  6  1  0  0  0  0
  2  9  2  0  0  0  0
  3  5  1  0  0  0  0
  3 10  2  0  0  0  0
  4  6  1  0  0  0  0
  5  7  1  0  0  0  0
  3 11  1  0  0  0  0
  4 12  1  0  0  0  0
  4 13  1  0  0  0  0
  5 14  1  0  0  0  0
  6 15  1  0  0  0  0
  7 16  1  0  0  0  0
M  END
> <FRED Chemgauss4 score>
-5.376209

$$$$
C87195299	P148450313
  -OEChem-05182014473D

 22 23  0     1  0  0  0  0  0999 V2000
  125.3252  106.3173  107.6532 C   0  0  0  0  0  0  0  0  0  0  0  0
  123.5457  107.2725  108.7633 C   0  0  0  0  0  0  0  0  0  0  0  0
  124.1069  105.6697  107.0557 C   0  0  0  0  0  0  0  0  0  0  0  0
  120.0649  107.2322  105.5621 C   0  0  0  0  0  0  0  0  0  0  0  0
  121.5947  106.1833  104.6625 C   0  0  0  0  0  0  0  0  0  0  0  0
  122.9292  106.3461  107.7480 C   0  0  2  0  0  0  0  0  0  0  0  0
  121.1640  106.3293  106.1219 C   0  0  0  0  0  0  0  0  0  0  0  0
  124.9095  107.1833  108.6322 N   0  0  0  0  0  0  0  0  0  0  0  0
  122.1379  107.1507  106.8288 N   0  0  0  0  0  0  0  0  0  0  0  0
  126.4763  106.0829  107.3160 O   0  0  0  0  0  0  0  0  0  0  0  0
  122.9283  107.9845  109.5420 O   0  0  0  0  0  0  0  0  0  0  0  0
  120.6834  107.2341  104.2497 O   0  0  0  0  0  0  0  0  0  0  0  0
  124.1105  105.8072  105.9697 H   0  0  0  0  0  0  0  0  0  0  0  0
  124.1266  104.5971  107.2749 H   0  0  0  0  0  0  0  0  0  0  0  0
  119.0703  106.7755  105.5198 H   0  0  0  0  0  0  0  0  0  0  0  0
  119.9781  108.2423  105.9748 H   0  0  0  0  0  0  0  0  0  0  0  0
  122.6336  106.4215  104.4139 H   0  0  0  0  0  0  0  0  0  0  0  0
  121.3232  105.2308  104.1952 H   0  0  0  0  0  0  0  0  0  0  0  0
  122.2981  105.6095  108.2558 H   0  0  0  0  0  0  0  0  0  0  0  0
  120.8388  105.4233  106.6362 H   0  0  0  0  0  0  0  0  0  0  0  0
  125.5540  107.7122  109.2095 H   0  0  0  0  0  0  0  0  0  0  0  0
  121.6472  107.8754  107.3527 H   0  0  0  0  0  0  0  0  0  0  0  0
  1  3  1  0  0  0  0
  1  8  1  0  0  0  0
  1 10  2  0  0  0  0
  2  6  1  0  0  0  0
  2  8  1  0  0  0  0
  2 11  2  0  0  0  0
  3  6  1  0  0  0  0
  4  7  1  0  0  0  0
  4 12  1  0  0  0  0
  5  7  1  0  0  0  0
  5 12  1  0  0  0  0
  6  9  1  0  0  0  0
  7  9  1  0  0  0  0
  3 13  1  0  0  0  0
  3 14  1  0  0  0  0
  4 15  1  0  0  0  0
  4 16  1  0  0  0  0
  5 17  1  0  0  0  0
  5 18  1  0  0  0  0
  6 19  1  0  0  0  0
  7 20  1  0  0  0  0
  8 21  1  0  0  0  0
  9 22  1  0  0  0  0
M  END
> <FRED Chemgauss4 score>
-5.374494

$$$$
C49647899	P74165113
  -OEChem-05182014473D

 25 25  0     1  0  0  0  0  0999 V2000
  123.0177  106.7689  105.6148 C   0  0  0  0  0  0  0  0  0  0  0  0
  125.0751  105.8787  106.4237 C   0  0  0  0  0  0  0  0  0  0  0  0
  123.9360  104.9702  106.8433 C   0  0  0  0  0  0  0  0  0  0  0  0
  124.4841  106.6840  105.2715 C   0  0  2  0  0  0  0  0  0  0  0  0
  119.5116  105.6389  104.7650 C   0  0  0  0  0  0  0  0  0  0  0  0
  121.4597  105.4029  107.0584 C   0  0  0  0  0  0  0  0  0  0  0  0
  120.8379  104.3236  106.1911 C   0  0  0  0  0  0  0  0  0  0  0  0
  122.7627  105.7540  106.5367 N   0  0  0  0  0  0  0  0  0  0  0  0
  125.0529  108.0360  105.2255 N   0  0  0  0  0  0  0  0  0  0  0  0
  122.2231  107.5642  105.1351 O   0  0  0  0  0  0  0  0  0  0  0  0
  120.6679  104.8196  104.8694 O   0  0  0  0  0  0  0  0  0  0  0  0
  125.4611  106.4836  107.2462 H   0  0  0  0  0  0  0  0  0  0  0  0
  125.9031  105.2707  106.0434 H   0  0  0  0  0  0  0  0  0  0  0  0
  123.9290  104.0309  106.2854 H   0  0  0  0  0  0  0  0  0  0  0  0
  123.9464  104.7691  107.9185 H   0  0  0  0  0  0  0  0  0  0  0  0
  124.6361  106.1644  104.3162 H   0  0  0  0  0  0  0  0  0  0  0  0
  119.4125  106.0015  103.7389 H   0  0  0  0  0  0  0  0  0  0  0  0
  119.5984  106.4827  105.4541 H   0  0  0  0  0  0  0  0  0  0  0  0
  118.6315  105.0466  105.0263 H   0  0  0  0  0  0  0  0  0  0  0  0
  120.8412  106.3060  107.0724 H   0  0  0  0  0  0  0  0  0  0  0  0
  121.5885  105.0410  108.0829 H   0  0  0  0  0  0  0  0  0  0  0  0
  119.8513  104.0527  106.5797 H   0  0  0  0  0  0  0  0  0  0  0  0
  121.4651  103.4270  106.1528 H   0  0  0  0  0  0  0  0  0  0  0  0
  124.5035  108.7663  104.8233 H   0  0  0  0  0  0  0  0  0  0  0  0
  126.0294  108.1438  105.4046 H   0  0  0  0  0  0  0  0  0  0  0  0
  1  4  1  0  0  0  0
  1  8  1  0  0  0  0
  1 10  2  0  0  0  0
  2  3  1  0  0  0  0
  2  4  1  0  0  0  0
  3  8  1  0  0  0  0
  4  9  1  0  0  0  0
  5 11  1  0  0  0  0
  6  7  1  0  0  0  0
  6  8  1  0  0  0  0
  7 11  1  0  0  0  0
  2 12  1  0  0  0  0
  2 13  1  0  0  0  0
  3 14  1  0  0  0  0
  3 15  1  0  0  0  0
  4 16  1  0  0  0  0
  5 17  1  0  0  0  0
  5 18  1  0  0  0  0
  5 19  1  0  0  0  0
  6 20  1  0  0  0  0
  6 21  1  0  0  0  0
  7 22  1  0  0  0  0
  7 23  1  0  0  0  0
  9 24  1  0  0  0  0
  9 25  1  0  0  0  0
M  END
> <FRED Chemgauss4 score>
-5.368882

$$$$
C42031446	P63624753
  -OEChem-05182014473D

 29 30  0     1  0  0  0  0  0999 V2000
  122.2146  105.0228  106.2482 C   0  0  0  0  0  0  0  0  0  0  0  0
  123.6954  106.5848  105.9716 C   0  0  0  0  0  0  0  0  0  0  0  0
  125.6206  104.6110  107.7680 C   0  0  0  0  0  0  0  0  0  0  0  0
  124.5997  103.5335  107.9595 C   0  0  0  0  0  0  0  0  0  0  0  0
  124.1642  104.9798  107.9276 C   0  0  0  0  0  0  0  0  0  0  0  0
  121.5218  103.8492  106.8099 C   0  0  0  0  0  0  0  0  0  0  0  0
  126.1835  108.9393  107.8127 C   0  0  0  0  0  0  0  0  0  0  0  0
  124.9479  108.0785  107.5800 C   0  0  0  0  0  0  0  0  0  0  0  0
  124.9333  107.4326  106.1840 C   0  0  2  0  0  0  0  0  0  0  0  0
  121.8344  105.7499  105.2219 N   0  0  0  0  0  0  0  0  0  0  0  0
  122.7765  106.7437  105.0460 N   0  0  0  0  0  0  0  0  0  0  0  0
  123.3816  105.5129  106.7509 N   0  0  0  0  0  0  0  0  0  0  0  0
  125.0549  108.4290  105.1433 N   0  0  0  0  0  0  0  0  0  0  0  0
  126.2883  104.8268  108.5931 H   0  0  0  0  0  0  0  0  0  0  0  0
  126.0728  104.7071  106.7883 H   0  0  0  0  0  0  0  0  0  0  0  0
  124.3659  102.9047  107.1091 H   0  0  0  0  0  0  0  0  0  0  0  0
  124.5773  103.0229  108.9144 H   0  0  0  0  0  0  0  0  0  0  0  0
  123.8518  105.4384  108.8403 H   0  0  0  0  0  0  0  0  0  0  0  0
  121.8635  102.9165  106.3303 H   0  0  0  0  0  0  0  0  0  0  0  0
  121.6909  103.7470  107.8962 H   0  0  0  0  0  0  0  0  0  0  0  0
  120.4271  103.9102  106.6782 H   0  0  0  0  0  0  0  0  0  0  0  0
  126.2667  109.7203  107.0501 H   0  0  0  0  0  0  0  0  0  0  0  0
  126.1233  109.4269  108.7909 H   0  0  0  0  0  0  0  0  0  0  0  0
  127.0982  108.3388  107.7931 H   0  0  0  0  0  0  0  0  0  0  0  0
  124.9030  107.3115  108.3634 H   0  0  0  0  0  0  0  0  0  0  0  0
  124.0592  108.7105  107.7038 H   0  0  0  0  0  0  0  0  0  0  0  0
  125.8224  106.7975  106.0854 H   0  0  0  0  0  0  0  0  0  0  0  0
  124.7505  108.1982  104.2150 H   0  0  0  0  0  0  0  0  0  0  0  0
  125.6181  109.2419  105.3158 H   0  0  0  0  0  0  0  0  0  0  0  0
  1  6  1  0  0  0  0
  1 10  2  0  0  0  0
  1 12  1  0  0  0  0
  2  9  1  0  0  0  0
  2 11  2  0  0  0  0
  2 12  1  0  0  0  0
  3  4  1  0  0  0  0
  3  5  1  0  0  0  0
  4  5  1  0  0  0  0
  5 12  1  0  0  0  0
  7  8  1  0  0  0  0
  8  9  1  0  0  0  0
  9 13  1  0  0  0  0
 10 11  1  0  0  0  0
  3 14  1  0  0  0  0
  3 15  1  0  0  0  0
  4 16  1  0  0  0  0
  4 17  1  0  0  0  0
  5 18  1  0  0  0  0
  6 19  1  0  0  0  0
  6 20  1  0  0  0  0
  6 21  1  0  0  0  0
  7 22  1  0  0  0  0
  7 23  1  0  0  0  0
  7 24  1  0  0  0  0
  8 25  1  0  0  0  0
  8 26  1  0  0  0  0
  9 27  1  0  0  0  0
 13 28  1  0  0  0  0
 13 29  1  0  0  0  0
M  END
> <FRED Chemgauss4 score>
-5.362745

$$$$
C85253675	P133384185
  -OEChem-05182014473D

 22 21  0     1  0  0  0  0  0999 V2000
  119.9897  104.2304  106.5741 C   0  0  0  0  0  0  0  0  0  0  0  0
  123.4411  108.4705  107.2870 C   0  0  0  0  0  0  0  0  0  0  0  0
  121.3126  104.4615  107.1516 C   0  0  0  0  0  0  0  0  0  0  0  0
  123.1577  105.9948  107.0750 C   0  0  0  0  0  0  0  0  0  0  0  0
  125.1096  107.1892  105.9012 C   0  0  0  0  0  0  0  0  0  0  0  0
  123.6456  107.2669  106.3592 C   0  0  2  0  0  0  0  0  0  0  0  0
  118.9400  104.0434  106.1164 N   0  0  0  0  0  0  0  0  0  0  0  0
  121.7227  105.8519  106.9731 N   0  0  0  0  0  0  0  0  0  0  0  0
  125.3671  108.1200  104.8613 O   0  0  0  0  0  0  0  0  0  0  0  0
  122.8282  107.4944  105.2074 O   0  0  0  0  0  0  0  0  0  0  0  0
  123.7797  109.3954  106.8056 H   0  0  0  0  0  0  0  0  0  0  0  0
  122.3918  108.5931  107.5740 H   0  0  0  0  0  0  0  0  0  0  0  0
  124.0384  108.3640  108.2001 H   0  0  0  0  0  0  0  0  0  0  0  0
  121.3165  104.2507  108.2248 H   0  0  0  0  0  0  0  0  0  0  0  0
  122.0670  103.8304  106.6734 H   0  0  0  0  0  0  0  0  0  0  0  0
  123.4387  106.0074  108.1336 H   0  0  0  0  0  0  0  0  0  0  0  0
  123.6151  105.1087  106.6202 H   0  0  0  0  0  0  0  0  0  0  0  0
  125.3606  106.1835  105.5459 H   0  0  0  0  0  0  0  0  0  0  0  0
  125.7843  107.4013  106.7390 H   0  0  0  0  0  0  0  0  0  0  0  0
  121.2659  106.4232  107.6887 H   0  0  0  0  0  0  0  0  0  0  0  0
  126.3027  108.0208  104.6189 H   0  0  0  0  0  0  0  0  0  0  0  0
  121.9177  107.5596  105.5300 H   0  0  0  0  0  0  0  0  0  0  0  0
  1  3  1  0  0  0  0
  1  7  3  0  0  0  0
  2  6  1  0  0  0  0
  3  8  1  0  0  0  0
  4  6  1  0  0  0  0
  4  8  1  0  0  0  0
  5  6  1  0  0  0  0
  5  9  1  0  0  0  0
  6 10  1  0  0  0  0
  2 11  1  0  0  0  0
  2 12  1  0  0  0  0
  2 13  1  0  0  0  0
  3 14  1  0  0  0  0
  3 15  1  0  0  0  0
  4 16  1  0  0  0  0
  4 17  1  0  0  0  0
  5 18  1  0  0  0  0
  5 19  1  0  0  0  0
  8 20  1  0  0  0  0
  9 21  1  0  0  0  0
 10 22  1  0  0  0  0
M  END
> <FRED Chemgauss4 score>
-5.359153

$$$$
C19166970	P53131085
  -OEChem-05182014473D

 25 25  0     0  0  0  0  0  0999 V2000
  122.8906  105.8856  105.1617 C   0  0  0  0  0  0  0  0  0  0  0  0
  121.4705  107.5418  106.1926 C   0  0  0  0  0  0  0  0  0  0  0  0
  122.3352  104.8160  106.1105 C   0  0  0  0  0  0  0  0  0  0  0  0
  120.9131  106.4751  107.1434 C   0  0  0  0  0  0  0  0  0  0  0  0
  123.8433  107.4927  106.7161 C   0  0  0  0  0  0  0  0  0  0  0  0
  125.2221  107.3286  106.1031 C   0  0  0  0  0  0  0  0  0  0  0  0
  122.8226  107.2509  105.6985 N   0  0  0  0  0  0  0  0  0  0  0  0
  120.9689  105.1478  106.5244 N   0  0  0  0  0  0  0  0  0  0  0  0
  120.4844  104.1907  107.3953 N   0  0  0  0  0  0  0  0  0  0  0  0
  125.3681  108.2371  105.0191 O   0  0  0  0  0  0  0  0  0  0  0  0
  123.9468  105.6298  104.9375 H   0  0  0  0  0  0  0  0  0  0  0  0
  122.3573  105.8246  104.1878 H   0  0  0  0  0  0  0  0  0  0  0  0
  120.7674  107.6785  105.3419 H   0  0  0  0  0  0  0  0  0  0  0  0
  121.4755  108.5119  106.7310 H   0  0  0  0  0  0  0  0  0  0  0  0
  122.3436  103.8517  105.5867 H   0  0  0  0  0  0  0  0  0  0  0  0
  123.0028  104.7196  106.9785 H   0  0  0  0  0  0  0  0  0  0  0  0
  121.4775  106.4998  108.0867 H   0  0  0  0  0  0  0  0  0  0  0  0
  119.8735  106.7336  107.3809 H   0  0  0  0  0  0  0  0  0  0  0  0
  123.6861  106.7835  107.5349 H   0  0  0  0  0  0  0  0  0  0  0  0
  123.7134  108.5112  107.0943 H   0  0  0  0  0  0  0  0  0  0  0  0
  125.3396  106.3134  105.7114 H   0  0  0  0  0  0  0  0  0  0  0  0
  126.0134  107.5229  106.8344 H   0  0  0  0  0  0  0  0  0  0  0  0
  121.1111  104.1361  108.1907 H   0  0  0  0  0  0  0  0  0  0  0  0
  120.5207  103.2908  106.9295 H   0  0  0  0  0  0  0  0  0  0  0  0
  126.2585  108.0999  104.6575 H   0  0  0  0  0  0  0  0  0  0  0  0
  1  3  1  0  0  0  0
  1  7  1  0  0  0  0
  2  4  1  0  0  0  0
  2  7  1  0  0  0  0
  3  8  1  0  0  0  0
  4  8  1  0  0  0  0
  5  6  1  0  0  0  0
  5  7  1  0  0  0  0
  6 10  1  0  0  0  0
  8  9  1  0  0  0  0
  1 11  1  0  0  0  0
  1 12  1  0  0  0  0
  2 13  1  0  0  0  0
  2 14  1  0  0  0  0
  3 15  1  0  0  0  0
  3 16  1  0  0  0  0
  4 17  1  0  0  0  0
  4 18  1  0  0  0  0
  5 19  1  0  0  0  0
  5 20  1  0  0  0  0
  6 21  1  0  0  0  0
  6 22  1  0  0  0  0
  9 23  1  0  0  0  0
  9 24  1  0  0  0  0
 10 25  1  0  0  0  0
M  END
> <FRED Chemgauss4 score>
-5.356736

$$$$
C91299939	P142817028
  -OEChem-05182014473D

 47 48  0     1  0  0  0  0  0999 V2000
  117.5000  104.4275  103.6363 C   0  0  0  0  0  0  0  0  0  0  0  0
  123.9133  106.9751  105.9974 C   0  0  0  0  0  0  0  0  0  0  0  0
  119.6542  104.6512  106.4418 C   0  0  0  0  0  0  0  0  0  0  0  0
  120.9661  104.2208  104.3474 C   0  0  0  0  0  0  0  0  0  0  0  0
  120.3857  105.9907  106.5746 C   0  0  0  0  0  0  0  0  0  0  0  0
  121.6541  105.5745  104.5504 C   0  0  0  0  0  0  0  0  0  0  0  0
  114.3712  106.3565  106.3295 C   0  0  0  0  0  0  0  0  0  0  0  0
  114.6595  105.0482  104.3365 C   0  0  0  0  0  0  0  0  0  0  0  0
  115.3385  107.3889  105.7642 C   0  0  0  0  0  0  0  0  0  0  0  0
  119.5769  104.1783  104.9883 C   0  0  0  0  0  0  0  0  0  0  0  0
  115.6212  106.1126  103.8012 C   0  0  2  0  0  0  0  0  0  0  0  0
  125.9258  106.4004  107.3514 C   0  0  0  0  0  0  0  0  0  0  0  0
  116.6905  105.4893  102.9149 C   0  0  0  0  0  0  0  0  0  0  0  0
  122.4303  107.1935  106.1563 C   0  0  0  0  0  0  0  0  0  0  0  0
  113.6834  105.6584  105.2425 N   0  0  0  0  0  0  0  0  0  0  0  0
  121.7253  105.9247  105.9753 N   0  0  0  0  0  0  0  0  0  0  0  0
  118.6297  104.9672  104.2329 N   0  0  0  0  0  0  0  0  0  0  0  0
  124.5117  106.6631  107.2097 N   0  0  0  0  0  0  0  0  0  0  0  0
  117.1732  103.2444  103.6748 O   0  0  0  0  0  0  0  0  0  0  0  0
  124.4980  107.0644  104.9210 O   0  0  0  0  0  0  0  0  0  0  0  0
  116.2822  106.7620  104.8940 O   0  0  0  0  0  0  0  0  0  0  0  0
  120.1856  103.8955  107.0352 H   0  0  0  0  0  0  0  0  0  0  0  0
  118.6488  104.7412  106.8708 H   0  0  0  0  0  0  0  0  0  0  0  0
  120.9017  104.0024  103.2746 H   0  0  0  0  0  0  0  0  0  0  0  0
  121.5894  103.4349  104.7941 H   0  0  0  0  0  0  0  0  0  0  0  0
  119.7889  106.7890  106.1144 H   0  0  0  0  0  0  0  0  0  0  0  0
  120.4702  106.2257  107.6427 H   0  0  0  0  0  0  0  0  0  0  0  0
  122.6675  105.5048  104.1363 H   0  0  0  0  0  0  0  0  0  0  0  0
  121.1255  106.3506  103.9816 H   0  0  0  0  0  0  0  0  0  0  0  0
  114.9145  105.6284  106.9441 H   0  0  0  0  0  0  0  0  0  0  0  0
  113.6334  106.8499  106.9704 H   0  0  0  0  0  0  0  0  0  0  0  0
  114.1281  104.5703  103.5064 H   0  0  0  0  0  0  0  0  0  0  0  0
  115.2096  104.2653  104.8736 H   0  0  0  0  0  0  0  0  0  0  0  0
  114.8115  108.1826  105.2206 H   0  0  0  0  0  0  0  0  0  0  0  0
  115.8982  107.8604  106.5780 H   0  0  0  0  0  0  0  0  0  0  0  0
  119.1945  103.1519  104.9597 H   0  0  0  0  0  0  0  0  0  0  0  0
  115.0788  106.8669  103.2167 H   0  0  0  0  0  0  0  0  0  0  0  0
  126.1255  105.3344  107.2143 H   0  0  0  0  0  0  0  0  0  0  0  0
  126.2675  106.6973  108.3467 H   0  0  0  0  0  0  0  0  0  0  0  0
  126.4915  106.9634  106.6042 H   0  0  0  0  0  0  0  0  0  0  0  0
  117.3761  106.2687  102.5633 H   0  0  0  0  0  0  0  0  0  0  0  0
  116.2193  105.0312  102.0380 H   0  0  0  0  0  0  0  0  0  0  0  0
  122.2203  107.5827  107.1570 H   0  0  0  0  0  0  0  0  0  0  0  0
  122.0786  107.9097  105.4080 H   0  0  0  0  0  0  0  0  0  0  0  0
  113.0817  104.9331  105.6315 H   0  0  0  0  0  0  0  0  0  0  0  0
  118.7996  105.9635  104.1345 H   0  0  0  0  0  0  0  0  0  0  0  0
  123.9268  106.6169  108.0390 H   0  0  0  0  0  0  0  0  0  0  0  0
  1 13  1  0  0  0  0
  1 17  1  0  0  0  0
  1 19  2  0  0  0  0
  2 14  1  0  0  0  0
  2 18  1  0  0  0  0
  2 20  2  0  0  0  0
  3  5  1  0  0  0  0
  3 10  1  0  0  0  0
  4  6  1  0  0  0  0
  4 10  1  0  0  0  0
  5 16  1  0  0  0  0
  6 16  1  0  0  0  0
  7  9  1  0  0  0  0
  7 15  1  0  0  0  0
  8 11  1  0  0  0  0
  8 15  1  0  0  0  0
  9 21  1  0  0  0  0
 10 17  1  0  0  0  0
 11 13  1  0  0  0  0
 11 21  1  0  0  0  0
 12 18  1  0  0  0  0
 14 16  1  0  0  0  0
  3 22  1  0  0  0  0
  3 23  1  0  0  0  0
  4 24  1  0  0  0  0
  4 25  1  0  0  0  0
  5 26  1  0  0  0  0
  5 27  1  0  0  0  0
  6 28  1  0  0  0  0
  6 29  1  0  0  0  0
  7 30  1  0  0  0  0
  7 31  1  0  0  0  0
  8 32  1  0  0  0  0
  8 33  1  0  0  0  0
  9 34  1  0  0  0  0
  9 35  1  0  0  0  0
 10 36  1  0  0  0  0
 11 37  1  0  0  0  0
 12 38  1  0  0  0  0
 12 39  1  0  0  0  0
 12 40  1  0  0  0  0
 13 41  1  0  0  0  0
 13 42  1  0  0  0  0
 14 43  1  0  0  0  0
 14 44  1  0  0  0  0
 15 45  1  0  0  0  0
 17 46  1  0  0  0  0
 18 47  1  0  0  0  0
M  END
> <FRED Chemgauss4 score>
-5.355259

$$$$
C70948188	P109520132
  -OEChem-05182014473D

 37 37  0     1  0  0  0  0  0999 V2000
  123.2872  105.8175  106.8333 C   0  0  0  0  0  0  0  0  0  0  0  0
  122.1537  105.0831  106.7883 C   0  0  0  0  0  0  0  0  0  0  0  0
  123.5076  106.8233  105.7463 C   0  0  0  0  0  0  0  0  0  0  0  0
  121.3796  106.0850  104.8886 C   0  0  0  0  0  0  0  0  0  0  0  0
  121.8337  104.0148  107.8017 C   0  0  0  0  0  0  0  0  0  0  0  0
  125.6814  105.3298  107.2678 C   0  0  0  0  0  0  0  0  0  0  0  0
  124.4882  107.0954  108.6010 C   0  0  0  0  0  0  0  0  0  0  0  0
  119.0122  105.1750  101.9636 C   0  0  0  0  0  0  0  0  0  0  0  0
  121.3343  104.3797  102.4290 C   0  0  0  0  0  0  0  0  0  0  0  0
  124.3536  105.7539  107.8864 C   0  0  0  0  0  0  0  0  0  0  0  0
  120.3660  106.2742  103.7975 C   0  0  1  0  0  0  0  0  0  0  0  0
  120.0644  104.9638  103.0579 C   0  0  0  0  0  0  0  0  0  0  0  0
  121.1808  105.2062  105.8174 N   0  0  0  0  0  0  0  0  0  0  0  0
  122.4917  106.8877  104.8167 N   0  0  0  0  0  0  0  0  0  0  0  0
  119.2264  106.7810  104.5129 N   0  0  0  0  0  0  0  0  0  0  0  0
  124.5166  107.5214  105.7017 O   0  0  0  0  0  0  0  0  0  0  0  0
  121.2838  104.4587  108.6254 H   0  0  0  0  0  0  0  0  0  0  0  0
  122.7596  103.5805  108.1662 H   0  0  0  0  0  0  0  0  0  0  0  0
  121.2335  103.2437  107.3287 H   0  0  0  0  0  0  0  0  0  0  0  0
  126.0275  106.0532  106.5208 H   0  0  0  0  0  0  0  0  0  0  0  0
  125.5930  104.3550  106.7754 H   0  0  0  0  0  0  0  0  0  0  0  0
  126.4558  105.2447  108.0376 H   0  0  0  0  0  0  0  0  0  0  0  0
  124.7885  107.8849  107.9030 H   0  0  0  0  0  0  0  0  0  0  0  0
  125.2348  107.0534  109.4022 H   0  0  0  0  0  0  0  0  0  0  0  0
  123.5326  107.3912  109.0472 H   0  0  0  0  0  0  0  0  0  0  0  0
  119.3498  105.9063  101.2223 H   0  0  0  0  0  0  0  0  0  0  0  0
  118.0771  105.5520  102.3920 H   0  0  0  0  0  0  0  0  0  0  0  0
  118.7905  104.2383  101.4406 H   0  0  0  0  0  0  0  0  0  0  0  0
  121.7766  105.0766  101.7088 H   0  0  0  0  0  0  0  0  0  0  0  0
  122.0877  104.1534  103.1904 H   0  0  0  0  0  0  0  0  0  0  0  0
  121.1121  103.4453  101.9022 H   0  0  0  0  0  0  0  0  0  0  0  0
  124.0531  105.0005  108.6231 H   0  0  0  0  0  0  0  0  0  0  0  0
  120.7193  107.0558  103.1202 H   0  0  0  0  0  0  0  0  0  0  0  0
  119.6691  104.2238  103.7668 H   0  0  0  0  0  0  0  0  0  0  0  0
  122.5684  107.5520  104.0519 H   0  0  0  0  0  0  0  0  0  0  0  0
  118.3168  106.7397  104.0812 H   0  0  0  0  0  0  0  0  0  0  0  0
  119.3733  107.3473  105.3335 H   0  0  0  0  0  0  0  0  0  0  0  0
  1  2  2  0  0  0  0
  1  3  1  0  0  0  0
  1 10  1  0  0  0  0
  2  5  1  0  0  0  0
  2 13  1  0  0  0  0
  3 14  1  0  0  0  0
  3 16  2  0  0  0  0
  4 11  1  0  0  0  0
  4 13  2  0  0  0  0
  4 14  1  0  0  0  0
  6 10  1  0  0  0  0
  7 10  1  0  0  0  0
  8 12  1  0  0  0  0
  9 12  1  0  0  0  0
 11 12  1  0  0  0  0
 11 15  1  0  0  0  0
  5 17  1  0  0  0  0
  5 18  1  0  0  0  0
  5 19  1  0  0  0  0
  6 20  1  0  0  0  0
  6 21  1  0  0  0  0
  6 22  1  0  0  0  0
  7 23  1  0  0  0  0
  7 24  1  0  0  0  0
  7 25  1  0  0  0  0
  8 26  1  0  0  0  0
  8 27  1  0  0  0  0
  8 28  1  0  0  0  0
  9 29  1  0  0  0  0
  9 30  1  0  0  0  0
  9 31  1  0  0  0  0
 10 32  1  0  0  0  0
 11 33  1  0  0  0  0
 12 34  1  0  0  0  0
 14 35  1  0  0  0  0
 15 36  1  0  0  0  0
 15 37  1  0  0  0  0
M  END
> <FRED Chemgauss4 score>
-5.355022

$$$$
C43376366	P65601864
  -OEChem-05182014473D

 32 32  0     1  0  0  0  0  0999 V2000
  121.3685  105.2125  103.5763 C   0  0  0  0  0  0  0  0  0  0  0  0
  120.0367  107.1372  104.5068 C   0  0  0  0  0  0  0  0  0  0  0  0
  122.3630  105.4071  104.7252 C   0  0  0  0  0  0  0  0  0  0  0  0
  121.0814  107.2597  105.6206 C   0  0  0  0  0  0  0  0  0  0  0  0
  119.9725  105.7266  103.9237 C   0  0  0  0  0  0  0  0  0  0  0  0
  125.9068  107.3258  106.6722 C   0  0  0  0  0  0  0  0  0  0  0  0
  123.3998  106.9901  106.2152 C   0  0  2  0  0  0  0  0  0  0  0  0
  124.8236  107.1030  105.6113 C   0  0  1  0  0  0  0  0  0  0  0  0
  123.2515  105.8250  107.1924 C   0  0  0  0  0  0  0  0  0  0  0  0
  122.4020  106.8094  105.1608 N   0  0  0  0  0  0  0  0  0  0  0  0
  124.9024  108.2217  104.6658 N   0  0  0  0  0  0  0  0  0  0  0  0
  119.3386  104.8424  104.8451 O   0  0  0  0  0  0  0  0  0  0  0  0
  121.9882  105.7512  107.6724 F   0  0  0  0  0  0  0  0  0  0  0  0
  123.5387  104.6418  106.6074 F   0  0  0  0  0  0  0  0  0  0  0  0
  124.0675  105.9641  108.2604 F   0  0  0  0  0  0  0  0  0  0  0  0
  121.7354  105.7213  102.6720 H   0  0  0  0  0  0  0  0  0  0  0  0
  121.3141  104.1459  103.3044 H   0  0  0  0  0  0  0  0  0  0  0  0
  119.0443  107.4259  104.8900 H   0  0  0  0  0  0  0  0  0  0  0  0
  120.2572  107.8595  103.7061 H   0  0  0  0  0  0  0  0  0  0  0  0
  122.0491  104.7664  105.5582 H   0  0  0  0  0  0  0  0  0  0  0  0
  123.3582  105.0667  104.4100 H   0  0  0  0  0  0  0  0  0  0  0  0
  121.1222  108.2993  105.9720 H   0  0  0  0  0  0  0  0  0  0  0  0
  120.7509  106.6427  106.4651 H   0  0  0  0  0  0  0  0  0  0  0  0
  119.3526  105.7393  103.0040 H   0  0  0  0  0  0  0  0  0  0  0  0
  125.7137  108.2389  107.2475 H   0  0  0  0  0  0  0  0  0  0  0  0
  125.9355  106.5022  107.3927 H   0  0  0  0  0  0  0  0  0  0  0  0
  126.8998  107.4176  106.2178 H   0  0  0  0  0  0  0  0  0  0  0  0
  123.1587  107.9169  106.7513 H   0  0  0  0  0  0  0  0  0  0  0  0
  125.0622  106.1809  105.0659 H   0  0  0  0  0  0  0  0  0  0  0  0
  124.1070  108.4049  104.0987 H   0  0  0  0  0  0  0  0  0  0  0  0
  125.7982  108.6132  104.4863 H   0  0  0  0  0  0  0  0  0  0  0  0
  119.2835  103.9769  104.4091 H   0  0  0  0  0  0  0  0  0  0  0  0
  1  3  1  0  0  0  0
  1  5  1  0  0  0  0
  2  4  1  0  0  0  0
  2  5  1  0  0  0  0
  3 10  1  0  0  0  0
  4 10  1  0  0  0  0
  5 12  1  0  0  0  0
  6  8  1  0  0  0  0
  7  8  1  0  0  0  0
  7  9  1  0  0  0  0
  7 10  1  0  0  0  0
  8 11  1  0  0  0  0
  9 13  1  0  0  0  0
  9 14  1  0  0  0  0
  9 15  1  0  0  0  0
  1 16  1  0  0  0  0
  1 17  1  0  0  0  0
  2 18  1  0  0  0  0
  2 19  1  0  0  0  0
  3 20  1  0  0  0  0
  3 21  1  0  0  0  0
  4 22  1  0  0  0  0
  4 23  1  0  0  0  0
  5 24  1  0  0  0  0
  6 25  1  0  0  0  0
  6 26  1  0  0  0  0
  6 27  1  0  0  0  0
  7 28  1  0  0  0  0
  8 29  1  0  0  0  0
 11 30  1  0  0  0  0
 11 31  1  0  0  0  0
 12 32  1  0  0  0  0
M  END
> <FRED Chemgauss4 score>
-5.353588

$$$$
C82575973	P129060922
  -OEChem-05182014473D

 23 23  0     1  0  0  0  0  0999 V2000
  122.1237  106.3669  105.3860 C   0  0  0  0  0  0  0  0  0  0  0  0
  122.1628  105.3611  106.3263 C   0  0  0  0  0  0  0  0  0  0  0  0
  123.9000  107.3867  106.4030 C   0  0  0  0  0  0  0  0  0  0  0  0
  123.9386  106.3813  107.3439 C   0  0  0  0  0  0  0  0  0  0  0  0
  125.2896  104.2278  109.2501 C   0  0  0  0  0  0  0  0  0  0  0  0
  127.1097  106.0118  109.2845 C   0  0  0  0  0  0  0  0  0  0  0  0
  125.9103  105.4250  108.5370 C   0  0  2  0  0  0  0  0  0  0  0  0
  122.9917  107.3978  105.4074 N   0  0  0  0  0  0  0  0  0  0  0  0
  123.0709  105.3503  107.3222 N   0  0  0  0  0  0  0  0  0  0  0  0
  127.6648  107.1535  108.5938 N   0  0  0  0  0  0  0  0  0  0  0  0
  124.9027  106.4458  108.3333 N   0  0  0  0  0  0  0  0  0  0  0  0
  121.3929  106.3754  104.5869 H   0  0  0  0  0  0  0  0  0  0  0  0
  121.4658  104.5323  106.3080 H   0  0  0  0  0  0  0  0  0  0  0  0
  124.5930  108.2203  106.4108 H   0  0  0  0  0  0  0  0  0  0  0  0
  124.9214  104.4914  110.2476 H   0  0  0  0  0  0  0  0  0  0  0  0
  124.4355  103.8426  108.6818 H   0  0  0  0  0  0  0  0  0  0  0  0
  126.0175  103.4168  109.3561 H   0  0  0  0  0  0  0  0  0  0  0  0
  127.8934  105.2534  109.3917 H   0  0  0  0  0  0  0  0  0  0  0  0
  126.8109  106.3167  110.2933 H   0  0  0  0  0  0  0  0  0  0  0  0
  126.2552  105.0912  107.5513 H   0  0  0  0  0  0  0  0  0  0  0  0
  127.7080  107.1386  107.5906 H   0  0  0  0  0  0  0  0  0  0  0  0
  128.1753  107.8379  109.1224 H   0  0  0  0  0  0  0  0  0  0  0  0
  124.9091  107.2460  108.9521 H   0  0  0  0  0  0  0  0  0  0  0  0
  1  2  2  0  0  0  0
  1  8  1  0  0  0  0
  2  9  1  0  0  0  0
  3  4  1  0  0  0  0
  3  8  2  0  0  0  0
  4  9  2  0  0  0  0
  4 11  1  0  0  0  0
  5  7  1  0  0  0  0
  6  7  1  0  0  0  0
  6 10  1  0  0  0  0
  7 11  1  0  0  0  0
  1 12  1  0  0  0  0
  2 13  1  0  0  0  0
  3 14  1  0  0  0  0
  5 15  1  0  0  0  0
  5 16  1  0  0  0  0
  5 17  1  0  0  0  0
  6 18  1  0  0  0  0
  6 19  1  0  0  0  0
  7 20  1  0  0  0  0
 10 21  1  0  0  0  0
 10 22  1  0  0  0  0
 11 23  1  0  0  0  0
M  END
> <FRED Chemgauss4 score>
-5.353278

$$$$
C86331608	P135184026
  -OEChem-05182014473D

 20 20  0     1  0  0  0  0  0999 V2000
  120.4898  107.3261  105.5584 C   0  0  0  0  0  0  0  0  0  0  0  0
  122.8809  108.1368  106.9627 C   0  0  0  0  0  0  0  0  0  0  0  0
  124.1341  106.6029  105.6767 C   0  0  0  0  0  0  0  0  0  0  0  0
  124.3501  108.2389  107.3839 C   0  0  2  0  0  0  0  0  0  0  0  0
  125.1158  107.6268  106.2169 C   0  0  1  0  0  0  0  0  0  0  0  0
  121.7101  106.5212  105.5602 C   0  0  0  0  0  0  0  0  0  0  0  0
  119.5192  107.9620  105.5561 N   0  0  0  0  0  0  0  0  0  0  0  0
  122.8859  107.3634  105.7111 N   0  0  0  0  0  0  0  0  0  0  0  0
  124.5512  107.4642  108.5629 O   0  0  0  0  0  0  0  0  0  0  0  0
  126.3380  107.0449  106.6203 O   0  0  0  0  0  0  0  0  0  0  0  0
  122.2810  107.6474  107.7613 H   0  0  0  0  0  0  0  0  0  0  0  0
  122.4390  109.1444  106.8217 H   0  0  0  0  0  0  0  0  0  0  0  0
  124.3627  106.3507  104.6500 H   0  0  0  0  0  0  0  0  0  0  0  0
  124.1069  105.7121  106.2901 H   0  0  0  0  0  0  0  0  0  0  0  0
  124.6342  109.2550  107.5690 H   0  0  0  0  0  0  0  0  0  0  0  0
  125.3490  108.4159  105.4543 H   0  0  0  0  0  0  0  0  0  0  0  0
  121.7083  105.8044  106.3862 H   0  0  0  0  0  0  0  0  0  0  0  0
  121.8181  105.9674  104.6233 H   0  0  0  0  0  0  0  0  0  0  0  0
  123.9688  107.8297  109.2522 H   0  0  0  0  0  0  0  0  0  0  0  0
  126.7143  106.6194  105.8342 H   0  0  0  0  0  0  0  0  0  0  0  0
  1  6  1  0  0  0  0
  1  7  3  0  0  0  0
  2  4  1  0  0  0  0
  2  8  1  0  0  0  0
  3  5  1  0  0  0  0
  3  8  1  0  0  0  0
  4  5  1  0  0  0  0
  4  9  1  0  0  0  0
  5 10  1  0  0  0  0
  6  8  1  0  0  0  0
  2 11  1  0  0  0  0
  2 12  1  0  0  0  0
  3 13  1  0  0  0  0
  3 14  1  0  0  0  0
  4 15  1  0  0  0  0
  5 16  1  0  0  0  0
  6 17  1  0  0  0  0
  6 18  1  0  0  0  0
  9 19  1  0  0  0  0
 10 20  1  0  0  0  0
M  END
> <FRED Chemgauss4 score>
-5.347559

$$$$
C38282056	P57853697
  -OEChem-05182014473D

 18 18  0     1  0  0  0  0  0999 V2000
  121.7918  105.5153  106.1379 C   0  0  0  0  0  0  0  0  0  0  0  0
  122.1036  104.5981  107.0593 C   0  0  0  0  0  0  0  0  0  0  0  0
  122.8499  106.4644  105.7204 C   0  0  0  0  0  0  0  0  0  0  0  0
  123.4425  104.5321  107.7322 C   0  0  1  0  0  0  0  0  0  0  0  0
  124.2460  106.2344  106.2841 C   0  0  1  0  0  0  0  0  0  0  0  0
  125.0590  107.5192  106.2968 C   0  0  0  0  0  0  0  0  0  0  0  0
  122.5890  107.3491  104.9092 O   0  0  0  0  0  0  0  0  0  0  0  0
  124.1359  105.7757  107.6253 O   0  0  0  0  0  0  0  0  0  0  0  0
  123.2276  104.2184  109.1055 O   0  0  0  0  0  0  0  0  0  0  0  0
  125.5771  107.7437  104.9966 O   0  0  0  0  0  0  0  0  0  0  0  0
  120.8185  105.5635  105.6673 H   0  0  0  0  0  0  0  0  0  0  0  0
  121.3562  103.8594  107.3358 H   0  0  0  0  0  0  0  0  0  0  0  0
  124.0431  103.7297  107.2875 H   0  0  0  0  0  0  0  0  0  0  0  0
  124.7580  105.4825  105.6714 H   0  0  0  0  0  0  0  0  0  0  0  0
  125.8884  107.4337  107.0016 H   0  0  0  0  0  0  0  0  0  0  0  0
  124.4267  108.3630  106.5798 H   0  0  0  0  0  0  0  0  0  0  0  0
  124.1032  104.1806  109.5208 H   0  0  0  0  0  0  0  0  0  0  0  0
  124.8159  107.8184  104.3967 H   0  0  0  0  0  0  0  0  0  0  0  0
  1  2  2  0  0  0  0
  1  3  1  0  0  0  0
  2  4  1  0  0  0  0
  3  5  1  0  0  0  0
  3  7  2  0  0  0  0
  4  8  1  0  0  0  0
  4  9  1  0  0  0  0
  5  6  1  0  0  0  0
  5  8  1  0  0  0  0
  6 10  1  0  0  0  0
  1 11  1  0  0  0  0
  2 12  1  0  0  0  0
  4 13  1  0  0  0  0
  5 14  1  0  0  0  0
  6 15  1  0  0  0  0
  6 16  1  0  0  0  0
  9 17  1  0  0  0  0
 10 18  1  0  0  0  0
M  END
> <FRED Chemgauss4 score>
-5.344182

$$$$
C45322001	P68287759
  -OEChem-05182014473D

 17 17  0     1  0  0  0  0  0999 V2000
  126.5026  104.7562  109.3633 C   0  0  0  0  0  0  0  0  0  0  0  0
  122.5144  106.9656  106.1900 C   0  0  0  0  0  0  0  0  0  0  0  0
  124.4919  106.8732  105.5282 C   0  0  0  0  0  0  0  0  0  0  0  0
  125.3155  105.2004  107.2454 C   0  0  0  0  0  0  0  0  0  0  0  0
  125.8645  105.7993  108.5460 C   0  0  2  0  0  0  0  0  0  0  0  0
  127.0054  103.9349  110.0110 N   0  0  0  0  0  0  0  0  0  0  0  0
  123.3587  107.4716  105.2435 N   0  0  0  0  0  0  0  0  0  0  0  0
  123.0540  106.0918  107.0424 N   0  0  0  0  0  0  0  0  0  0  0  0
  124.3191  106.0505  106.5974 N   0  0  0  0  0  0  0  0  0  0  0  0
  126.8157  106.8509  108.2764 N   0  0  0  0  0  0  0  0  0  0  0  0
  121.4727  107.2408  106.2599 H   0  0  0  0  0  0  0  0  0  0  0  0
  125.4330  106.9926  105.0101 H   0  0  0  0  0  0  0  0  0  0  0  0
  124.8562  104.2185  107.4199 H   0  0  0  0  0  0  0  0  0  0  0  0
  126.1193  105.0449  106.5135 H   0  0  0  0  0  0  0  0  0  0  0  0
  125.0541  106.2588  109.1237 H   0  0  0  0  0  0  0  0  0  0  0  0
  127.4973  107.0814  108.9781 H   0  0  0  0  0  0  0  0  0  0  0  0
  126.6557  107.4621  107.4946 H   0  0  0  0  0  0  0  0  0  0  0  0
  1  5  1  0  0  0  0
  1  6  3  0  0  0  0
  2  7  1  0  0  0  0
  2  8  2  0  0  0  0
  3  7  2  0  0  0  0
  3  9  1  0  0  0  0
  4  5  1  0  0  0  0
  4  9  1  0  0  0  0
  5 10  1  0  0  0  0
  8  9  1  0  0  0  0
  2 11  1  0  0  0  0
  3 12  1  0  0  0  0
  4 13  1  0  0  0  0
  4 14  1  0  0  0  0
  5 15  1  0  0  0  0
 10 16  1  0  0  0  0
 10 17  1  0  0  0  0
M  END
> <FRED Chemgauss4 score>
-5.321582

$$$$
C56659230	P85110673
  -OEChem-05182014473D

 18 18  0     1  0  0  0  0  0999 V2000
  121.5156  106.7078  106.4184 C   0  0  0  0  0  0  0  0  0  0  0  0
  122.8593  106.8944  108.0367 C   0  0  0  0  0  0  0  0  0  0  0  0
  124.7347  106.9574  106.3502 C   0  0  0  0  0  0  0  0  0  0  0  0
  123.4788  107.5773  106.8517 C   0  0  1  0  0  0  0  0  0  0  0  0
  123.9330  104.6243  106.8127 C   0  0  0  0  0  0  0  0  0  0  0  0
  122.4525  107.3693  105.8137 N   0  0  0  0  0  0  0  0  0  0  0  0
  121.7037  106.3962  107.7386 N   0  0  0  0  0  0  0  0  0  0  0  0
  123.5089  106.8649  109.2358 N   0  0  0  0  0  0  0  0  0  0  0  0
  124.9557  105.6336  106.6348 N   0  0  0  0  0  0  0  0  0  0  0  0
  125.8481  107.8460  105.4679 S   0  0  0  0  0  0  0  0  0  0  0  0
  120.5940  106.3964  105.9047 H   0  0  0  0  0  0  0  0  0  0  0  0
  123.6281  108.6426  107.0477 H   0  0  0  0  0  0  0  0  0  0  0  0
  123.6352  104.5723  107.8631 H   0  0  0  0  0  0  0  0  0  0  0  0
  124.3106  103.6453  106.5051 H   0  0  0  0  0  0  0  0  0  0  0  0
  123.0541  104.8663  106.2092 H   0  0  0  0  0  0  0  0  0  0  0  0
  124.4004  107.3053  109.3067 H   0  0  0  0  0  0  0  0  0  0  0  0
  123.0723  106.4040  110.0043 H   0  0  0  0  0  0  0  0  0  0  0  0
  125.9218  105.3352  106.7285 H   0  0  0  0  0  0  0  0  0  0  0  0
  1  6  2  0  0  0  0
  1  7  1  0  0  0  0
  2  4  1  0  0  0  0
  2  7  2  0  0  0  0
  2  8  1  0  0  0  0
  3  4  1  0  0  0  0
  3  9  1  0  0  0  0
  3 10  2  0  0  0  0
  4  6  1  0  0  0  0
  5  9  1  0  0  0  0
  1 11  1  0  0  0  0
  4 12  1  0  0  0  0
  5 13  1  0  0  0  0
  5 14  1  0  0  0  0
  5 15  1  0  0  0  0
  8 16  1  0  0  0  0
  8 17  1  0  0  0  0
  9 18  1  0  0  0  0
M  END
> <FRED Chemgauss4 score>
-5.314571

$$$$
C95922135	P151021417
  -OEChem-05182014473D

 16 16  0     1  0  0  0  0  0999 V2000
  124.3017  104.9350  107.9017 C   0  0  0  0  0  0  0  0  0  0  0  0
  123.9230  106.6641  106.1734 C   0  0  0  0  0  0  0  0  0  0  0  0
  125.3502  105.8137  108.5241 C   0  0  2  0  0  0  0  0  0  0  0  0
  126.0495  106.6368  107.4597 C   0  0  2  0  0  0  0  0  0  0  0  0
  123.9927  103.7878  108.4042 N   0  0  0  0  0  0  0  0  0  0  0  0
  123.6490  105.4437  106.7975 N   0  0  0  0  0  0  0  0  0  0  0  0
  125.0874  107.2889  106.5967 N   0  0  0  0  0  0  0  0  0  0  0  0
  123.1795  107.1518  105.3208 O   0  0  0  0  0  0  0  0  0  0  0  0
  126.8733  105.7915  106.6649 O   0  0  0  0  0  0  0  0  0  0  0  0
  126.2737  105.0898  109.2113 F   0  0  0  0  0  0  0  0  0  0  0  0
  124.8406  106.4689  109.2403 H   0  0  0  0  0  0  0  0  0  0  0  0
  126.6883  107.4005  107.9137 H   0  0  0  0  0  0  0  0  0  0  0  0
  124.5621  103.6205  109.2398 H   0  0  0  0  0  0  0  0  0  0  0  0
  122.9016  104.8802  106.4022 H   0  0  0  0  0  0  0  0  0  0  0  0
  125.2714  108.2390  106.2898 H   0  0  0  0  0  0  0  0  0  0  0  0
  127.2973  106.3593  106.0020 H   0  0  0  0  0  0  0  0  0  0  0  0
  1  3  1  0  0  0  0
  1  5  2  0  0  0  0
  1  6  1  0  0  0  0
  2  6  1  0  0  0  0
  2  7  1  0  0  0  0
  2  8  2  0  0  0  0
  3  4  1  0  0  0  0
  3 10  1  0  0  0  0
  4  7  1  0  0  0  0
  4  9  1  0  0  0  0
  3 11  1  0  0  0  0
  4 12  1  0  0  0  0
  5 13  1  0  0  0  0
  6 14  1  0  0  0  0
  7 15  1  0  0  0  0
  9 16  1  0  0  0  0
M  END
> <FRED Chemgauss4 score>
-5.313694

$$$$
C95922135	P151020631
  -OEChem-05182014473D

 16 16  0     1  0  0  0  0  0999 V2000
  124.3017  104.9350  107.9017 C   0  0  0  0  0  0  0  0  0  0  0  0
  123.9230  106.6641  106.1734 C   0  0  0  0  0  0  0  0  0  0  0  0
  125.3502  105.8137  108.5241 C   0  0  2  0  0  0  0  0  0  0  0  0
  126.0495  106.6368  107.4597 C   0  0  2  0  0  0  0  0  0  0  0  0
  123.9927  103.7878  108.4042 N   0  0  0  0  0  0  0  0  0  0  0  0
  123.6490  105.4437  106.7975 N   0  0  0  0  0  0  0  0  0  0  0  0
  125.0874  107.2889  106.5967 N   0  0  0  0  0  0  0  0  0  0  0  0
  123.1795  107.1518  105.3208 O   0  0  0  0  0  0  0  0  0  0  0  0
  126.8733  105.7915  106.6649 O   0  0  0  0  0  0  0  0  0  0  0  0
  126.2737  105.0898  109.2113 F   0  0  0  0  0  0  0  0  0  0  0  0
  124.8406  106.4689  109.2403 H   0  0  0  0  0  0  0  0  0  0  0  0
  126.6883  107.4005  107.9137 H   0  0  0  0  0  0  0  0  0  0  0  0
  123.2615  103.3541  107.8318 H   0  0  0  0  0  0  0  0  0  0  0  0
  122.9016  104.8802  106.4022 H   0  0  0  0  0  0  0  0  0  0  0  0
  125.2714  108.2390  106.2898 H   0  0  0  0  0  0  0  0  0  0  0  0
  127.2973  106.3593  106.0020 H   0  0  0  0  0  0  0  0  0  0  0  0
  1  3  1  0  0  0  0
  1  5  2  0  0  0  0
  1  6  1  0  0  0  0
  2  6  1  0  0  0  0
  2  7  1  0  0  0  0
  2  8  2  0  0  0  0
  3  4  1  0  0  0  0
  3 10  1  0  0  0  0
  4  7  1  0  0  0  0
  4  9  1  0  0  0  0
  3 11  1  0  0  0  0
  4 12  1  0  0  0  0
  5 13  1  0  0  0  0
  6 14  1  0  0  0  0
  7 15  1  0  0  0  0
  9 16  1  0  0  0  0
M  END
> <FRED Chemgauss4 score>
-5.313694

$$$$
C87121135	P136358271
  -OEChem-05182014473D

 36 36  0     1  0  0  0  0  0999 V2000
  121.9304  104.6141  107.5642 C   0  0  0  0  0  0  0  0  0  0  0  0
  120.7790  104.6172  106.5616 C   0  0  0  0  0  0  0  0  0  0  0  0
  122.8776  105.7882  107.3373 C   0  0  0  0  0  0  0  0  0  0  0  0
  122.2374  105.8301  104.8921 C   0  0  0  0  0  0  0  0  0  0  0  0
  121.2886  104.6444  105.1146 C   0  0  2  0  0  0  0  0  0  0  0  0
  123.3894  105.8248  105.8981 C   0  0  1  0  0  0  0  0  0  0  0  0
  120.6437  104.6825  102.6938 C   0  0  0  0  0  0  0  0  0  0  0  0
  125.3751  107.3103  107.1543 C   0  0  0  0  0  0  0  0  0  0  0  0
  119.1491  103.5365  104.4051 C   0  0  0  0  0  0  0  0  0  0  0  0
  120.1199  104.6968  104.1323 C   0  0  1  0  0  0  0  0  0  0  0  0
  118.2435  103.7985  105.4931 N   0  0  0  0  0  0  0  0  0  0  0  0
  123.5909  108.4133  105.5947 O   0  0  0  0  0  0  0  0  0  0  0  0
  125.3530  106.9250  104.5691 O   0  0  0  0  0  0  0  0  0  0  0  0
  119.4323  105.9358  104.3297 O   0  0  0  0  0  0  0  0  0  0  0  0
  124.4350  107.2347  105.6489 S   0  0  0  0  0  0  0  0  0  0  0  0
  121.5308  104.6550  108.5838 H   0  0  0  0  0  0  0  0  0  0  0  0
  122.4877  103.6732  107.4771 H   0  0  0  0  0  0  0  0  0  0  0  0
  120.1576  103.7282  106.7227 H   0  0  0  0  0  0  0  0  0  0  0  0
  120.1400  105.4896  106.7491 H   0  0  0  0  0  0  0  0  0  0  0  0
  122.3573  106.7254  107.5739 H   0  0  0  0  0  0  0  0  0  0  0  0
  123.7210  105.7180  108.0347 H   0  0  0  0  0  0  0  0  0  0  0  0
  122.6391  105.7971  103.8714 H   0  0  0  0  0  0  0  0  0  0  0  0
  121.6797  106.7728  104.9726 H   0  0  0  0  0  0  0  0  0  0  0  0
  121.8453  103.7166  104.9265 H   0  0  0  0  0  0  0  0  0  0  0  0
  124.0278  104.9518  105.7158 H   0  0  0  0  0  0  0  0  0  0  0  0
  119.8243  104.7194  101.9675 H   0  0  0  0  0  0  0  0  0  0  0  0
  121.1867  103.7522  102.4895 H   0  0  0  0  0  0  0  0  0  0  0  0
  121.3176  105.5241  102.5034 H   0  0  0  0  0  0  0  0  0  0  0  0
  126.0568  108.1601  107.0923 H   0  0  0  0  0  0  0  0  0  0  0  0
  124.6818  107.4361  107.9873 H   0  0  0  0  0  0  0  0  0  0  0  0
  125.9336  106.3789  107.2586 H   0  0  0  0  0  0  0  0  0  0  0  0
  118.5211  103.3424  103.5288 H   0  0  0  0  0  0  0  0  0  0  0  0
  119.6942  102.6189  104.6510 H   0  0  0  0  0  0  0  0  0  0  0  0
  117.8448  103.0228  105.9962 H   0  0  0  0  0  0  0  0  0  0  0  0
  117.8662  104.7255  105.6037 H   0  0  0  0  0  0  0  0  0  0  0  0
  118.6995  105.9424  103.6969 H   0  0  0  0  0  0  0  0  0  0  0  0
  1  2  1  0  0  0  0
  1  3  1  0  0  0  0
  2  5  1  0  0  0  0
  3  6  1  0  0  0  0
  4  5  1  0  0  0  0
  4  6  1  0  0  0  0
  5 10  1  0  0  0  0
  6 15  1  0  0  0  0
  7 10  1  0  0  0  0
  8 15  1  0  0  0  0
  9 10  1  0  0  0  0
  9 11  1  0  0  0  0
 10 14  1  0  0  0  0
 12 15  2  0  0  0  0
 13 15  2  0  0  0  0
  1 16  1  0  0  0  0
  1 17  1  0  0  0  0
  2 18  1  0  0  0  0
  2 19  1  0  0  0  0
  3 20  1  0  0  0  0
  3 21  1  0  0  0  0
  4 22  1  0  0  0  0
  4 23  1  0  0  0  0
  5 24  1  0  0  0  0
  6 25  1  0  0  0  0
  7 26  1  0  0  0  0
  7 27  1  0  0  0  0
  7 28  1  0  0  0  0
  8 29  1  0  0  0  0
  8 30  1  0  0  0  0
  8 31  1  0  0  0  0
  9 32  1  0  0  0  0
  9 33  1  0  0  0  0
 11 34  1  0  0  0  0
 11 35  1  0  0  0  0
 14 36  1  0  0  0  0
M  END
> <FRED Chemgauss4 score>
-5.313513

$$$$
C82836280	P129486360
  -OEChem-05182014473D

 17 17  0     1  0  0  0  0  0999 V2000
  124.4461  107.0036  105.7119 C   0  0  0  0  0  0  0  0  0  0  0  0
  122.5565  106.0809  105.7449 C   0  0  0  0  0  0  0  0  0  0  0  0
  124.4841  106.0216  106.6706 C   0  0  0  0  0  0  0  0  0  0  0  0
  125.1077  105.6565  109.0971 C   0  0  0  0  0  0  0  0  0  0  0  0
  125.5338  105.5107  107.6338 C   0  0  2  0  0  0  0  0  0  0  0  0
  123.2084  107.0366  105.1221 N   0  0  0  0  0  0  0  0  0  0  0  0
  126.8028  106.1712  107.4142 N   0  0  0  0  0  0  0  0  0  0  0  0
  123.2637  105.4172  106.7000 O   0  0  0  0  0  0  0  0  0  0  0  0
  124.8430  107.0279  109.3742 O   0  0  0  0  0  0  0  0  0  0  0  0
  125.2330  107.6816  105.4166 H   0  0  0  0  0  0  0  0  0  0  0  0
  121.5366  105.7614  105.5917 H   0  0  0  0  0  0  0  0  0  0  0  0
  124.1879  105.0951  109.2946 H   0  0  0  0  0  0  0  0  0  0  0  0
  125.8852  105.3102  109.7867 H   0  0  0  0  0  0  0  0  0  0  0  0
  125.7277  104.4494  107.4330 H   0  0  0  0  0  0  0  0  0  0  0  0
  127.0601  106.4217  106.4776 H   0  0  0  0  0  0  0  0  0  0  0  0
  127.4765  106.1799  108.1575 H   0  0  0  0  0  0  0  0  0  0  0  0
  124.5777  107.0765  110.3060 H   0  0  0  0  0  0  0  0  0  0  0  0
  1  3  2  0  0  0  0
  1  6  1  0  0  0  0
  2  6  2  0  0  0  0
  2  8  1  0  0  0  0
  3  5  1  0  0  0  0
  3  8  1  0  0  0  0
  4  5  1  0  0  0  0
  4  9  1  0  0  0  0
  5  7  1  0  0  0  0
  1 10  1  0  0  0  0
  2 11  1  0  0  0  0
  4 12  1  0  0  0  0
  4 13  1  0  0  0  0
  5 14  1  0  0  0  0
  7 15  1  0  0  0  0
  7 16  1  0  0  0  0
  9 17  1  0  0  0  0
M  END
> <FRED Chemgauss4 score>
-5.308460

$$$$
C37580833	P55894510
  -OEChem-05182014473D

 41 41  0     0  0  0  0  0  0999 V2000
  120.4059  104.1405  106.5245 C   0  0  0  0  0  0  0  0  0  0  0  0
  119.2372  103.8999  106.3857 C   0  0  0  0  0  0  0  0  0  0  0  0
  122.6754  103.4131  107.0715 C   0  0  0  0  0  0  0  0  0  0  0  0
  124.0329  103.6911  107.2312 C   0  0  0  0  0  0  0  0  0  0  0  0
  122.2752  105.7168  106.4631 C   0  0  0  0  0  0  0  0  0  0  0  0
  121.7965  104.4260  106.6874 C   0  0  0  0  0  0  0  0  0  0  0  0
  124.5116  104.9819  107.0069 C   0  0  0  0  0  0  0  0  0  0  0  0
  123.6327  105.9948  106.6228 C   0  0  0  0  0  0  0  0  0  0  0  0
  125.9710  105.2453  107.1869 C   0  0  0  0  0  0  0  0  0  0  0  0
  121.0061  108.9226  110.0074 C   0  0  0  0  0  0  0  0  0  0  0  0
  122.1127  110.8854  110.8413 C   0  0  0  0  0  0  0  0  0  0  0  0
  117.8140  103.6097  106.2181 C   0  0  0  0  0  0  0  0  0  0  0  0
  123.8287  108.1206  109.0162 C   0  0  0  0  0  0  0  0  0  0  0  0
  123.2026  109.4904  109.2168 C   0  0  0  0  0  0  0  0  0  0  0  0
  117.6157  102.4706  105.3663 N   0  0  0  0  0  0  0  0  0  0  0  0
  124.7378  108.0972  107.9019 N   0  0  0  0  0  0  0  0  0  0  0  0
  122.2948  109.5154  110.3631 N   0  0  0  0  0  0  0  0  0  0  0  0
  125.3608  107.5632  105.4549 O   0  0  0  0  0  0  0  0  0  0  0  0
  123.0517  108.4295  105.9464 O   0  0  0  0  0  0  0  0  0  0  0  0
  124.2068  107.6409  106.3301 S   0  0  0  0  0  0  0  0  0  0  0  0
  122.3170  102.4020  107.2498 H   0  0  0  0  0  0  0  0  0  0  0  0
  124.7091  102.8946  107.5311 H   0  0  0  0  0  0  0  0  0  0  0  0
  121.5912  106.5084  106.1633 H   0  0  0  0  0  0  0  0  0  0  0  0
  126.5055  105.0798  106.2444 H   0  0  0  0  0  0  0  0  0  0  0  0
  126.1498  106.2768  107.5141 H   0  0  0  0  0  0  0  0  0  0  0  0
  126.4004  104.5881  107.9530 H   0  0  0  0  0  0  0  0  0  0  0  0
  121.1489  107.8991  109.6509 H   0  0  0  0  0  0  0  0  0  0  0  0
  120.5266  109.5067  109.2172 H   0  0  0  0  0  0  0  0  0  0  0  0
  120.3457  108.9029  110.8785 H   0  0  0  0  0  0  0  0  0  0  0  0
  123.0790  111.3227  111.1054 H   0  0  0  0  0  0  0  0  0  0  0  0
  121.4688  110.8948  111.7249 H   0  0  0  0  0  0  0  0  0  0  0  0
  121.6496  111.4987  110.0636 H   0  0  0  0  0  0  0  0  0  0  0  0
  117.2936  104.4571  105.7623 H   0  0  0  0  0  0  0  0  0  0  0  0
  117.3394  103.3885  107.1785 H   0  0  0  0  0  0  0  0  0  0  0  0
  123.0668  107.3562  108.8327 H   0  0  0  0  0  0  0  0  0  0  0  0
  124.4016  107.8354  109.9041 H   0  0  0  0  0  0  0  0  0  0  0  0
  123.9793  110.2379  109.4057 H   0  0  0  0  0  0  0  0  0  0  0  0
  122.6298  109.7999  108.3366 H   0  0  0  0  0  0  0  0  0  0  0  0
  118.2158  102.3428  104.5658 H   0  0  0  0  0  0  0  0  0  0  0  0
  116.7678  101.9312  105.4534 H   0  0  0  0  0  0  0  0  0  0  0  0
  125.5735  108.7172  107.9483 H   0  0  0  0  0  0  0  0  0  0  0  0
  1  2  3  0  0  0  0
  1  6  1  0  0  0  0
  2 12  1  0  0  0  0
  3  4  2  0  0  0  0
  3  6  1  0  0  0  0
  4  7  1  0  0  0  0
  5  6  2  0  0  0  0
  5  8  1  0  0  0  0
  7  8  2  0  0  0  0
  7  9  1  0  0  0  0
  8 20  1  0  0  0  0
 10 17  1  0  0  0  0
 11 17  1  0  0  0  0
 12 15  1  0  0  0  0
 13 14  1  0  0  0  0
 13 16  1  0  0  0  0
 14 17  1  0  0  0  0
 16 20  1  0  0  0  0
 18 20  2  0  0  0  0
 19 20  2  0  0  0  0
  3 21  1  0  0  0  0
  4 22  1  0  0  0  0
  5 23  1  0  0  0  0
  9 24  1  0  0  0  0
  9 25  1  0  0  0  0
  9 26  1  0  0  0  0
 10 27  1  0  0  0  0
 10 28  1  0  0  0  0
 10 29  1  0  0  0  0
 11 30  1  0  0  0  0
 11 31  1  0  0  0  0
 11 32  1  0  0  0  0
 12 33  1  0  0  0  0
 12 34  1  0  0  0  0
 13 35  1  0  0  0  0
 13 36  1  0  0  0  0
 14 37  1  0  0  0  0
 14 38  1  0  0  0  0
 15 39  1  0  0  0  0
 15 40  1  0  0  0  0
 16 41  1  0  0  0  0
M  END
> <FRED Chemgauss4 score>
-5.307213

$$$$
C82906217	P129602072
  -OEChem-05182014473D

 32 31  0     1  0  0  0  0  0999 V2000
  125.8849  107.2131  106.6001 C   0  0  0  0  0  0  0  0  0  0  0  0
  124.6522  104.3853  107.0436 C   0  0  0  0  0  0  0  0  0  0  0  0
  118.8957  104.4163  105.2893 C   0  0  0  0  0  0  0  0  0  0  0  0
  122.4980  104.1405  106.0082 C   0  0  0  0  0  0  0  0  0  0  0  0
  123.5795  107.9967  107.3606 C   0  0  0  0  0  0  0  0  0  0  0  0
  123.8065  106.1152  105.6067 C   0  0  0  0  0  0  0  0  0  0  0  0
  121.1205  104.7756  105.9553 C   0  0  0  0  0  0  0  0  0  0  0  0
  124.4143  107.4027  106.2045 C   0  0  2  0  0  0  0  0  0  0  0  0
  122.1876  108.2679  107.0261 N   0  0  0  0  0  0  0  0  0  0  0  0
  123.4550  105.0900  106.5801 N   0  0  2  0  0  0  0  0  0  0  0  0
  124.3901  108.3683  105.1376 O   0  0  0  0  0  0  0  0  0  0  0  0
  120.2022  103.8633  105.3668 O   0  0  0  0  0  0  0  0  0  0  0  0
  126.4589  106.7912  105.7669 H   0  0  0  0  0  0  0  0  0  0  0  0
  126.0073  106.5540  107.4646 H   0  0  0  0  0  0  0  0  0  0  0  0
  126.3489  108.1782  106.8340 H   0  0  0  0  0  0  0  0  0  0  0  0
  125.3650  105.0959  107.4700 H   0  0  0  0  0  0  0  0  0  0  0  0
  125.1307  103.8643  106.2098 H   0  0  0  0  0  0  0  0  0  0  0  0
  124.3863  103.6514  107.8091 H   0  0  0  0  0  0  0  0  0  0  0  0
  118.2183  103.6902  104.8333 H   0  0  0  0  0  0  0  0  0  0  0  0
  118.9212  105.3315  104.6924 H   0  0  0  0  0  0  0  0  0  0  0  0
  118.5486  104.6513  106.2983 H   0  0  0  0  0  0  0  0  0  0  0  0
  122.4960  103.2393  106.6296 H   0  0  0  0  0  0  0  0  0  0  0  0
  122.8363  103.8802  105.0008 H   0  0  0  0  0  0  0  0  0  0  0  0
  123.6196  107.3206  108.2240 H   0  0  0  0  0  0  0  0  0  0  0  0
  124.0417  108.9317  107.7005 H   0  0  0  0  0  0  0  0  0  0  0  0
  122.9126  106.3708  105.0234 H   0  0  0  0  0  0  0  0  0  0  0  0
  124.5118  105.6868  104.8835 H   0  0  0  0  0  0  0  0  0  0  0  0
  121.1468  105.6763  105.3343 H   0  0  0  0  0  0  0  0  0  0  0  0
  120.7612  105.0414  106.9548 H   0  0  0  0  0  0  0  0  0  0  0  0
  121.7105  108.9834  107.5336 H   0  0  0  0  0  0  0  0  0  0  0  0
  121.7013  107.6073  106.4565 H   0  0  0  0  0  0  0  0  0  0  0  0
  124.7803  109.1727  105.5032 H   0  0  0  0  0  0  0  0  0  0  0  0
  1  8  1  0  0  0  0
  2 10  1  0  0  0  0
  3 12  1  0  0  0  0
  4  7  1  0  0  0  0
  4 10  1  0  0  0  0
  5  8  1  0  0  0  0
  5  9  1  0  0  0  0
  6  8  1  0  0  0  0
  6 10  1  0  0  0  0
  7 12  1  0  0  0  0
  8 11  1  0  0  0  0
  1 13  1  0  0  0  0
  1 14  1  0  0  0  0
  1 15  1  0  0  0  0
  2 16  1  0  0  0  0
  2 17  1  0  0  0  0
  2 18  1  0  0  0  0
  3 19  1  0  0  0  0
  3 20  1  0  0  0  0
  3 21  1  0  0  0  0
  4 22  1  0  0  0  0
  4 23  1  0  0  0  0
  5 24  1  0  0  0  0
  5 25  1  0  0  0  0
  6 26  1  0  0  0  0
  6 27  1  0  0  0  0
  7 28  1  0  0  0  0
  7 29  1  0  0  0  0
  9 30  1  0  0  0  0
  9 31  1  0  0  0  0
 11 32  1  0  0  0  0
M  END
> <FRED Chemgauss4 score>
-5.305076

$$$$
C40750612	P61870376
  -OEChem-05182014473D

 26 26  0     1  0  0  0  0  0999 V2000
  121.0398  104.6998  102.6080 C   0  0  0  0  0  0  0  0  0  0  0  0
  121.0855  105.7447  103.6875 C   0  0  2  0  0  0  0  0  0  0  0  0
  122.1356  105.7169  104.7454 C   0  0  0  0  0  0  0  0  0  0  0  0
  123.5867  107.1297  106.0380 C   0  0  0  0  0  0  0  0  0  0  0  0
  121.2053  107.2716  106.3233 C   0  0  0  0  0  0  0  0  0  0  0  0
  124.6582  107.4689  105.0179 C   0  0  0  0  0  0  0  0  0  0  0  0
  121.5212  106.5851  107.6395 C   0  0  0  0  0  0  0  0  0  0  0  0
  122.2889  107.0296  105.3714 N   0  0  0  0  0  0  0  0  0  0  0  0
  120.1580  104.6560  103.7411 O   0  0  0  0  0  0  0  0  0  0  0  0
  125.9119  107.6001  105.6758 O   0  0  0  0  0  0  0  0  0  0  0  0
  120.4823  106.8526  108.5729 O   0  0  0  0  0  0  0  0  0  0  0  0
  120.6099  104.9717  101.6528 H   0  0  0  0  0  0  0  0  0  0  0  0
  121.8303  103.9624  102.5604 H   0  0  0  0  0  0  0  0  0  0  0  0
  120.7027  106.7337  103.4790 H   0  0  0  0  0  0  0  0  0  0  0  0
  123.1029  105.4357  104.3183 H   0  0  0  0  0  0  0  0  0  0  0  0
  121.8759  105.0013  105.5311 H   0  0  0  0  0  0  0  0  0  0  0  0
  123.7947  106.1737  106.5289 H   0  0  0  0  0  0  0  0  0  0  0  0
  123.5209  107.9153  106.7968 H   0  0  0  0  0  0  0  0  0  0  0  0
  120.2759  106.8894  105.8894 H   0  0  0  0  0  0  0  0  0  0  0  0
  121.1146  108.3522  106.4695 H   0  0  0  0  0  0  0  0  0  0  0  0
  124.4279  108.4242  104.5361 H   0  0  0  0  0  0  0  0  0  0  0  0
  124.7430  106.6931  104.2500 H   0  0  0  0  0  0  0  0  0  0  0  0
  122.4556  106.9779  108.0523 H   0  0  0  0  0  0  0  0  0  0  0  0
  121.6132  105.5011  107.5162 H   0  0  0  0  0  0  0  0  0  0  0  0
  126.5655  107.8160  104.9913 H   0  0  0  0  0  0  0  0  0  0  0  0
  120.7223  106.3978  109.3962 H   0  0  0  0  0  0  0  0  0  0  0  0
  1  2  1  0  0  0  0
  1  9  1  0  0  0  0
  2  3  1  0  0  0  0
  2  9  1  0  0  0  0
  3  8  1  0  0  0  0
  4  6  1  0  0  0  0
  4  8  1  0  0  0  0
  5  7  1  0  0  0  0
  5  8  1  0  0  0  0
  6 10  1  0  0  0  0
  7 11  1  0  0  0  0
  1 12  1  0  0  0  0
  1 13  1  0  0  0  0
  2 14  1  0  0  0  0
  3 15  1  0  0  0  0
  3 16  1  0  0  0  0
  4 17  1  0  0  0  0
  4 18  1  0  0  0  0
  5 19  1  0  0  0  0
  5 20  1  0  0  0  0
  6 21  1  0  0  0  0
  6 22  1  0  0  0  0
  7 23  1  0  0  0  0
  7 24  1  0  0  0  0
 10 25  1  0  0  0  0
 11 26  1  0  0  0  0
M  END
> <FRED Chemgauss4 score>
-5.304116

$$$$
C83295839	P130212271
  -OEChem-05182014473D

 16 15  0     0  0  0  0  0  0999 V2000
  123.9055  106.7262  106.6278 C   0  0  0  0  0  0  0  0  0  0  0  0
  126.4882  105.3724  108.8701 C   0  0  0  0  0  0  0  0  0  0  0  0
  125.4358  105.2118  107.7901 C   0  0  0  0  0  0  0  0  0  0  0  0
  122.7139  104.6477  106.8898 N   0  0  0  0  0  0  0  0  0  0  0  0
  122.9398  105.8321  106.2084 N   0  0  0  0  0  0  0  0  0  0  0  0
  127.3175  106.4825  108.5487 O   0  0  0  0  0  0  0  0  0  0  0  0
  124.6310  106.4032  107.7380 O   0  0  0  0  0  0  0  0  0  0  0  0
  124.3140  108.1929  105.9331 S   0  0  0  0  0  0  0  0  0  0  0  0
  127.1215  104.4826  108.9392 H   0  0  0  0  0  0  0  0  0  0  0  0
  126.0169  105.5657  109.8382 H   0  0  0  0  0  0  0  0  0  0  0  0
  124.7768  104.3645  108.0040 H   0  0  0  0  0  0  0  0  0  0  0  0
  125.9078  105.0741  106.8129 H   0  0  0  0  0  0  0  0  0  0  0  0
  121.7176  104.4479  106.8104 H   0  0  0  0  0  0  0  0  0  0  0  0
  122.8856  104.8383  107.8761 H   0  0  0  0  0  0  0  0  0  0  0  0
  122.3618  105.9996  105.3923 H   0  0  0  0  0  0  0  0  0  0  0  0
  127.9755  106.5539  109.2585 H   0  0  0  0  0  0  0  0  0  0  0  0
  1  5  1  0  0  0  0
  1  7  1  0  0  0  0
  1  8  2  0  0  0  0
  2  3  1  0  0  0  0
  2  6  1  0  0  0  0
  3  7  1  0  0  0  0
  4  5  1  0  0  0  0
  2  9  1  0  0  0  0
  2 10  1  0  0  0  0
  3 11  1  0  0  0  0
  3 12  1  0  0  0  0
  4 13  1  0  0  0  0
  4 14  1  0  0  0  0
  5 15  1  0  0  0  0
  6 16  1  0  0  0  0
M  END
> <FRED Chemgauss4 score>
-5.303820

$$$$
C82915762	P129631292
  -OEChem-05182014473D

 29 29  0     1  0  0  0  0  0999 V2000
  117.1108  104.7309  106.1057 C   0  0  0  0  0  0  0  0  0  0  0  0
  118.9600  103.7633  106.0694 C   0  0  0  0  0  0  0  0  0  0  0  0
  123.1269  105.8138  104.8114 C   0  0  0  0  0  0  0  0  0  0  0  0
  121.5963  104.8418  106.9929 C   0  0  0  0  0  0  0  0  0  0  0  0
  122.8979  105.5951  107.3095 C   0  0  0  0  0  0  0  0  0  0  0  0
  120.4077  105.7824  106.7549 C   0  0  0  0  0  0  0  0  0  0  0  0
  124.8981  106.8792  106.2856 C   0  0  0  0  0  0  0  0  0  0  0  0
  123.4102  106.4938  106.1587 C   0  0  1  0  0  0  0  0  0  0  0  0
  117.6876  103.5179  105.8594 N   0  0  0  0  0  0  0  0  0  0  0  0
  117.9463  105.7114  106.4549 N   0  0  0  0  0  0  0  0  0  0  0  0
  119.1223  105.0663  106.4242 N   0  0  0  0  0  0  0  0  0  0  0  0
  125.3422  107.8533  105.2963 N   0  0  0  0  0  0  0  0  0  0  0  0
  122.6715  107.7230  106.1745 O   0  0  0  0  0  0  0  0  0  0  0  0
  116.0480  104.9057  106.0301 H   0  0  0  0  0  0  0  0  0  0  0  0
  119.7758  103.0594  105.9847 H   0  0  0  0  0  0  0  0  0  0  0  0
  123.4821  106.4338  103.9799 H   0  0  0  0  0  0  0  0  0  0  0  0
  122.0598  105.6239  104.6609 H   0  0  0  0  0  0  0  0  0  0  0  0
  123.6652  104.8623  104.7352 H   0  0  0  0  0  0  0  0  0  0  0  0
  121.7366  104.1974  106.1182 H   0  0  0  0  0  0  0  0  0  0  0  0
  121.3440  104.1858  107.8345 H   0  0  0  0  0  0  0  0  0  0  0  0
  122.7661  106.1990  108.2152 H   0  0  0  0  0  0  0  0  0  0  0  0
  123.6683  104.8463  107.5384 H   0  0  0  0  0  0  0  0  0  0  0  0
  120.2407  106.3841  107.6578 H   0  0  0  0  0  0  0  0  0  0  0  0
  120.6564  106.4999  105.9629 H   0  0  0  0  0  0  0  0  0  0  0  0
  125.5256  105.9831  106.2128 H   0  0  0  0  0  0  0  0  0  0  0  0
  125.0884  107.2770  107.2907 H   0  0  0  0  0  0  0  0  0  0  0  0
  125.0052  107.7630  104.3610 H   0  0  0  0  0  0  0  0  0  0  0  0
  126.1128  108.4438  105.5288 H   0  0  0  0  0  0  0  0  0  0  0  0
  122.9999  108.2417  105.4269 H   0  0  0  0  0  0  0  0  0  0  0  0
  1  9  1  0  0  0  0
  1 10  2  0  0  0  0
  2  9  2  0  0  0  0
  2 11  1  0  0  0  0
  3  8  1  0  0  0  0
  4  5  1  0  0  0  0
  4  6  1  0  0  0  0
  5  8  1  0  0  0  0
  6 11  1  0  0  0  0
  7  8  1  0  0  0  0
  7 12  1  0  0  0  0
  8 13  1  0  0  0  0
 10 11  1  0  0  0  0
  1 14  1  0  0  0  0
  2 15  1  0  0  0  0
  3 16  1  0  0  0  0
  3 17  1  0  0  0  0
  3 18  1  0  0  0  0
  4 19  1  0  0  0  0
  4 20  1  0  0  0  0
  5 21  1  0  0  0  0
  5 22  1  0  0  0  0
  6 23  1  0  0  0  0
  6 24  1  0  0  0  0
  7 25  1  0  0  0  0
  7 26  1  0  0  0  0
 12 27  1  0  0  0  0
 12 28  1  0  0  0  0
 13 29  1  0  0  0  0
M  END
> <FRED Chemgauss4 score>
-5.303221

$$$$
C95630366	P150376101
  -OEChem-05182014473D

 25 24  0     1  0  0  0  0  0999 V2000
  125.6815  106.4469  106.8137 C   0  0  0  0  0  0  0  0  0  0  0  0
  118.9177  104.0365  105.6198 C   0  0  0  0  0  0  0  0  0  0  0  0
  120.0789  104.2883  104.6754 C   0  0  0  0  0  0  0  0  0  0  0  0
  121.8262  104.5934  106.2171 C   0  0  0  0  0  0  0  0  0  0  0  0
  122.7711  105.6300  106.7937 C   0  0  0  0  0  0  0  0  0  0  0  0
  124.4816  107.1605  106.2096 C   0  0  1  0  0  0  0  0  0  0  0  0
  117.9630  103.0940  104.9929 N   0  0  0  0  0  0  0  0  0  0  0  0
  124.9135  108.0309  105.1680 O   0  0  0  0  0  0  0  0  0  0  0  0
  120.9740  105.2201  105.2661 O   0  0  0  0  0  0  0  0  0  0  0  0
  123.5618  106.1718  105.7440 O   0  0  0  0  0  0  0  0  0  0  0  0
  126.1851  105.8278  106.0645 H   0  0  0  0  0  0  0  0  0  0  0  0
  126.4163  107.1701  107.1848 H   0  0  0  0  0  0  0  0  0  0  0  0
  125.3801  105.8203  107.6589 H   0  0  0  0  0  0  0  0  0  0  0  0
  119.2609  103.6002  106.5632 H   0  0  0  0  0  0  0  0  0  0  0  0
  118.3875  104.9705  105.8289 H   0  0  0  0  0  0  0  0  0  0  0  0
  119.7131  104.7188  103.7380 H   0  0  0  0  0  0  0  0  0  0  0  0
  120.6259  103.3657  104.4550 H   0  0  0  0  0  0  0  0  0  0  0  0
  121.1993  104.1531  106.9984 H   0  0  0  0  0  0  0  0  0  0  0  0
  122.3877  103.8053  105.7070 H   0  0  0  0  0  0  0  0  0  0  0  0
  123.4444  105.1831  107.5318 H   0  0  0  0  0  0  0  0  0  0  0  0
  122.2081  106.4466  107.2552 H   0  0  0  0  0  0  0  0  0  0  0  0
  124.0021  107.7695  106.9845 H   0  0  0  0  0  0  0  0  0  0  0  0
  117.0259  103.1329  105.3019 H   0  0  0  0  0  0  0  0  0  0  0  0
  118.3460  102.3547  104.4619 H   0  0  0  0  0  0  0  0  0  0  0  0
  125.5280  108.6802  105.5491 H   0  0  0  0  0  0  0  0  0  0  0  0
  1  6  1  0  0  0  0
  2  3  1  0  0  0  0
  2  7  1  0  0  0  0
  3  9  1  0  0  0  0
  4  5  1  0  0  0  0
  4  9  1  0  0  0  0
  5 10  1  0  0  0  0
  6  8  1  0  0  0  0
  6 10  1  0  0  0  0
  1 11  1  0  0  0  0
  1 12  1  0  0  0  0
  1 13  1  0  0  0  0
  2 14  1  0  0  0  0
  2 15  1  0  0  0  0
  3 16  1  0  0  0  0
  3 17  1  0  0  0  0
  4 18  1  0  0  0  0
  4 19  1  0  0  0  0
  5 20  1  0  0  0  0
  5 21  1  0  0  0  0
  6 22  1  0  0  0  0
  7 23  1  0  0  0  0
  7 24  1  0  0  0  0
  8 25  1  0  0  0  0
M  END
> <FRED Chemgauss4 score>
-5.302461

$$$$
C51074732	P76470640
  -OEChem-05182014473D

 20 20  0     1  0  0  0  0  0999 V2000
  125.6870  103.1947  108.4853 C   0  0  0  0  0  0  0  0  0  0  0  0
  125.7169  104.3949  108.4873 C   0  0  0  0  0  0  0  0  0  0  0  0
  121.9676  106.5666  105.2725 C   0  0  0  0  0  0  0  0  0  0  0  0
  122.2827  105.5932  106.1949 C   0  0  0  0  0  0  0  0  0  0  0  0
  124.0622  107.4565  105.4960 C   0  0  0  0  0  0  0  0  0  0  0  0
  124.3772  106.4836  106.4189 C   0  0  0  0  0  0  0  0  0  0  0  0
  125.7513  105.8674  108.4922 C   0  0  0  0  0  0  0  0  0  0  0  0
  125.7531  106.4487  107.0637 C   0  0  1  0  0  0  0  0  0  0  0  0
  122.8517  107.5157  104.9065 N   0  0  0  0  0  0  0  0  0  0  0  0
  123.4932  105.5343  106.7847 N   0  0  0  0  0  0  0  0  0  0  0  0
  126.6970  105.6949  106.2280 N   0  0  0  0  0  0  0  0  0  0  0  0
  125.6601  102.1301  108.4829 H   0  0  0  0  0  0  0  0  0  0  0  0
  120.9946  106.6133  104.7992 H   0  0  0  0  0  0  0  0  0  0  0  0
  121.5718  104.8308  106.4884 H   0  0  0  0  0  0  0  0  0  0  0  0
  124.7679  108.2226  105.1968 H   0  0  0  0  0  0  0  0  0  0  0  0
  126.6609  106.1869  109.0178 H   0  0  0  0  0  0  0  0  0  0  0  0
  124.9061  106.2507  109.0768 H   0  0  0  0  0  0  0  0  0  0  0  0
  126.1350  107.4770  107.1171 H   0  0  0  0  0  0  0  0  0  0  0  0
  127.5126  105.3345  106.6648 H   0  0  0  0  0  0  0  0  0  0  0  0
  126.5869  105.7521  105.2427 H   0  0  0  0  0  0  0  0  0  0  0  0
  1  2  3  0  0  0  0
  2  7  1  0  0  0  0
  3  4  2  0  0  0  0
  3  9  1  0  0  0  0
  4 10  1  0  0  0  0
  5  6  1  0  0  0  0
  5  9  2  0  0  0  0
  6  8  1  0  0  0  0
  6 10  2  0  0  0  0
  7  8  1  0  0  0  0
  8 11  1  0  0  0  0
  1 12  1  0  0  0  0
  3 13  1  0  0  0  0
  4 14  1  0  0  0  0
  5 15  1  0  0  0  0
  7 16  1  0  0  0  0
  7 17  1  0  0  0  0
  8 18  1  0  0  0  0
 11 19  1  0  0  0  0
 11 20  1  0  0  0  0
M  END
> <FRED Chemgauss4 score>
-5.300406

$$$$
C20417407	P30428796
  -OEChem-05182014473D

 15 15  0     0  0  0  0  0  0999 V2000
  123.9336  106.3857  107.1195 C   0  0  0  0  0  0  0  0  0  0  0  0
  123.2791  107.1830  106.2022 C   0  0  0  0  0  0  0  0  0  0  0  0
  125.8490  107.7200  106.7199 C   0  0  0  0  0  0  0  0  0  0  0  0
  125.2625  106.6635  107.3874 C   0  0  0  0  0  0  0  0  0  0  0  0
  126.0343  105.8493  108.3637 C   0  0  0  0  0  0  0  0  0  0  0  0
  123.8781  108.2106  105.5639 N   0  0  0  0  0  0  0  0  0  0  0  0
  125.1843  108.4833  105.8269 N   0  0  0  0  0  0  0  0  0  0  0  0
  126.9494  104.9381  107.7211 N   0  0  0  0  0  0  0  0  0  0  0  0
  123.4146  105.5698  107.6105 H   0  0  0  0  0  0  0  0  0  0  0  0
  122.2385  107.0175  105.9497 H   0  0  0  0  0  0  0  0  0  0  0  0
  126.8862  107.9937  106.8794 H   0  0  0  0  0  0  0  0  0  0  0  0
  126.6269  106.4872  109.0368 H   0  0  0  0  0  0  0  0  0  0  0  0
  125.3730  105.2469  109.0042 H   0  0  0  0  0  0  0  0  0  0  0  0
  127.2193  104.0982  108.2034 H   0  0  0  0  0  0  0  0  0  0  0  0
  127.4537  105.2473  106.9080 H   0  0  0  0  0  0  0  0  0  0  0  0
  1  2  1  0  0  0  0
  1  4  2  0  0  0  0
  2  6  2  0  0  0  0
  3  4  1  0  0  0  0
  3  7  2  0  0  0  0
  4  5  1  0  0  0  0
  5  8  1  0  0  0  0
  6  7  1  0  0  0  0
  1  9  1  0  0  0  0
  2 10  1  0  0  0  0
  3 11  1  0  0  0  0
  5 12  1  0  0  0  0
  5 13  1  0  0  0  0
  8 14  1  0  0  0  0
  8 15  1  0  0  0  0
M  END
> <FRED Chemgauss4 score>
-5.281033

$$$$
C87344280	P136645279
  -OEChem-05182014473D

 23 24  0     1  0  0  0  0  0999 V2000
  126.7240  105.9042  108.2795 C   0  0  0  0  0  0  0  0  0  0  0  0
  125.7817  105.7818  109.2734 C   0  0  0  0  0  0  0  0  0  0  0  0
  123.8074  106.4396  106.2972 C   0  0  0  0  0  0  0  0  0  0  0  0
  124.8454  106.1920  107.3210 C   0  0  0  0  0  0  0  0  0  0  0  0
  122.1253  106.1919  105.0296 C   0  0  0  0  0  0  0  0  0  0  0  0
  120.5336  104.2308  104.9133 C   0  0  0  0  0  0  0  0  0  0  0  0
  120.9063  105.6031  104.3578 C   0  0  1  0  0  0  0  0  0  0  0  0
  123.7300  107.5614  105.5548 N   0  5  0  0  0  0  0  0  0  0  0  0
  126.1347  106.1597  107.0667 N   0  0  0  0  0  0  0  0  0  0  0  0
  122.8277  105.5784  105.9914 N   0  0  0  0  0  0  0  0  0  0  0  0
  122.6409  107.4015  104.7349 N   0  0  0  0  0  0  0  0  0  0  0  0
  124.5833  105.9691  108.6442 N   0  0  0  0  0  0  0  0  0  0  0  0
  119.7056  106.4884  104.4625 N   0  3  0  0  0  0  0  0  0  0  0  0
  127.7964  105.8212  108.3761 H   0  0  0  0  0  0  0  0  0  0  0  0
  125.8504  105.5862  110.3334 H   0  0  0  0  0  0  0  0  0  0  0  0
  120.3412  104.2616  105.9915 H   0  0  0  0  0  0  0  0  0  0  0  0
  119.6312  103.8451  104.4259 H   0  0  0  0  0  0  0  0  0  0  0  0
  121.3400  103.5093  104.7404 H   0  0  0  0  0  0  0  0  0  0  0  0
  121.0857  105.5072  103.2805 H   0  0  0  0  0  0  0  0  0  0  0  0
  123.6709  105.9459  109.0803 H   0  0  0  0  0  0  0  0  0  0  0  0
  119.4320  106.8264  103.5384 H   0  0  0  0  0  0  0  0  0  0  0  0
  119.9098  107.2939  105.0567 H   0  0  0  0  0  0  0  0  0  0  0  0
  118.9205  105.9754  104.8675 H   0  0  0  0  0  0  0  0  0  0  0  0
  1  2  2  0  0  0  0
  1  9  1  0  0  0  0
  2 12  1  0  0  0  0
  3  4  1  0  0  0  0
  3  8  1  0  0  0  0
  3 10  2  0  0  0  0
  4  9  2  0  0  0  0
  4 12  1  0  0  0  0
  5  7  1  0  0  0  0
  5 10  1  0  0  0  0
  5 11  2  0  0  0  0
  6  7  1  0  0  0  0
  7 13  1  0  0  0  0
  8 11  1  0  0  0  0
  1 14  1  0  0  0  0
  2 15  1  0  0  0  0
  6 16  1  0  0  0  0
  6 17  1  0  0  0  0
  6 18  1  0  0  0  0
  7 19  1  0  0  0  0
 12 20  1  0  0  0  0
 13 21  1  0  0  0  0
 13 22  1  0  0  0  0
 13 23  1  0  0  0  0
M  CHG  2   8  -1  13   1
M  END
> <FRED Chemgauss4 score>
-5.279346

$$$$
C82928767	P129631279
  -OEChem-05182014473D

 29 29  0     1  0  0  0  0  0999 V2000
  121.0220  104.7793  107.8124 C   0  0  0  0  0  0  0  0  0  0  0  0
  122.2122  104.1882  106.2026 C   0  0  0  0  0  0  0  0  0  0  0  0
  125.1612  103.4485  107.1709 C   0  0  0  0  0  0  0  0  0  0  0  0
  125.6718  107.6450  107.5839 C   0  0  0  0  0  0  0  0  0  0  0  0
  125.0679  105.7248  106.0796 C   0  0  0  0  0  0  0  0  0  0  0  0
  123.5233  107.8054  106.2365 C   0  0  0  0  0  0  0  0  0  0  0  0
  124.5020  104.8357  107.2168 C   0  0  1  0  0  0  0  0  0  0  0  0
  124.9669  107.2610  106.2729 C   0  0  1  0  0  0  0  0  0  0  0  0
  120.9508  104.2315  106.5635 N   0  0  0  0  0  0  0  0  0  0  0  0
  122.2483  105.0777  108.2468 N   0  0  0  0  0  0  0  0  0  0  0  0
  122.9907  104.6899  107.1987 N   0  0  0  0  0  0  0  0  0  0  0  0
  122.8157  107.5176  104.9950 N   0  0  0  0  0  0  0  0  0  0  0  0
  125.6955  107.8975  105.2163 O   0  0  0  0  0  0  0  0  0  0  0  0
  120.1534  104.9654  108.4260 H   0  0  0  0  0  0  0  0  0  0  0  0
  122.6035  103.8147  105.2669 H   0  0  0  0  0  0  0  0  0  0  0  0
  124.9110  102.9338  106.2367 H   0  0  0  0  0  0  0  0  0  0  0  0
  126.2528  103.5303  107.2234 H   0  0  0  0  0  0  0  0  0  0  0  0
  124.8330  102.8117  107.9997 H   0  0  0  0  0  0  0  0  0  0  0  0
  125.6176  108.7274  107.7495 H   0  0  0  0  0  0  0  0  0  0  0  0
  125.1784  107.1783  108.4442 H   0  0  0  0  0  0  0  0  0  0  0  0
  126.7259  107.3511  107.5884 H   0  0  0  0  0  0  0  0  0  0  0  0
  124.5621  105.4592  105.1412 H   0  0  0  0  0  0  0  0  0  0  0  0
  126.1252  105.4626  105.9375 H   0  0  0  0  0  0  0  0  0  0  0  0
  122.9528  107.3878  107.0761 H   0  0  0  0  0  0  0  0  0  0  0  0
  123.5243  108.8876  106.4077 H   0  0  0  0  0  0  0  0  0  0  0  0
  124.8013  105.2774  108.1752 H   0  0  0  0  0  0  0  0  0  0  0  0
  122.0745  108.1279  104.7221 H   0  0  0  0  0  0  0  0  0  0  0  0
  122.9521  106.6243  104.5707 H   0  0  0  0  0  0  0  0  0  0  0  0
  125.6518  108.8477  105.3941 H   0  0  0  0  0  0  0  0  0  0  0  0
  1  9  1  0  0  0  0
  1 10  2  0  0  0  0
  2  9  2  0  0  0  0
  2 11  1  0  0  0  0
  3  7  1  0  0  0  0
  4  8  1  0  0  0  0
  5  7  1  0  0  0  0
  5  8  1  0  0  0  0
  6  8  1  0  0  0  0
  6 12  1  0  0  0  0
  7 11  1  0  0  0  0
  8 13  1  0  0  0  0
 10 11  1  0  0  0  0
  1 14  1  0  0  0  0
  2 15  1  0  0  0  0
  3 16  1  0  0  0  0
  3 17  1  0  0  0  0
  3 18  1  0  0  0  0
  4 19  1  0  0  0  0
  4 20  1  0  0  0  0
  4 21  1  0  0  0  0
  5 22  1  0  0  0  0
  5 23  1  0  0  0  0
  6 24  1  0  0  0  0
  6 25  1  0  0  0  0
  7 26  1  0  0  0  0
 12 27  1  0  0  0  0
 12 28  1  0  0  0  0
 13 29  1  0  0  0  0
M  END
> <FRED Chemgauss4 score>
-5.277395

$$$$
C91502398	P143190438
  -OEChem-05182014473D

 39 40  0     1  0  0  0  0  0999 V2000
  122.0917  105.7878  105.3508 C   0  0  0  0  0  0  0  0  0  0  0  0
  121.1292  104.8181  105.0476 C   0  0  0  0  0  0  0  0  0  0  0  0
  120.2126  104.9485  107.2942 C   0  0  0  0  0  0  0  0  0  0  0  0
  122.4784  107.4672  108.5743 C   0  0  0  0  0  0  0  0  0  0  0  0
  122.1188  106.3487  106.6432 C   0  0  0  0  0  0  0  0  0  0  0  0
  121.1805  105.9170  107.5831 C   0  0  0  0  0  0  0  0  0  0  0  0
  120.2050  104.4064  106.0058 C   0  0  0  0  0  0  0  0  0  0  0  0
  122.9310  107.3266  107.2827 C   0  0  0  0  0  0  0  0  0  0  0  0
  126.2730  104.8253  107.1018 C   0  0  0  0  0  0  0  0  0  0  0  0
  127.1646  106.9324  108.1375 C   0  0  0  0  0  0  0  0  0  0  0  0
  125.7239  102.4221  107.1548 C   0  0  0  0  0  0  0  0  0  0  0  0
  124.4130  103.9277  108.5924 C   0  0  0  0  0  0  0  0  0  0  0  0
  125.9380  106.2458  107.5546 C   0  0  1  0  0  0  0  0  0  0  0  0
  121.4225  106.6128  108.7461 N   0  0  0  0  0  0  0  0  0  0  0  0
  119.2437  103.4260  105.6716 N   0  0  0  0  0  0  0  0  0  0  0  0
  125.4545  106.9661  106.4014 N   0  0  0  0  0  0  0  0  0  0  0  0
  125.4744  103.7890  107.5979 N   0  0  0  0  0  0  0  0  0  0  0  0
  127.1913  104.6367  106.2962 O   0  0  0  0  0  0  0  0  0  0  0  0
  123.8781  108.6468  105.2406 O   0  0  0  0  0  0  0  0  0  0  0  0
  124.7236  109.1813  107.5479 O   0  0  0  0  0  0  0  0  0  0  0  0
  124.2820  108.2115  106.5639 S   0  0  0  0  0  0  0  0  0  0  0  0
  122.8048  106.0977  104.5922 H   0  0  0  0  0  0  0  0  0  0  0  0
  121.1128  104.3885  104.0484 H   0  0  0  0  0  0  0  0  0  0  0  0
  119.4961  104.6336  108.0466 H   0  0  0  0  0  0  0  0  0  0  0  0
  122.8113  108.0972  109.3875 H   0  0  0  0  0  0  0  0  0  0  0  0
  128.0010  106.9364  107.4322 H   0  0  0  0  0  0  0  0  0  0  0  0
  126.9381  107.9702  108.4052 H   0  0  0  0  0  0  0  0  0  0  0  0
  127.5075  106.4244  109.0465 H   0  0  0  0  0  0  0  0  0  0  0  0
  126.4440  101.9373  107.8192 H   0  0  0  0  0  0  0  0  0  0  0  0
  126.1273  102.4218  106.1386 H   0  0  0  0  0  0  0  0  0  0  0  0
  124.7944  101.8465  107.1631 H   0  0  0  0  0  0  0  0  0  0  0  0
  123.4590  104.1292  108.0982 H   0  0  0  0  0  0  0  0  0  0  0  0
  124.6381  104.7535  109.2729 H   0  0  0  0  0  0  0  0  0  0  0  0
  124.3196  103.0081  109.1763 H   0  0  0  0  0  0  0  0  0  0  0  0
  125.1068  106.2453  108.2637 H   0  0  0  0  0  0  0  0  0  0  0  0
  120.8960  106.5079  109.6023 H   0  0  0  0  0  0  0  0  0  0  0  0
  119.2119  103.0767  104.7366 H   0  0  0  0  0  0  0  0  0  0  0  0
  118.5556  103.1709  106.3489 H   0  0  0  0  0  0  0  0  0  0  0  0
  126.0799  107.0157  105.5728 H   0  0  0  0  0  0  0  0  0  0  0  0
  1  2  1  0  0  0  0
  1  5  2  0  0  0  0
  2  7  2  0  0  0  0
  3  6  2  0  0  0  0
  3  7  1  0  0  0  0
  4  8  2  0  0  0  0
  4 14  1  0  0  0  0
  5  6  1  0  0  0  0
  5  8  1  0  0  0  0
  6 14  1  0  0  0  0
  7 15  1  0  0  0  0
  8 21  1  0  0  0  0
  9 13  1  0  0  0  0
  9 17  1  0  0  0  0
  9 18  2  0  0  0  0
 10 13  1  0  0  0  0
 11 17  1  0  0  0  0
 12 17  1  0  0  0  0
 13 16  1  0  0  0  0
 16 21  1  0  0  0  0
 19 21  2  0  0  0  0
 20 21  2  0  0  0  0
  1 22  1  0  0  0  0
  2 23  1  0  0  0  0
  3 24  1  0  0  0  0
  4 25  1  0  0  0  0
 10 26  1  0  0  0  0
 10 27  1  0  0  0  0
 10 28  1  0  0  0  0
 11 29  1  0  0  0  0
 11 30  1  0  0  0  0
 11 31  1  0  0  0  0
 12 32  1  0  0  0  0
 12 33  1  0  0  0  0
 12 34  1  0  0  0  0
 13 35  1  0  0  0  0
 14 36  1  0  0  0  0
 15 37  1  0  0  0  0
 15 38  1  0  0  0  0
 16 39  1  0  0  0  0
M  END
> <FRED Chemgauss4 score>
-5.274277

$$$$
C94464663	P148063757
  -OEChem-05182014473D

 44 45  0     1  0  0  0  0  0999 V2000
  124.9275  107.6785  105.7614 C   0  0  0  0  0  0  0  0  0  0  0  0
  119.9934  104.7230  102.0918 C   0  0  0  0  0  0  0  0  0  0  0  0
  121.2191  104.3082  102.9133 C   0  0  0  0  0  0  0  0  0  0  0  0
  119.4937  106.0239  102.7252 C   0  0  0  0  0  0  0  0  0  0  0  0
  122.2692  105.3078  105.0516 C   0  0  0  0  0  0  0  0  0  0  0  0
  120.2164  107.3150  104.6995 C   0  0  0  0  0  0  0  0  0  0  0  0
  121.5205  105.5422  103.7449 C   0  0  2  0  0  0  0  0  0  0  0  0
  120.9720  107.1565  106.0451 C   0  0  1  0  0  0  0  0  0  0  0  0
  120.1065  106.3939  107.0636 C   0  0  0  0  0  0  0  0  0  0  0  0
  125.2655  105.2337  106.4016 C   0  0  0  0  0  0  0  0  0  0  0  0
  124.9739  106.0447  109.1090 C   0  0  0  0  0  0  0  0  0  0  0  0
  123.1042  106.4227  107.0307 C   0  0  0  0  0  0  0  0  0  0  0  0
  124.6266  106.5740  106.7937 C   0  0  2  0  0  0  0  0  0  0  0  0
  120.1679  106.0300  104.0157 N   0  0  2  0  0  0  0  0  0  0  0  0
  122.3115  106.5668  105.8146 N   0  0  1  0  0  0  0  0  0  0  0  0
  124.3819  108.9105  106.0535 N   0  0  0  0  0  0  0  0  0  0  0  0
  125.2165  107.0227  108.0641 N   0  0  0  0  0  0  0  0  0  0  0  0
  125.5861  107.4810  104.7406 O   0  0  0  0  0  0  0  0  0  0  0  0
  120.2590  104.8822  101.0410 H   0  0  0  0  0  0  0  0  0  0  0  0
  119.2296  103.9387  102.1331 H   0  0  0  0  0  0  0  0  0  0  0  0
  120.9682  103.4468  103.5444 H   0  0  0  0  0  0  0  0  0  0  0  0
  122.0600  104.0239  102.2731 H   0  0  0  0  0  0  0  0  0  0  0  0
  119.7900  106.8782  102.1039 H   0  0  0  0  0  0  0  0  0  0  0  0
  118.4045  106.0295  102.8298 H   0  0  0  0  0  0  0  0  0  0  0  0
  121.8008  104.5062  105.6367 H   0  0  0  0  0  0  0  0  0  0  0  0
  123.2893  104.9799  104.8158 H   0  0  0  0  0  0  0  0  0  0  0  0
  119.1995  107.6796  104.8882 H   0  0  0  0  0  0  0  0  0  0  0  0
  120.7200  108.0710  104.0818 H   0  0  0  0  0  0  0  0  0  0  0  0
  122.0781  106.2625  103.1264 H   0  0  0  0  0  0  0  0  0  0  0  0
  121.1191  108.1703  106.4407 H   0  0  0  0  0  0  0  0  0  0  0  0
  119.9393  105.3836  106.7053 H   0  0  0  0  0  0  0  0  0  0  0  0
  119.1555  106.9035  107.1772 H   0  0  0  0  0  0  0  0  0  0  0  0
  120.6212  106.3629  108.0181 H   0  0  0  0  0  0  0  0  0  0  0  0
  125.0450  104.4567  107.1423 H   0  0  0  0  0  0  0  0  0  0  0  0
  124.8950  104.8617  105.4393 H   0  0  0  0  0  0  0  0  0  0  0  0
  126.3546  105.3226  106.3129 H   0  0  0  0  0  0  0  0  0  0  0  0
  123.8991  105.9115  109.2568 H   0  0  0  0  0  0  0  0  0  0  0  0
  125.4198  106.3783  110.0499 H   0  0  0  0  0  0  0  0  0  0  0  0
  125.4134  105.0818  108.8349 H   0  0  0  0  0  0  0  0  0  0  0  0
  122.8851  105.4400  107.4674 H   0  0  0  0  0  0  0  0  0  0  0  0
  122.7552  107.1737  107.7508 H   0  0  0  0  0  0  0  0  0  0  0  0
  123.8317  109.0286  106.8972 H   0  0  0  0  0  0  0  0  0  0  0  0
  124.5254  109.7002  105.4328 H   0  0  0  0  0  0  0  0  0  0  0  0
  126.2154  107.1434  107.9299 H   0  0  0  0  0  0  0  0  0  0  0  0
  1 13  1  0  0  0  0
  1 16  1  0  0  0  0
  1 18  2  0  0  0  0
  2  3  1  0  0  0  0
  2  4  1  0  0  0  0
  3  7  1  0  0  0  0
  4 14  1  0  0  0  0
  5  7  1  0  0  0  0
  5 15  1  0  0  0  0
  6  8  1  0  0  0  0
  6 14  1  0  0  0  0
  7 14  1  0  0  0  0
  8  9  1  0  0  0  0
  8 15  1  0  0  0  0
 10 13  1  0  0  0  0
 11 17  1  0  0  0  0
 12 13  1  0  0  0  0
 12 15  1  0  0  0  0
 13 17  1  0  0  0  0
  2 19  1  0  0  0  0
  2 20  1  0  0  0  0
  3 21  1  0  0  0  0
  3 22  1  0  0  0  0
  4 23  1  0  0  0  0
  4 24  1  0  0  0  0
  5 25  1  0  0  0  0
  5 26  1  0  0  0  0
  6 27  1  0  0  0  0
  6 28  1  0  0  0  0
  7 29  1  0  0  0  0
  8 30  1  0  0  0  0
  9 31  1  0  0  0  0
  9 32  1  0  0  0  0
  9 33  1  0  0  0  0
 10 34  1  0  0  0  0
 10 35  1  0  0  0  0
 10 36  1  0  0  0  0
 11 37  1  0  0  0  0
 11 38  1  0  0  0  0
 11 39  1  0  0  0  0
 12 40  1  0  0  0  0
 12 41  1  0  0  0  0
 16 42  1  0  0  0  0
 16 43  1  0  0  0  0
 17 44  1  0  0  0  0
M  END
> <FRED Chemgauss4 score>
-5.270202

$$$$
C84328183	P131958380
  -OEChem-05182014473D

 21 21  0     1  0  0  0  0  0999 V2000
  125.2763  105.7295  108.2266 C   0  0  0  0  0  0  0  0  0  0  0  0
  121.3549  105.3619  106.0121 C   0  0  0  0  0  0  0  0  0  0  0  0
  122.7036  105.2630  106.4296 C   0  0  0  0  0  0  0  0  0  0  0  0
  121.2471  106.5626  105.3498 C   0  0  0  0  0  0  0  0  0  0  0  0
  123.3240  106.4102  105.9923 C   0  0  0  0  0  0  0  0  0  0  0  0
  120.1296  107.2484  104.6857 C   0  0  0  0  0  0  0  0  0  0  0  0
  125.6981  105.9693  106.8374 C   0  0  0  0  0  0  0  0  0  0  0  0
  124.7449  106.9279  106.1039 C   0  0  1  0  0  0  0  0  0  0  0  0
  124.9451  105.5411  109.3226 N   0  0  0  0  0  0  0  0  0  0  0  0
  125.2678  107.1901  104.7757 N   0  0  0  0  0  0  0  0  0  0  0  0
  122.4430  107.2077  105.3331 O   0  0  0  0  0  0  0  0  0  0  0  0
  120.5620  104.6460  106.1750 H   0  0  0  0  0  0  0  0  0  0  0  0
  123.1631  104.4547  106.9803 H   0  0  0  0  0  0  0  0  0  0  0  0
  119.5834  107.9032  105.3879 H   0  0  0  0  0  0  0  0  0  0  0  0
  120.4654  107.8781  103.8410 H   0  0  0  0  0  0  0  0  0  0  0  0
  119.3965  106.5396  104.2576 H   0  0  0  0  0  0  0  0  0  0  0  0
  126.7276  106.3470  106.8257 H   0  0  0  0  0  0  0  0  0  0  0  0
  125.7226  105.0076  106.3086 H   0  0  0  0  0  0  0  0  0  0  0  0
  124.7364  107.8851  106.6414 H   0  0  0  0  0  0  0  0  0  0  0  0
  126.2607  107.2211  104.6503 H   0  0  0  0  0  0  0  0  0  0  0  0
  124.6404  107.5306  104.0736 H   0  0  0  0  0  0  0  0  0  0  0  0
  1  7  1  0  0  0  0
  1  9  3  0  0  0  0
  2  3  1  0  0  0  0
  2  4  2  0  0  0  0
  3  5  2  0  0  0  0
  4  6  1  0  0  0  0
  4 11  1  0  0  0  0
  5  8  1  0  0  0  0
  5 11  1  0  0  0  0
  7  8  1  0  0  0  0
  8 10  1  0  0  0  0
  2 12  1  0  0  0  0
  3 13  1  0  0  0  0
  6 14  1  0  0  0  0
  6 15  1  0  0  0  0
  6 16  1  0  0  0  0
  7 17  1  0  0  0  0
  7 18  1  0  0  0  0
  8 19  1  0  0  0  0
 10 20  1  0  0  0  0
 10 21  1  0  0  0  0
M  END
> <FRED Chemgauss4 score>
-5.267766

$$$$
C78677402	P122772480
  -OEChem-05182014473D

 19 19  0     1  0  0  0  0  0999 V2000
  121.8004  106.5291  105.6561 C   0  0  0  0  0  0  0  0  0  0  0  0
  121.9006  105.6629  106.7225 C   0  0  0  0  0  0  0  0  0  0  0  0
  124.0478  106.9348  105.7743 C   0  0  0  0  0  0  0  0  0  0  0  0
  124.1480  106.0691  106.8412 C   0  0  0  0  0  0  0  0  0  0  0  0
  126.0827  103.6042  108.5466 C   0  0  0  0  0  0  0  0  0  0  0  0
  125.8809  104.3595  107.4600 C   0  0  0  0  0  0  0  0  0  0  0  0
  125.4916  105.8169  107.5065 C   0  0  1  0  0  0  0  0  0  0  0  0
  122.8722  107.1805  105.1629 N   0  0  0  0  0  0  0  0  0  0  0  0
  123.0762  105.4174  107.3342 N   0  0  0  0  0  0  0  0  0  0  0  0
  126.5554  106.6580  106.9414 N   0  0  0  0  0  0  0  0  0  0  0  0
  120.8553  106.7259  105.1653 H   0  0  0  0  0  0  0  0  0  0  0  0
  121.0389  105.1397  107.1182 H   0  0  0  0  0  0  0  0  0  0  0  0
  124.9051  107.4619  105.3724 H   0  0  0  0  0  0  0  0  0  0  0  0
  126.3633  102.5615  108.4460 H   0  0  0  0  0  0  0  0  0  0  0  0
  125.9712  104.0071  109.5470 H   0  0  0  0  0  0  0  0  0  0  0  0
  126.0093  103.8964  106.4838 H   0  0  0  0  0  0  0  0  0  0  0  0
  125.4119  106.1153  108.5603 H   0  0  0  0  0  0  0  0  0  0  0  0
  127.4941  106.3622  107.0717 H   0  0  0  0  0  0  0  0  0  0  0  0
  126.3086  107.5712  106.6397 H   0  0  0  0  0  0  0  0  0  0  0  0
  1  2  2  0  0  0  0
  1  8  1  0  0  0  0
  2  9  1  0  0  0  0
  3  4  1  0  0  0  0
  3  8  2  0  0  0  0
  4  7  1  0  0  0  0
  4  9  2  0  0  0  0
  5  6  2  0  0  0  0
  6  7  1  0  0  0  0
  7 10  1  0  0  0  0
  1 11  1  0  0  0  0
  2 12  1  0  0  0  0
  3 13  1  0  0  0  0
  5 14  1  0  0  0  0
  5 15  1  0  0  0  0
  6 16  1  0  0  0  0
  7 17  1  0  0  0  0
 10 18  1  0  0  0  0
 10 19  1  0  0  0  0
M  END
> <FRED Chemgauss4 score>
-5.264516

$$$$
C20470614	P30514351
  -OEChem-05182014473D

 17 16  0     0  0  0  0  0  0999 V2000
  124.5801  105.9074  108.8956 C   0  0  0  0  0  0  0  0  0  0  0  0
  124.3636  107.1590  108.0668 C   0  0  0  0  0  0  0  0  0  0  0  0
  126.8043  106.1149  109.5854 N   0  0  0  0  0  0  0  0  0  0  0  0
  124.3176  108.4418  105.7423 N   0  0  0  0  0  0  0  0  0  0  0  0
  125.9079  105.3785  108.7427 N   0  0  0  0  0  0  0  0  0  0  0  0
  126.0481  106.5837  106.1540 O   0  0  0  0  0  0  0  0  0  0  0  0
  123.6140  105.9706  105.8637 O   0  0  0  0  0  0  0  0  0  0  0  0
  124.6391  106.8799  106.3452 S   0  0  0  0  0  0  0  0  0  0  0  0
  124.4215  106.0989  109.9614 H   0  0  0  0  0  0  0  0  0  0  0  0
  123.8867  105.1221  108.5793 H   0  0  0  0  0  0  0  0  0  0  0  0
  125.0681  107.9407  108.3664 H   0  0  0  0  0  0  0  0  0  0  0  0
  123.3445  107.5436  108.1699 H   0  0  0  0  0  0  0  0  0  0  0  0
  127.5007  106.5832  109.0062 H   0  0  0  0  0  0  0  0  0  0  0  0
  126.2923  106.8574  110.0601 H   0  0  0  0  0  0  0  0  0  0  0  0
  125.1124  108.9951  105.3991 H   0  0  0  0  0  0  0  0  0  0  0  0
  123.4545  108.5775  105.2016 H   0  0  0  0  0  0  0  0  0  0  0  0
  125.9370  104.3926  109.0245 H   0  0  0  0  0  0  0  0  0  0  0  0
  1  2  1  0  0  0  0
  1  5  1  0  0  0  0
  2  8  1  0  0  0  0
  3  5  1  0  0  0  0
  4  8  1  0  0  0  0
  6  8  2  0  0  0  0
  7  8  2  0  0  0  0
  1  9  1  0  0  0  0
  1 10  1  0  0  0  0
  2 11  1  0  0  0  0
  2 12  1  0  0  0  0
  3 13  1  0  0  0  0
  3 14  1  0  0  0  0
  4 15  1  0  0  0  0
  4 16  1  0  0  0  0
  5 17  1  0  0  0  0
M  END
> <FRED Chemgauss4 score>
-5.257561

$$$$
C85835256	P134409813
  -OEChem-05182014473D

 31 31  0     1  0  0  0  0  0999 V2000
  119.5805  103.5397  106.9216 C   0  0  0  0  0  0  0  0  0  0  0  0
  119.2947  104.5704  105.9925 C   0  0  0  0  0  0  0  0  0  0  0  0
  120.9457  103.5162  107.1028 C   0  0  0  0  0  0  0  0  0  0  0  0
  120.4941  105.1452  105.6340 C   0  0  0  0  0  0  0  0  0  0  0  0
  121.6741  105.8616  103.5159 C   0  0  0  0  0  0  0  0  0  0  0  0
  123.6745  104.5756  107.5403 C   0  0  0  0  0  0  0  0  0  0  0  0
  125.1542  104.9478  107.4448 C   0  0  0  0  0  0  0  0  0  0  0  0
  122.9163  104.7895  106.2278 C   0  0  0  0  0  0  0  0  0  0  0  0
  125.3399  106.4221  107.1120 C   0  0  0  0  0  0  0  0  0  0  0  0
  120.7707  106.2566  104.7009 C   0  0  2  0  0  0  0  0  0  0  0  0
  121.4908  104.4962  106.3149 N   0  0  0  0  0  0  0  0  0  0  0  0
  121.3420  107.4204  105.3689 N   0  0  0  0  0  0  0  0  0  0  0  0
  126.7305  106.7077  107.0520 O   0  0  0  0  0  0  0  0  0  0  0  0
  118.8695  102.8856  107.4063 H   0  0  0  0  0  0  0  0  0  0  0  0
  118.3195  104.8601  105.6261 H   0  0  0  0  0  0  0  0  0  0  0  0
  121.5690  102.8865  107.7234 H   0  0  0  0  0  0  0  0  0  0  0  0
  122.6299  105.4680  103.8788 H   0  0  0  0  0  0  0  0  0  0  0  0
  121.2076  105.0943  102.8879 H   0  0  0  0  0  0  0  0  0  0  0  0
  121.8860  106.7210  102.8698 H   0  0  0  0  0  0  0  0  0  0  0  0
  123.5795  103.5327  107.8664 H   0  0  0  0  0  0  0  0  0  0  0  0
  123.2007  105.1940  108.3126 H   0  0  0  0  0  0  0  0  0  0  0  0
  125.6512  104.3380  106.6800 H   0  0  0  0  0  0  0  0  0  0  0  0
  125.6700  104.7292  108.3873 H   0  0  0  0  0  0  0  0  0  0  0  0
  123.3474  104.1795  105.4253 H   0  0  0  0  0  0  0  0  0  0  0  0
  123.0045  105.8365  105.9124 H   0  0  0  0  0  0  0  0  0  0  0  0
  124.8869  107.0560  107.8809 H   0  0  0  0  0  0  0  0  0  0  0  0
  124.8932  106.6634  106.1422 H   0  0  0  0  0  0  0  0  0  0  0  0
  119.8309  106.6423  104.2553 H   0  0  0  0  0  0  0  0  0  0  0  0
  121.0151  107.6456  106.2844 H   0  0  0  0  0  0  0  0  0  0  0  0
  121.8784  108.0606  104.8228 H   0  0  0  0  0  0  0  0  0  0  0  0
  126.8141  107.6513  106.8389 H   0  0  0  0  0  0  0  0  0  0  0  0
  1  2  1  0  0  0  0
  1  3  2  0  0  0  0
  2  4  2  0  0  0  0
  3 11  1  0  0  0  0
  4 10  1  0  0  0  0
  4 11  1  0  0  0  0
  5 10  1  0  0  0  0
  6  7  1  0  0  0  0
  6  8  1  0  0  0  0
  7  9  1  0  0  0  0
  8 11  1  0  0  0  0
  9 13  1  0  0  0  0
 10 12  1  0  0  0  0
  1 14  1  0  0  0  0
  2 15  1  0  0  0  0
  3 16  1  0  0  0  0
  5 17  1  0  0  0  0
  5 18  1  0  0  0  0
  5 19  1  0  0  0  0
  6 20  1  0  0  0  0
  6 21  1  0  0  0  0
  7 22  1  0  0  0  0
  7 23  1  0  0  0  0
  8 24  1  0  0  0  0
  8 25  1  0  0  0  0
  9 26  1  0  0  0  0
  9 27  1  0  0  0  0
 10 28  1  0  0  0  0
 12 29  1  0  0  0  0
 12 30  1  0  0  0  0
 13 31  1  0  0  0  0
M  END
> <FRED Chemgauss4 score>
-5.244009

$$$$
C87589505	P137000350
  -OEChem-05182014473D

 15 15  0     1  0  0  0  0  0999 V2000
  126.2673  105.7931  107.2195 C   0  0  0  0  0  0  0  0  0  0  0  0
  125.3824  106.5693  106.9818 C   0  0  0  0  0  0  0  0  0  0  0  0
  122.3059  105.9460  107.1141 C   0  0  0  0  0  0  0  0  0  0  0  0
  121.3522  106.3918  104.9475 C   0  0  0  0  0  0  0  0  0  0  0  0
  123.0063  106.8294  106.3196 C   0  0  0  0  0  0  0  0  0  0  0  0
  124.2982  107.5224  106.6955 C   0  0  2  0  0  0  0  0  0  0  0  0
  122.4611  107.0859  105.0767 N   0  0  0  0  0  0  0  0  0  0  0  0
  124.7072  108.4571  105.6733 N   0  0  0  0  0  0  0  0  0  0  0  0
  120.9053  105.4100  106.2822 S   0  0  0  0  0  0  0  0  0  0  0  0
  127.0521  105.1048  107.4302 H   0  0  0  0  0  0  0  0  0  0  0  0
  122.5372  105.5991  108.1114 H   0  0  0  0  0  0  0  0  0  0  0  0
  120.7489  106.4327  104.0510 H   0  0  0  0  0  0  0  0  0  0  0  0
  124.1321  108.1320  107.5923 H   0  0  0  0  0  0  0  0  0  0  0  0
  125.6713  108.7358  105.6284 H   0  0  0  0  0  0  0  0  0  0  0  0
  124.0012  108.9607  105.1661 H   0  0  0  0  0  0  0  0  0  0  0  0
  1  2  3  0  0  0  0
  2  6  1  0  0  0  0
  3  5  2  0  0  0  0
  3  9  1  0  0  0  0
  4  7  2  0  0  0  0
  4  9  1  0  0  0  0
  5  6  1  0  0  0  0
  5  7  1  0  0  0  0
  6  8  1  0  0  0  0
  1 10  1  0  0  0  0
  3 11  1  0  0  0  0
  4 12  1  0  0  0  0
  6 13  1  0  0  0  0
  8 14  1  0  0  0  0
  8 15  1  0  0  0  0
M  END
> <FRED Chemgauss4 score>
-5.240549

$$$$
C48630575	P72706512
  -OEChem-05182014473D

 28 28  0     1  0  0  0  0  0999 V2000
  124.1811  107.1386  106.2245 C   0  0  0  0  0  0  0  0  0  0  0  0
  122.2263  107.3461  105.5225 C   0  0  0  0  0  0  0  0  0  0  0  0
  120.7927  107.2376  105.2075 C   0  0  0  0  0  0  0  0  0  0  0  0
  126.2708  105.2576  109.0390 C   0  0  0  0  0  0  0  0  0  0  0  0
  124.0314  104.6889  108.0786 C   0  0  0  0  0  0  0  0  0  0  0  0
  124.3474  106.8239  109.3125 C   0  0  0  0  0  0  0  0  0  0  0  0
  125.3797  106.5807  106.9849 C   0  0  2  0  0  0  0  0  0  0  0  0
  125.0306  105.8395  108.3323 C   0  0  0  0  0  0  0  0  0  0  0  0
  122.9398  106.5760  106.3107 N   0  0  0  0  0  0  0  0  0  0  0  0
  124.2804  108.2084  105.4325 N   0  0  0  0  0  0  0  0  0  0  0  0
  123.0166  108.3198  104.9961 N   0  0  0  0  0  0  0  0  0  0  0  0
  126.3988  107.6251  107.1840 N   0  0  0  0  0  0  0  0  0  0  0  0
  120.1802  107.8188  105.9186 H   0  0  0  0  0  0  0  0  0  0  0  0
  120.5589  107.6045  104.1917 H   0  0  0  0  0  0  0  0  0  0  0  0
  120.4356  106.1923  105.2395 H   0  0  0  0  0  0  0  0  0  0  0  0
  127.0191  106.0295  109.2465 H   0  0  0  0  0  0  0  0  0  0  0  0
  125.9963  104.8051  109.9995 H   0  0  0  0  0  0  0  0  0  0  0  0
  126.7466  104.4715  108.4451 H   0  0  0  0  0  0  0  0  0  0  0  0
  123.1281  105.0534  107.5754 H   0  0  0  0  0  0  0  0  0  0  0  0
  123.7061  104.2181  109.0121 H   0  0  0  0  0  0  0  0  0  0  0  0
  124.4739  103.9149  107.4415 H   0  0  0  0  0  0  0  0  0  0  0  0
  123.4541  107.2722  108.8634 H   0  0  0  0  0  0  0  0  0  0  0  0
  124.0336  106.3138  110.2309 H   0  0  0  0  0  0  0  0  0  0  0  0
  125.0195  107.6340  109.6138 H   0  0  0  0  0  0  0  0  0  0  0  0
  125.8538  105.8399  106.3252 H   0  0  0  0  0  0  0  0  0  0  0  0
  122.7780  109.0684  104.3563 H   0  0  0  0  0  0  0  0  0  0  0  0
  126.4772  108.3254  106.4870 H   0  0  0  0  0  0  0  0  0  0  0  0
  127.0824  107.4682  107.8844 H   0  0  0  0  0  0  0  0  0  0  0  0
  1  7  1  0  0  0  0
  1  9  1  0  0  0  0
  1 10  2  0  0  0  0
  2  3  1  0  0  0  0
  2  9  2  0  0  0  0
  2 11  1  0  0  0  0
  4  8  1  0  0  0  0
  5  8  1  0  0  0  0
  6  8  1  0  0  0  0
  7  8  1  0  0  0  0
  7 12  1  0  0  0  0
 10 11  1  0  0  0  0
  3 13  1  0  0  0  0
  3 14  1  0  0  0  0
  3 15  1  0  0  0  0
  4 16  1  0  0  0  0
  4 17  1  0  0  0  0
  4 18  1  0  0  0  0
  5 19  1  0  0  0  0
  5 20  1  0  0  0  0
  5 21  1  0  0  0  0
  6 22  1  0  0  0  0
  6 23  1  0  0  0  0
  6 24  1  0  0  0  0
  7 25  1  0  0  0  0
 11 26  1  0  0  0  0
 12 27  1  0  0  0  0
 12 28  1  0  0  0  0
M  END
> <FRED Chemgauss4 score>
-5.240232

$$$$
C39064021	P59184467
  -OEChem-05182014473D

 17 17  0     0  0  0  0  0  0999 V2000
  121.7096  106.1003  105.2270 C   0  0  0  0  0  0  0  0  0  0  0  0
  123.5968  106.8123  105.7641 C   0  0  0  0  0  0  0  0  0  0  0  0
  124.7983  107.5752  105.8264 C   0  0  0  0  0  0  0  0  0  0  0  0
  124.0445  105.1135  107.5730 C   0  0  0  0  0  0  0  0  0  0  0  0
  122.6218  107.0701  104.9237 N   0  0  0  0  0  0  0  0  0  0  0  0
  122.0588  105.2587  106.2023 N   0  0  0  0  0  0  0  0  0  0  0  0
  123.2696  105.7360  106.5285 N   0  0  0  0  0  0  0  0  0  0  0  0
  126.6255  108.3655  107.2150 N   0  0  0  0  0  0  0  0  0  0  0  0
  125.4417  107.6637  107.0788 N   0  0  0  0  0  0  0  0  0  0  0  0
  125.3193  108.1458  104.8336 O   0  0  0  0  0  0  0  0  0  0  0  0
  120.7605  106.0036  104.7212 H   0  0  0  0  0  0  0  0  0  0  0  0
  123.7879  105.5988  108.5183 H   0  0  0  0  0  0  0  0  0  0  0  0
  123.8086  104.0464  107.6146 H   0  0  0  0  0  0  0  0  0  0  0  0
  125.1091  105.2366  107.3554 H   0  0  0  0  0  0  0  0  0  0  0  0
  127.1741  107.8823  107.9251 H   0  0  0  0  0  0  0  0  0  0  0  0
  127.1367  108.2529  106.3406 H   0  0  0  0  0  0  0  0  0  0  0  0
  125.0320  107.2082  107.8872 H   0  0  0  0  0  0  0  0  0  0  0  0
  1  5  1  0  0  0  0
  1  6  2  0  0  0  0
  2  3  1  0  0  0  0
  2  5  2  0  0  0  0
  2  7  1  0  0  0  0
  3  9  1  0  0  0  0
  3 10  2  0  0  0  0
  4  7  1  0  0  0  0
  6  7  1  0  0  0  0
  8  9  1  0  0  0  0
  1 11  1  0  0  0  0
  4 12  1  0  0  0  0
  4 13  1  0  0  0  0
  4 14  1  0  0  0  0
  8 15  1  0  0  0  0
  8 16  1  0  0  0  0
  9 17  1  0  0  0  0
M  END
> <FRED Chemgauss4 score>
-5.234447

$$$$
C19202003	P141423228
  -OEChem-05182014473D

 18 19  0     1  0  0  0  0  0999 V2000
  123.5340  106.3087  105.0806 C   0  0  0  0  0  0  0  0  0  0  0  0
  123.2985  108.1340  107.1308 C   0  0  0  0  0  0  0  0  0  0  0  0
  122.2870  107.4655  106.5642 C   0  0  0  0  0  0  0  0  0  0  0  0
  124.6719  107.9460  106.6760 C   0  0  0  0  0  0  0  0  0  0  0  0
  121.4422  108.8046  108.1906 C   0  0  0  0  0  0  0  0  0  0  0  0
  124.8306  106.9314  105.5643 C   0  0  2  0  0  0  0  0  0  0  0  0
  122.3463  106.5596  105.5494 N   0  0  0  0  0  0  0  0  0  0  0  0
  122.8463  108.9594  108.1193 N   0  0  0  0  0  0  0  0  0  0  0  0
  121.1232  107.8511  107.1915 N   0  0  0  0  0  0  0  0  0  0  0  0
  125.4205  107.6194  104.4223 N   0  0  0  0  0  0  0  0  0  0  0  0
  125.6061  108.5699  107.1671 O   0  0  0  0  0  0  0  0  0  0  0  0
  120.3973  109.5703  109.2174 S   0  0  0  0  0  0  0  0  0  0  0  0
  123.6145  105.5651  104.2684 H   0  0  0  0  0  0  0  0  0  0  0  0
  125.4830  106.1232  105.9108 H   0  0  0  0  0  0  0  0  0  0  0  0
  123.4232  109.5660  108.6884 H   0  0  0  0  0  0  0  0  0  0  0  0
  120.2021  107.4995  106.9615 H   0  0  0  0  0  0  0  0  0  0  0  0
  125.2919  107.2232  103.5153 H   0  0  0  0  0  0  0  0  0  0  0  0
  126.0934  108.3351  104.5993 H   0  0  0  0  0  0  0  0  0  0  0  0
  1  6  1  0  0  0  0
  1  7  2  0  0  0  0
  2  3  2  0  0  0  0
  2  4  1  0  0  0  0
  2  8  1  0  0  0  0
  3  7  1  0  0  0  0
  3  9  1  0  0  0  0
  4  6  1  0  0  0  0
  4 11  2  0  0  0  0
  5  8  1  0  0  0  0
  5  9  1  0  0  0  0
  5 12  2  0  0  0  0
  6 10  1  0  0  0  0
  1 13  1  0  0  0  0
  6 14  1  0  0  0  0
  8 15  1  0  0  0  0
  9 16  1  0  0  0  0
 10 17  1  0  0  0  0
 10 18  1  0  0  0  0
M  END
> <FRED Chemgauss4 score>
-5.233769

$$$$
C08382902	P52268118
  -OEChem-05182014473D

 23 24  0     0  0  0  0  0  0999 V2000
  120.6729  104.3380  106.5997 C   0  0  0  0  0  0  0  0  0  0  0  0
  122.4176  105.9880  106.6395 C   0  0  0  0  0  0  0  0  0  0  0  0
  118.9095  104.1666  105.3267 C   0  0  0  0  0  0  0  0  0  0  0  0
  124.0460  107.0115  105.6098 C   0  0  0  0  0  0  0  0  0  0  0  0
  121.7156  104.9662  107.4622 C   0  0  0  0  0  0  0  0  0  0  0  0
  120.6424  103.0677  106.3078 N   0  0  0  0  0  0  0  0  0  0  0  0
  121.8241  107.0138  106.0960 N   0  0  0  0  0  0  0  0  0  0  0  0
  119.5386  102.9293  105.5050 N   0  0  0  0  0  0  0  0  0  0  0  0
  122.8279  107.6792  105.4393 N   0  0  0  0  0  0  0  0  0  0  0  0
  119.6719  105.0516  106.0493 N   0  0  0  0  0  0  0  0  0  0  0  0
  123.7398  105.9239  106.3909 N   0  0  0  0  0  0  0  0  0  0  0  0
  119.4647  106.3963  106.1879 N   0  0  0  0  0  0  0  0  0  0  0  0
  124.6012  104.9583  106.8337 N   0  0  0  0  0  0  0  0  0  0  0  0
  117.5421  104.4226  104.4223 S   0  0  0  0  0  0  0  0  0  0  0  0
  125.4995  107.4959  104.9727 S   0  0  0  0  0  0  0  0  0  0  0  0
  122.4288  104.2139  107.8003 H   0  0  0  0  0  0  0  0  0  0  0  0
  121.2522  105.4551  108.3202 H   0  0  0  0  0  0  0  0  0  0  0  0
  119.2807  102.0247  105.1319 H   0  0  0  0  0  0  0  0  0  0  0  0
  122.6347  108.5286  104.9242 H   0  0  0  0  0  0  0  0  0  0  0  0
  119.7742  106.7428  107.1158 H   0  0  0  0  0  0  0  0  0  0  0  0
  118.4554  106.6352  106.1656 H   0  0  0  0  0  0  0  0  0  0  0  0
  124.3243  104.5880  107.7627 H   0  0  0  0  0  0  0  0  0  0  0  0
  125.5528  105.3369  106.9987 H   0  0  0  0  0  0  0  0  0  0  0  0
  1  5  1  0  0  0  0
  1  6  2  0  0  0  0
  1 10  1  0  0  0  0
  2  5  1  0  0  0  0
  2  7  2  0  0  0  0
  2 11  1  0  0  0  0
  3  8  1  0  0  0  0
  3 10  1  0  0  0  0
  3 14  2  0  0  0  0
  4  9  1  0  0  0  0
  4 11  1  0  0  0  0
  4 15  2  0  0  0  0
  6  8  1  0  0  0  0
  7  9  1  0  0  0  0
 10 12  1  0  0  0  0
 11 13  1  0  0  0  0
  5 16  1  0  0  0  0
  5 17  1  0  0  0  0
  8 18  1  0  0  0  0
  9 19  1  0  0  0  0
 12 20  1  0  0  0  0
 12 21  1  0  0  0  0
 13 22  1  0  0  0  0
 13 23  1  0  0  0  0
M  END
> <FRED Chemgauss4 score>
-5.232607

$$$$
C20441619	P30506933
  -OEChem-05182014473D

 18 18  0     1  0  0  0  0  0999 V2000
  120.8241  105.1425  104.8092 C   0  0  0  0  0  0  0  0  0  0  0  0
  121.0500  106.4503  104.4312 C   0  0  0  0  0  0  0  0  0  0  0  0
  121.8222  104.5575  105.5615 C   0  0  0  0  0  0  0  0  0  0  0  0
  123.0598  106.4629  105.4930 C   0  0  0  0  0  0  0  0  0  0  0  0
  124.0313  108.4483  106.7205 C   0  0  0  0  0  0  0  0  0  0  0  0
  124.3014  107.1962  105.8728 C   0  0  2  0  0  0  0  0  0  0  0  0
  122.1608  107.1434  104.7568 N   0  0  0  0  0  0  0  0  0  0  0  0
  122.9575  105.1907  105.9227 N   0  0  0  0  0  0  0  0  0  0  0  0
  125.1016  107.5537  104.7135 N   0  0  0  0  0  0  0  0  0  0  0  0
  119.9234  104.6106  104.5338 H   0  0  0  0  0  0  0  0  0  0  0  0
  120.3219  106.9933  103.8381 H   0  0  0  0  0  0  0  0  0  0  0  0
  121.7338  103.5323  105.9048 H   0  0  0  0  0  0  0  0  0  0  0  0
  123.3774  109.1447  106.1844 H   0  0  0  0  0  0  0  0  0  0  0  0
  123.5468  108.1896  107.6688 H   0  0  0  0  0  0  0  0  0  0  0  0
  124.9587  108.9774  106.9670 H   0  0  0  0  0  0  0  0  0  0  0  0
  124.9620  106.5443  106.4715 H   0  0  0  0  0  0  0  0  0  0  0  0
  125.1373  106.9152  103.9443 H   0  0  0  0  0  0  0  0  0  0  0  0
  125.7460  108.3143  104.7961 H   0  0  0  0  0  0  0  0  0  0  0  0
  1  2  1  0  0  0  0
  1  3  2  0  0  0  0
  2  7  2  0  0  0  0
  3  8  1  0  0  0  0
  4  6  1  0  0  0  0
  4  7  1  0  0  0  0
  4  8  2  0  0  0  0
  5  6  1  0  0  0  0
  6  9  1  0  0  0  0
  1 10  1  0  0  0  0
  2 11  1  0  0  0  0
  3 12  1  0  0  0  0
  5 13  1  0  0  0  0
  5 14  1  0  0  0  0
  5 15  1  0  0  0  0
  6 16  1  0  0  0  0
  9 17  1  0  0  0  0
  9 18  1  0  0  0  0
M  END
> <FRED Chemgauss4 score>
-5.229548

$$$$
C69232463	P106461500
  -OEChem-05182014473D

 48 50  0     1  0  0  0  0  0999 V2000
  124.6266  106.3806  105.8930 C   0  0  0  0  0  0  0  0  0  0  0  0
  117.0686  105.2707  104.1312 C   0  0  0  0  0  0  0  0  0  0  0  0
  122.8136  106.3522  109.0687 C   0  0  0  0  0  0  0  0  0  0  0  0
  122.8590  107.8545  109.0913 C   0  0  0  0  0  0  0  0  0  0  0  0
  117.9319  106.2330  104.9337 C   0  0  0  0  0  0  0  0  0  0  0  0
  121.7026  105.4958  102.7016 C   0  0  0  0  0  0  0  0  0  0  0  0
  118.0239  104.5974  103.1582 C   0  0  0  0  0  0  0  0  0  0  0  0
  120.3866  104.7108  102.6563 C   0  0  0  0  0  0  0  0  0  0  0  0
  122.2686  105.6455  104.1174 C   0  0  0  0  0  0  0  0  0  0  0  0
  120.3103  107.0495  104.7539 C   0  0  0  0  0  0  0  0  0  0  0  0
  123.7603  107.0891  108.1623 C   0  0  0  0  0  0  0  0  0  0  0  0
  119.3759  105.8429  104.6050 C   0  0  2  0  0  0  0  0  0  0  0  0
  124.8893  109.0867  106.5993 C   0  0  0  0  0  0  0  0  0  0  0  0
  122.1014  106.5922  106.3216 C   0  0  0  0  0  0  0  0  0  0  0  0
  123.5166  107.1186  106.6625 C   0  0  2  0  0  0  0  0  0  0  0  0
  119.2364  105.4202  103.2073 N   0  0  2  0  0  0  0  0  0  0  0  0
  121.7345  106.7523  104.9144 N   0  0  1  0  0  0  0  0  0  0  0  0
  124.7701  105.0483  106.2151 N   0  0  0  0  0  0  0  0  0  0  0  0
  123.5926  108.5328  106.2576 N   0  0  0  0  0  0  0  0  0  0  0  0
  125.3354  106.9349  105.0531 O   0  0  0  0  0  0  0  0  0  0  0  0
  116.5918  104.5289  104.7827 H   0  0  0  0  0  0  0  0  0  0  0  0
  116.2758  105.8179  103.6071 H   0  0  0  0  0  0  0  0  0  0  0  0
  123.2183  105.8235  109.9229 H   0  0  0  0  0  0  0  0  0  0  0  0
  121.9488  105.8808  108.6180 H   0  0  0  0  0  0  0  0  0  0  0  0
  122.0246  108.3904  108.6560 H   0  0  0  0  0  0  0  0  0  0  0  0
  123.2946  108.3317  109.9605 H   0  0  0  0  0  0  0  0  0  0  0  0
  117.7208  107.2689  104.6251 H   0  0  0  0  0  0  0  0  0  0  0  0
  117.7250  106.1644  106.0107 H   0  0  0  0  0  0  0  0  0  0  0  0
  122.4372  104.9713  102.0999 H   0  0  0  0  0  0  0  0  0  0  0  0
  121.5608  106.4749  102.2569 H   0  0  0  0  0  0  0  0  0  0  0  0
  118.2245  103.5651  103.4848 H   0  0  0  0  0  0  0  0  0  0  0  0
  117.6028  104.5560  102.1447 H   0  0  0  0  0  0  0  0  0  0  0  0
  120.1799  104.4978  101.5821 H   0  0  0  0  0  0  0  0  0  0  0  0
  120.5114  103.7018  103.1204 H   0  0  0  0  0  0  0  0  0  0  0  0
  122.0611  104.7250  104.6570 H   0  0  0  0  0  0  0  0  0  0  0  0
  123.3479  105.7324  104.0178 H   0  0  0  0  0  0  0  0  0  0  0  0
  120.1475  107.8031  103.9259 H   0  0  0  0  0  0  0  0  0  0  0  0
  119.9495  107.6153  105.6587 H   0  0  0  0  0  0  0  0  0  0  0  0
  124.8162  107.0536  108.4022 H   0  0  0  0  0  0  0  0  0  0  0  0
  119.6893  105.0361  105.2452 H   0  0  0  0  0  0  0  0  0  0  0  0
  125.0492  109.0303  107.6792 H   0  0  0  0  0  0  0  0  0  0  0  0
  124.9466  110.1337  106.2894 H   0  0  0  0  0  0  0  0  0  0  0  0
  125.6833  108.5283  106.0963 H   0  0  0  0  0  0  0  0  0  0  0  0
  122.0064  105.5279  106.5667 H   0  0  0  0  0  0  0  0  0  0  0  0
  121.3487  107.1134  106.9264 H   0  0  0  0  0  0  0  0  0  0  0  0
  124.1665  104.6141  106.9055 H   0  0  0  0  0  0  0  0  0  0  0  0
  125.4575  104.4468  105.7744 H   0  0  0  0  0  0  0  0  0  0  0  0
  123.4464  108.5863  105.2552 H   0  0  0  0  0  0  0  0  0  0  0  0
  1 15  1  0  0  0  0
  1 18  1  0  0  0  0
  1 20  2  0  0  0  0
  2  5  1  0  0  0  0
  2  7  1  0  0  0  0
  3  4  1  0  0  0  0
  3 11  1  0  0  0  0
  4 11  1  0  0  0  0
  5 12  1  0  0  0  0
  6  8  1  0  0  0  0
  6  9  1  0  0  0  0
  7 16  1  0  0  0  0
  8 16  1  0  0  0  0
  9 17  1  0  0  0  0
 10 12  1  0  0  0  0
 10 17  1  0  0  0  0
 11 15  1  0  0  0  0
 12 16  1  0  0  0  0
 13 19  1  0  0  0  0
 14 15  1  0  0  0  0
 14 17  1  0  0  0  0
 15 19  1  0  0  0  0
  2 21  1  0  0  0  0
  2 22  1  0  0  0  0
  3 23  1  0  0  0  0
  3 24  1  0  0  0  0
  4 25  1  0  0  0  0
  4 26  1  0  0  0  0
  5 27  1  0  0  0  0
  5 28  1  0  0  0  0
  6 29  1  0  0  0  0
  6 30  1  0  0  0  0
  7 31  1  0  0  0  0
  7 32  1  0  0  0  0
  8 33  1  0  0  0  0
  8 34  1  0  0  0  0
  9 35  1  0  0  0  0
  9 36  1  0  0  0  0
 10 37  1  0  0  0  0
 10 38  1  0  0  0  0
 11 39  1  0  0  0  0
 12 40  1  0  0  0  0
 13 41  1  0  0  0  0
 13 42  1  0  0  0  0
 13 43  1  0  0  0  0
 14 44  1  0  0  0  0
 14 45  1  0  0  0  0
 18 46  1  0  0  0  0
 18 47  1  0  0  0  0
 19 48  1  0  0  0  0
M  END
> <FRED Chemgauss4 score>
-5.229214

$$$$
C85802150	P134355349
  -OEChem-05182014473D

 32 33  0     1  0  0  0  0  0999 V2000
  122.3647  106.2064  105.0520 C   0  0  0  0  0  0  0  0  0  0  0  0
  120.8543  105.2923  103.8769 C   0  0  0  0  0  0  0  0  0  0  0  0
  125.7804  107.7152  107.0292 C   0  0  0  0  0  0  0  0  0  0  0  0
  124.8034  106.0010  105.6459 C   0  0  0  0  0  0  0  0  0  0  0  0
  124.3786  108.1217  107.4767 C   0  0  0  0  0  0  0  0  0  0  0  0
  123.4096  106.4460  106.1214 C   0  0  1  0  0  0  0  0  0  0  0  0
  119.1118  104.7951  102.1136 C   0  0  0  0  0  0  0  0  0  0  0  0
  125.8657  105.3928  107.7508 C   0  0  0  0  0  0  0  0  0  0  0  0
  119.8834  104.3256  103.3690 C   0  0  1  0  0  0  0  0  0  0  0  0
  122.0425  107.0997  104.0959 N   0  5  0  0  0  0  0  0  0  0  0  0
  121.6448  105.0822  104.9380 N   0  0  0  0  0  0  0  0  0  0  0  0
  121.0644  106.5084  103.3359 N   0  0  0  0  0  0  0  0  0  0  0  0
  125.8666  106.3092  106.6135 N   0  0  2  0  0  0  0  0  0  0  0  0
  120.4697  102.9726  103.0192 N   0  3  0  0  0  0  0  0  0  0  0  0
  123.4264  107.8412  106.4505 O   0  0  0  0  0  0  0  0  0  0  0  0
  126.1013  108.3773  106.1957 H   0  0  0  0  0  0  0  0  0  0  0  0
  126.4862  107.9068  107.8638 H   0  0  0  0  0  0  0  0  0  0  0  0
  124.7851  104.9081  105.4454 H   0  0  0  0  0  0  0  0  0  0  0  0
  125.0370  106.4802  104.6683 H   0  0  0  0  0  0  0  0  0  0  0  0
  124.0839  107.6072  108.3993 H   0  0  0  0  0  0  0  0  0  0  0  0
  124.3501  109.1980  107.6737 H   0  0  0  0  0  0  0  0  0  0  0  0
  123.0913  105.8694  107.0045 H   0  0  0  0  0  0  0  0  0  0  0  0
  119.7978  105.0759  101.3066 H   0  0  0  0  0  0  0  0  0  0  0  0
  118.4371  104.0251  101.7228 H   0  0  0  0  0  0  0  0  0  0  0  0
  118.5070  105.6759  102.3566 H   0  0  0  0  0  0  0  0  0  0  0  0
  125.9308  104.3594  107.4006 H   0  0  0  0  0  0  0  0  0  0  0  0
  124.9461  105.5107  108.3304 H   0  0  0  0  0  0  0  0  0  0  0  0
  126.7193  105.5981  108.4023 H   0  0  0  0  0  0  0  0  0  0  0  0
  119.1124  104.0632  104.1295 H   0  0  0  0  0  0  0  0  0  0  0  0
  121.4795  103.0504  102.9596 H   0  0  0  0  0  0  0  0  0  0  0  0
  120.0974  102.6677  102.1258 H   0  0  0  0  0  0  0  0  0  0  0  0
  120.2205  102.3031  103.7397 H   0  0  0  0  0  0  0  0  0  0  0  0
  1  6  1  0  0  0  0
  1 10  1  0  0  0  0
  1 11  2  0  0  0  0
  2  9  1  0  0  0  0
  2 11  1  0  0  0  0
  2 12  2  0  0  0  0
  3  5  1  0  0  0  0
  3 13  1  0  0  0  0
  4  6  1  0  0  0  0
  4 13  1  0  0  0  0
  5 15  1  0  0  0  0
  6 15  1  0  0  0  0
  7  9  1  0  0  0  0
  8 13  1  0  0  0  0
  9 14  1  0  0  0  0
 10 12  1  0  0  0  0
  3 16  1  0  0  0  0
  3 17  1  0  0  0  0
  4 18  1  0  0  0  0
  4 19  1  0  0  0  0
  5 20  1  0  0  0  0
  5 21  1  0  0  0  0
  6 22  1  0  0  0  0
  7 23  1  0  0  0  0
  7 24  1  0  0  0  0
  7 25  1  0  0  0  0
  8 26  1  0  0  0  0
  8 27  1  0  0  0  0
  8 28  1  0  0  0  0
  9 29  1  0  0  0  0
 14 30  1  0  0  0  0
 14 31  1  0  0  0  0
 14 32  1  0  0  0  0
M  CHG  2  10  -1  14   1
M  END
> <FRED Chemgauss4 score>
-5.224834

$$$$
C50194539	P75082831
  -OEChem-05182014473D

 24 25  0     1  0  0  0  0  0999 V2000
  124.8755  106.5500  106.2273 C   0  0  0  0  0  0  0  0  0  0  0  0
  122.8000  106.7361  105.5808 C   0  0  0  0  0  0  0  0  0  0  0  0
  125.9031  105.9515  106.9849 C   0  0  0  0  0  0  0  0  0  0  0  0
  123.3480  104.9619  107.2401 C   0  0  0  0  0  0  0  0  0  0  0  0
  125.5792  104.9225  107.7971 C   0  0  0  0  0  0  0  0  0  0  0  0
  126.6239  104.2402  108.6314 C   0  0  0  0  0  0  0  0  0  0  0  0
  120.9870  105.4616  104.3638 C   0  0  0  0  0  0  0  0  0  0  0  0
  121.3528  106.4860  105.4581 C   0  0  2  0  0  0  0  0  0  0  0  0
  124.8175  107.5376  105.3607 N   0  0  0  0  0  0  0  0  0  0  0  0
  123.5003  107.6549  104.9510 N   0  0  0  0  0  0  0  0  0  0  0  0
  124.2955  104.4110  107.9375 N   0  0  0  0  0  0  0  0  0  0  0  0
  123.6239  106.0198  106.3920 N   0  0  0  0  0  0  0  0  0  0  0  0
  120.5857  107.7085  105.2381 N   0  0  0  0  0  0  0  0  0  0  0  0
  126.9173  106.3247  106.9008 H   0  0  0  0  0  0  0  0  0  0  0  0
  122.3134  104.5920  107.3169 H   0  0  0  0  0  0  0  0  0  0  0  0
  126.6963  104.7354  109.5966 H   0  0  0  0  0  0  0  0  0  0  0  0
  127.5837  104.2900  108.1222 H   0  0  0  0  0  0  0  0  0  0  0  0
  126.3487  103.1979  108.7748 H   0  0  0  0  0  0  0  0  0  0  0  0
  121.3673  105.7917  103.3908 H   0  0  0  0  0  0  0  0  0  0  0  0
  121.4074  104.4717  104.5743 H   0  0  0  0  0  0  0  0  0  0  0  0
  119.9015  105.3385  104.2782 H   0  0  0  0  0  0  0  0  0  0  0  0
  120.9357  106.0820  106.4048 H   0  0  0  0  0  0  0  0  0  0  0  0
  120.8785  108.5376  105.7082 H   0  0  0  0  0  0  0  0  0  0  0  0
  119.6937  107.6303  104.7990 H   0  0  0  0  0  0  0  0  0  0  0  0
  1  3  1  0  0  0  0
  1  9  2  0  0  0  0
  1 12  1  0  0  0  0
  2  8  1  0  0  0  0
  2 10  2  0  0  0  0
  2 12  1  0  0  0  0
  3  5  2  0  0  0  0
  4 11  2  0  0  0  0
  4 12  1  0  0  0  0
  5  6  1  0  0  0  0
  5 11  1  0  0  0  0
  7  8  1  0  0  0  0
  8 13  1  0  0  0  0
  9 10  1  0  0  0  0
  3 14  1  0  0  0  0
  4 15  1  0  0  0  0
  6 16  1  0  0  0  0
  6 17  1  0  0  0  0
  6 18  1  0  0  0  0
  7 19  1  0  0  0  0
  7 20  1  0  0  0  0
  7 21  1  0  0  0  0
  8 22  1  0  0  0  0
 13 23  1  0  0  0  0
 13 24  1  0  0  0  0
M  END
> <FRED Chemgauss4 score>
-5.223851

$$$$
C42973221	P64975400
  -OEChem-05182014473D

 30 31  0     1  0  0  0  0  0999 V2000
  124.4310  103.7135  105.9732 C   0  0  0  0  0  0  0  0  0  0  0  0
  123.6727  104.8810  106.0595 C   0  0  0  0  0  0  0  0  0  0  0  0
  125.1945  103.2955  107.0633 C   0  0  0  0  0  0  0  0  0  0  0  0
  124.4415  105.2129  108.3258 C   0  0  0  0  0  0  0  0  0  0  0  0
  120.2440  106.8940  104.8968 C   0  0  0  0  0  0  0  0  0  0  0  0
  120.3895  106.1957  106.9768 C   0  0  0  0  0  0  0  0  0  0  0  0
  123.6780  105.6307  107.2357 C   0  0  0  0  0  0  0  0  0  0  0  0
  125.1998  104.0453  108.2395 C   0  0  0  0  0  0  0  0  0  0  0  0
  119.5098  106.2726  105.9247 C   0  0  0  0  0  0  0  0  0  0  0  0
  122.7197  109.4635  107.0721 C   0  0  0  0  0  0  0  0  0  0  0  0
  122.8462  106.9104  107.3291 C   0  0  1  0  0  0  0  0  0  0  0  0
  123.6187  108.2237  106.9807 C   0  0  1  0  0  0  0  0  0  0  0  0
  121.4938  107.1909  105.2627 N   0  0  0  0  0  0  0  0  0  0  0  0
  121.5517  106.7543  106.5324 N   0  0  0  0  0  0  0  0  0  0  0  0
  124.1388  108.1683  105.6068 N   0  0  0  0  0  0  0  0  0  0  0  0
  125.9332  103.6444  109.2862 F   0  0  0  0  0  0  0  0  0  0  0  0
  117.9051  105.7494  105.8483 Cl  0  0  0  0  0  0  0  0  0  0  0  0
  124.4266  103.1293  105.0575 H   0  0  0  0  0  0  0  0  0  0  0  0
  123.0810  105.1989  105.2050 H   0  0  0  0  0  0  0  0  0  0  0  0
  125.7851  102.3870  106.9957 H   0  0  0  0  0  0  0  0  0  0  0  0
  124.4515  105.7899  109.2465 H   0  0  0  0  0  0  0  0  0  0  0  0
  119.9240  107.1443  103.8950 H   0  0  0  0  0  0  0  0  0  0  0  0
  120.2908  105.8014  107.9791 H   0  0  0  0  0  0  0  0  0  0  0  0
  121.8484  109.3769  106.4157 H   0  0  0  0  0  0  0  0  0  0  0  0
  122.3368  109.5969  108.0907 H   0  0  0  0  0  0  0  0  0  0  0  0
  123.2629  110.3744  106.7957 H   0  0  0  0  0  0  0  0  0  0  0  0
  122.5565  107.0188  108.3864 H   0  0  0  0  0  0  0  0  0  0  0  0
  124.4689  108.3694  107.6566 H   0  0  0  0  0  0  0  0  0  0  0  0
  124.4895  107.2981  105.2832 H   0  0  0  0  0  0  0  0  0  0  0  0
  124.3040  109.0301  105.1432 H   0  0  0  0  0  0  0  0  0  0  0  0
  1  2  2  0  0  0  0
  1  3  1  0  0  0  0
  2  7  1  0  0  0  0
  3  8  2  0  0  0  0
  4  7  2  0  0  0  0
  4  8  1  0  0  0  0
  5  9  1  0  0  0  0
  5 13  2  0  0  0  0
  6  9  2  0  0  0  0
  6 14  1  0  0  0  0
  7 11  1  0  0  0  0
  8 16  1  0  0  0  0
  9 17  1  0  0  0  0
 10 12  1  0  0  0  0
 11 12  1  0  0  0  0
 11 14  1  0  0  0  0
 12 15  1  0  0  0  0
 13 14  1  0  0  0  0
  1 18  1  0  0  0  0
  2 19  1  0  0  0  0
  3 20  1  0  0  0  0
  4 21  1  0  0  0  0
  5 22  1  0  0  0  0
  6 23  1  0  0  0  0
 10 24  1  0  0  0  0
 10 25  1  0  0  0  0
 10 26  1  0  0  0  0
 11 27  1  0  0  0  0
 12 28  1  0  0  0  0
 15 29  1  0  0  0  0
 15 30  1  0  0  0  0
M  END
> <FRED Chemgauss4 score>
-5.214837

$$$$
C11536079	P74672762
  -OEChem-05182014473D

 21 21  0     1  0  0  0  0  0999 V2000
  125.3549  106.0671  106.3552 C   0  0  0  0  0  0  0  0  0  0  0  0
  124.8282  104.9059  107.0849 C   0  0  0  0  0  0  0  0  0  0  0  0
  123.9599  106.4785  105.9950 C   0  0  0  0  0  0  0  0  0  0  0  0
  123.3797  105.2491  106.7915 C   0  0  1  0  0  0  0  0  0  0  0  0
  118.9734  104.6873  106.4601 C   0  0  0  0  0  0  0  0  0  0  0  0
  120.4170  104.3112  106.7622 C   0  0  0  0  0  0  0  0  0  0  0  0
  121.3673  104.6605  105.6231 C   0  0  0  0  0  0  0  0  0  0  0  0
  125.4514  103.9900  107.7192 N   0  0  0  0  0  0  0  0  0  0  0  0
  122.7242  104.2837  105.9075 N   0  0  0  0  0  0  0  0  0  0  0  0
  126.4375  106.4982  106.1381 O   0  0  0  0  0  0  0  0  0  0  0  0
  123.6419  107.4214  105.3282 O   0  0  0  0  0  0  0  0  0  0  0  0
  122.8034  105.5219  107.6791 H   0  0  0  0  0  0  0  0  0  0  0  0
  118.8795  105.7612  106.2696 H   0  0  0  0  0  0  0  0  0  0  0  0
  118.6236  104.1541  105.5702 H   0  0  0  0  0  0  0  0  0  0  0  0
  118.3105  104.4250  107.2904 H   0  0  0  0  0  0  0  0  0  0  0  0
  120.4666  103.2318  106.9462 H   0  0  0  0  0  0  0  0  0  0  0  0
  120.7343  104.8125  107.6843 H   0  0  0  0  0  0  0  0  0  0  0  0
  121.0719  104.1293  104.7128 H   0  0  0  0  0  0  0  0  0  0  0  0
  121.3551  105.7341  105.4103 H   0  0  0  0  0  0  0  0  0  0  0  0
  124.7796  103.3203  108.1191 H   0  0  0  0  0  0  0  0  0  0  0  0
  122.7501  103.3631  106.3606 H   0  0  0  0  0  0  0  0  0  0  0  0
  1  2  1  0  0  0  0
  1  3  1  0  0  0  0
  1 10  2  0  0  0  0
  2  4  1  0  0  0  0
  2  8  2  0  0  0  0
  3  4  1  0  0  0  0
  3 11  2  0  0  0  0
  4  9  1  0  0  0  0
  5  6  1  0  0  0  0
  6  7  1  0  0  0  0
  7  9  1  0  0  0  0
  4 12  1  0  0  0  0
  5 13  1  0  0  0  0
  5 14  1  0  0  0  0
  5 15  1  0  0  0  0
  6 16  1  0  0  0  0
  6 17  1  0  0  0  0
  7 18  1  0  0  0  0
  7 19  1  0  0  0  0
  8 20  1  0  0  0  0
  9 21  1  0  0  0  0
M  END
> <FRED Chemgauss4 score>
-5.211470

$$$$
C82632200	P129134191
  -OEChem-05182014473D

 22 22  0     0  0  0  0  0  0999 V2000
  124.9139  105.7997  106.6142 C   0  0  0  0  0  0  0  0  0  0  0  0
  123.1058  106.3614  105.2898 C   0  0  0  0  0  0  0  0  0  0  0  0
  124.4464  106.8917  105.7025 C   0  0  0  0  0  0  0  0  0  0  0  0
  126.2336  105.8579  107.2995 C   0  0  0  0  0  0  0  0  0  0  0  0
  121.8667  104.2428  105.8878 C   0  0  0  0  0  0  0  0  0  0  0  0
  120.8478  104.6154  106.9492 C   0  0  0  0  0  0  0  0  0  0  0  0
  124.0703  104.8236  106.7400 N   0  0  0  0  0  0  0  0  0  0  0  0
  122.9901  105.1436  105.9585 N   0  0  0  0  0  0  0  0  0  0  0  0
  127.2032  105.2366  106.4395 N   0  0  0  0  0  0  0  0  0  0  0  0
  122.3208  106.9073  104.5335 O   0  0  0  0  0  0  0  0  0  0  0  0
  121.4385  104.4880  108.2363 O   0  0  0  0  0  0  0  0  0  0  0  0
  124.3441  107.8317  106.2475 H   0  0  0  0  0  0  0  0  0  0  0  0
  125.1110  106.9868  104.8420 H   0  0  0  0  0  0  0  0  0  0  0  0
  126.1681  105.3233  108.2497 H   0  0  0  0  0  0  0  0  0  0  0  0
  126.4978  106.9021  107.4810 H   0  0  0  0  0  0  0  0  0  0  0  0
  122.2356  103.2225  106.0327 H   0  0  0  0  0  0  0  0  0  0  0  0
  121.4251  104.3258  104.8901 H   0  0  0  0  0  0  0  0  0  0  0  0
  119.9915  103.9355  106.9016 H   0  0  0  0  0  0  0  0  0  0  0  0
  120.4942  105.6441  106.8243 H   0  0  0  0  0  0  0  0  0  0  0  0
  126.9307  104.4398  105.8855 H   0  0  0  0  0  0  0  0  0  0  0  0
  128.1782  105.4675  106.5498 H   0  0  0  0  0  0  0  0  0  0  0  0
  120.7570  104.7342  108.8822 H   0  0  0  0  0  0  0  0  0  0  0  0
  1  3  1  0  0  0  0
  1  4  1  0  0  0  0
  1  7  2  0  0  0  0
  2  3  1  0  0  0  0
  2  8  1  0  0  0  0
  2 10  2  0  0  0  0
  4  9  1  0  0  0  0
  5  6  1  0  0  0  0
  5  8  1  0  0  0  0
  6 11  1  0  0  0  0
  7  8  1  0  0  0  0
  3 12  1  0  0  0  0
  3 13  1  0  0  0  0
  4 14  1  0  0  0  0
  4 15  1  0  0  0  0
  5 16  1  0  0  0  0
  5 17  1  0  0  0  0
  6 18  1  0  0  0  0
  6 19  1  0  0  0  0
  9 20  1  0  0  0  0
  9 21  1  0  0  0  0
 11 22  1  0  0  0  0
M  END
> <FRED Chemgauss4 score>
-5.207110

$$$$
C43287250	P65476418
  -OEChem-05182014473D

 42 43  0     1  0  0  0  0  0999 V2000
  124.0086  105.0300  107.5901 C   0  0  0  0  0  0  0  0  0  0  0  0
  122.7342  104.8918  109.5289 C   0  0  0  0  0  0  0  0  0  0  0  0
  123.6615  104.2548  108.7341 C   0  0  0  0  0  0  0  0  0  0  0  0
  123.3329  106.2301  107.5540 C   0  0  0  0  0  0  0  0  0  0  0  0
  117.5812  105.5779  105.4917 C   0  0  0  0  0  0  0  0  0  0  0  0
  121.1651  105.5204  104.0845 C   0  0  0  0  0  0  0  0  0  0  0  0
  120.0125  107.5921  104.9020 C   0  0  0  0  0  0  0  0  0  0  0  0
  122.2196  105.7263  105.1751 C   0  0  0  0  0  0  0  0  0  0  0  0
  121.1047  107.7304  105.9659 C   0  0  0  0  0  0  0  0  0  0  0  0
  119.8102  106.1415  104.4464 C   0  0  0  0  0  0  0  0  0  0  0  0
  125.9334  107.7429  106.8712 C   0  0  0  0  0  0  0  0  0  0  0  0
  119.0699  105.3138  105.5000 C   0  0  0  0  0  0  0  0  0  0  0  0
  123.4177  107.3347  106.5091 C   0  0  1  0  0  0  0  0  0  0  0  0
  124.8279  107.4217  105.8638 C   0  0  1  0  0  0  0  0  0  0  0  0
  122.3719  107.1497  105.5033 N   0  0  0  0  0  0  0  0  0  0  0  0
  117.2314  106.5922  106.3569 N   0  0  0  0  0  0  0  0  0  0  0  0
  124.8475  108.4308  104.8223 N   0  0  0  0  0  0  0  0  0  0  0  0
  116.7751  104.9640  104.7986 O   0  0  0  0  0  0  0  0  0  0  0  0
  122.2856  106.4183  108.8956 S   0  0  0  0  0  0  0  0  0  0  0  0
  124.4114  102.5628  109.0769 Br  0  0  0  0  0  0  0  0  0  0  0  0
  124.7174  104.7276  106.8287 H   0  0  0  0  0  0  0  0  0  0  0  0
  122.2947  104.5400  110.4521 H   0  0  0  0  0  0  0  0  0  0  0  0
  121.5324  105.9526  103.1392 H   0  0  0  0  0  0  0  0  0  0  0  0
  121.0432  104.4393  103.8977 H   0  0  0  0  0  0  0  0  0  0  0  0
  119.0651  107.9948  105.3007 H   0  0  0  0  0  0  0  0  0  0  0  0
  120.2696  108.2224  104.0349 H   0  0  0  0  0  0  0  0  0  0  0  0
  121.9000  105.1718  106.0660 H   0  0  0  0  0  0  0  0  0  0  0  0
  123.1752  105.2949  104.8486 H   0  0  0  0  0  0  0  0  0  0  0  0
  121.2312  108.7893  106.2276 H   0  0  0  0  0  0  0  0  0  0  0  0
  120.7661  107.2101  106.8702 H   0  0  0  0  0  0  0  0  0  0  0  0
  119.1869  106.1554  103.5324 H   0  0  0  0  0  0  0  0  0  0  0  0
  125.7295  108.6830  107.3956 H   0  0  0  0  0  0  0  0  0  0  0  0
  126.9118  107.8209  106.3877 H   0  0  0  0  0  0  0  0  0  0  0  0
  126.0067  106.9547  107.6294 H   0  0  0  0  0  0  0  0  0  0  0  0
  119.4662  105.5542  106.4899 H   0  0  0  0  0  0  0  0  0  0  0  0
  119.2412  104.2513  105.3081 H   0  0  0  0  0  0  0  0  0  0  0  0
  123.2164  108.2938  107.0055 H   0  0  0  0  0  0  0  0  0  0  0  0
  125.0802  106.4759  105.3694 H   0  0  0  0  0  0  0  0  0  0  0  0
  117.9518  107.0569  106.9005 H   0  0  0  0  0  0  0  0  0  0  0  0
  116.2641  106.8811  106.4583 H   0  0  0  0  0  0  0  0  0  0  0  0
  124.0315  108.5479  104.2532 H   0  0  0  0  0  0  0  0  0  0  0  0
  125.7265  108.8369  104.5653 H   0  0  0  0  0  0  0  0  0  0  0  0
  1  3  1  0  0  0  0
  1  4  2  0  0  0  0
  2  3  2  0  0  0  0
  2 19  1  0  0  0  0
  3 20  1  0  0  0  0
  4 13  1  0  0  0  0
  4 19  1  0  0  0  0
  5 12  1  0  0  0  0
  5 16  1  0  0  0  0
  5 18  2  0  0  0  0
  6  8  1  0  0  0  0
  6 10  1  0  0  0  0
  7  9  1  0  0  0  0
  7 10  1  0  0  0  0
  8 15  1  0  0  0  0
  9 15  1  0  0  0  0
 10 12  1  0  0  0  0
 11 14  1  0  0  0  0
 13 14  1  0  0  0  0
 13 15  1  0  0  0  0
 14 17  1  0  0  0  0
  1 21  1  0  0  0  0
  2 22  1  0  0  0  0
  6 23  1  0  0  0  0
  6 24  1  0  0  0  0
  7 25  1  0  0  0  0
  7 26  1  0  0  0  0
  8 27  1  0  0  0  0
  8 28  1  0  0  0  0
  9 29  1  0  0  0  0
  9 30  1  0  0  0  0
 10 31  1  0  0  0  0
 11 32  1  0  0  0  0
 11 33  1  0  0  0  0
 11 34  1  0  0  0  0
 12 35  1  0  0  0  0
 12 36  1  0  0  0  0
 13 37  1  0  0  0  0
 14 38  1  0  0  0  0
 16 39  1  0  0  0  0
 16 40  1  0  0  0  0
 17 41  1  0  0  0  0
 17 42  1  0  0  0  0
M  END
> <FRED Chemgauss4 score>
-5.198016

$$$$
C91987417	P144000811
  -OEChem-05182014473D

 28 29  0     1  0  0  0  0  0999 V2000
  123.8765  106.8700  105.6206 C   0  0  0  0  0  0  0  0  0  0  0  0
  122.1339  105.6860  106.1875 C   0  0  0  0  0  0  0  0  0  0  0  0
  125.2854  107.3282  105.5186 C   0  0  0  0  0  0  0  0  0  0  0  0
  124.3314  104.8844  107.0956 C   0  0  0  0  0  0  0  0  0  0  0  0
  125.9294  107.5708  106.8853 C   0  0  0  0  0  0  0  0  0  0  0  0
  125.1747  105.6064  108.1467 C   0  0  0  0  0  0  0  0  0  0  0  0
  121.1298  103.3808  105.9212 C   0  0  0  0  0  0  0  0  0  0  0  0
  121.2965  104.6376  106.7998 C   0  0  2  0  0  0  0  0  0  0  0  0
  122.8134  107.4195  105.0673 N   0  0  0  0  0  0  0  0  0  0  0  0
  121.7119  106.6702  105.4268 N   0  0  0  0  0  0  0  0  0  0  0  0
  123.4828  105.7718  106.3341 N   0  0  0  0  0  0  0  0  0  0  0  0
  126.3083  106.3451  107.5896 N   0  0  0  0  0  0  0  0  0  0  0  0
  119.9762  105.1254  107.1858 N   0  0  0  0  0  0  0  0  0  0  0  0
  125.8626  106.5564  104.9950 H   0  0  0  0  0  0  0  0  0  0  0  0
  125.3417  108.2306  104.8980 H   0  0  0  0  0  0  0  0  0  0  0  0
  124.9998  104.3639  106.4022 H   0  0  0  0  0  0  0  0  0  0  0  0
  123.6846  104.1251  107.5510 H   0  0  0  0  0  0  0  0  0  0  0  0
  126.7837  108.2575  106.8097 H   0  0  0  0  0  0  0  0  0  0  0  0
  125.1828  108.0773  107.5109 H   0  0  0  0  0  0  0  0  0  0  0  0
  124.5248  106.3431  108.6366 H   0  0  0  0  0  0  0  0  0  0  0  0
  125.5079  104.9166  108.9338 H   0  0  0  0  0  0  0  0  0  0  0  0
  120.6973  103.6487  104.9509 H   0  0  0  0  0  0  0  0  0  0  0  0
  122.0877  102.8806  105.7393 H   0  0  0  0  0  0  0  0  0  0  0  0
  120.4683  102.6465  106.3947 H   0  0  0  0  0  0  0  0  0  0  0  0
  121.7361  104.2850  107.7564 H   0  0  0  0  0  0  0  0  0  0  0  0
  126.7885  105.7339  106.9261 H   0  0  0  0  0  0  0  0  0  0  0  0
  119.9048  106.0523  107.5471 H   0  0  0  0  0  0  0  0  0  0  0  0
  119.2359  104.4621  107.2684 H   0  0  0  0  0  0  0  0  0  0  0  0
  1  3  1  0  0  0  0
  1  9  2  0  0  0  0
  1 11  1  0  0  0  0
  2  8  1  0  0  0  0
  2 10  2  0  0  0  0
  2 11  1  0  0  0  0
  3  5  1  0  0  0  0
  4  6  1  0  0  0  0
  4 11  1  0  0  0  0
  5 12  1  0  0  0  0
  6 12  1  0  0  0  0
  7  8  1  0  0  0  0
  8 13  1  0  0  0  0
  9 10  1  0  0  0  0
  3 14  1  0  0  0  0
  3 15  1  0  0  0  0
  4 16  1  0  0  0  0
  4 17  1  0  0  0  0
  5 18  1  0  0  0  0
  5 19  1  0  0  0  0
  6 20  1  0  0  0  0
  6 21  1  0  0  0  0
  7 22  1  0  0  0  0
  7 23  1  0  0  0  0
  7 24  1  0  0  0  0
  8 25  1  0  0  0  0
 12 26  1  0  0  0  0
 13 27  1  0  0  0  0
 13 28  1  0  0  0  0
M  END
> <FRED Chemgauss4 score>
-5.194853

$$$$
C83270613	P130167392
  -OEChem-05182014473D

 24 24  0     1  0  0  0  0  0999 V2000
  125.1847  104.8192  107.4228 C   0  0  0  0  0  0  0  0  0  0  0  0
  123.8010  104.7722  107.2814 C   0  0  0  0  0  0  0  0  0  0  0  0
  125.2035  106.9147  106.2694 C   0  0  0  0  0  0  0  0  0  0  0  0
  125.8976  105.9000  106.9129 C   0  0  0  0  0  0  0  0  0  0  0  0
  123.1600  105.8155  106.6287 C   0  0  0  0  0  0  0  0  0  0  0  0
  121.1243  104.6579  105.6110 C   0  0  0  0  0  0  0  0  0  0  0  0
  119.6395  104.3904  105.8345 C   0  0  0  0  0  0  0  0  0  0  0  0
  121.6585  105.8411  106.4340 C   0  0  2  0  0  0  0  0  0  0  0  0
  123.8709  106.8443  106.1472 N   0  3  0  0  0  0  0  0  0  0  0  0
  121.2514  107.0938  105.8344 N   0  0  0  0  0  0  0  0  0  0  0  0
  127.1703  105.9593  107.0341 O   0  5  0  0  0  0  0  0  0  0  0  0
  119.2538  103.2709  105.0474 O   0  0  0  0  0  0  0  0  0  0  0  0
  125.6843  103.9985  107.9348 H   0  0  0  0  0  0  0  0  0  0  0  0
  123.2403  103.9315  107.6775 H   0  0  0  0  0  0  0  0  0  0  0  0
  125.6550  107.7979  105.8348 H   0  0  0  0  0  0  0  0  0  0  0  0
  121.2854  104.8550  104.5420 H   0  0  0  0  0  0  0  0  0  0  0  0
  121.6943  103.7415  105.8138 H   0  0  0  0  0  0  0  0  0  0  0  0
  119.4281  104.1593  106.8828 H   0  0  0  0  0  0  0  0  0  0  0  0
  119.0379  105.2525  105.5296 H   0  0  0  0  0  0  0  0  0  0  0  0
  121.1638  105.8240  107.4133 H   0  0  0  0  0  0  0  0  0  0  0  0
  123.3843  107.6038  105.6712 H   0  0  0  0  0  0  0  0  0  0  0  0
  121.7527  107.9288  106.0749 H   0  0  0  0  0  0  0  0  0  0  0  0
  120.3676  107.1373  105.3616 H   0  0  0  0  0  0  0  0  0  0  0  0
  118.3079  103.1267  105.2110 H   0  0  0  0  0  0  0  0  0  0  0  0
  1  2  1  0  0  0  0
  1  4  2  0  0  0  0
  2  5  2  0  0  0  0
  3  4  1  0  0  0  0
  3  9  2  0  0  0  0
  4 11  1  0  0  0  0
  5  8  1  0  0  0  0
  5  9  1  0  0  0  0
  6  7  1  0  0  0  0
  6  8  1  0  0  0  0
  7 12  1  0  0  0  0
  8 10  1  0  0  0  0
  1 13  1  0  0  0  0
  2 14  1  0  0  0  0
  3 15  1  0  0  0  0
  6 16  1  0  0  0  0
  6 17  1  0  0  0  0
  7 18  1  0  0  0  0
  7 19  1  0  0  0  0
  8 20  1  0  0  0  0
  9 21  1  0  0  0  0
 10 22  1  0  0  0  0
 10 23  1  0  0  0  0
 12 24  1  0  0  0  0
M  CHG  2   9   1  11  -1
M  END
> <FRED Chemgauss4 score>
-5.190894

$$$$
C85172004	P133262859
  -OEChem-05182014473D

 27 27  0     1  0  0  0  0  0999 V2000
  124.6878  106.2881  105.6868 C   0  0  0  0  0  0  0  0  0  0  0  0
  125.9367  105.8040  107.3410 C   0  0  0  0  0  0  0  0  0  0  0  0
  123.8454  105.7781  106.6464 C   0  0  0  0  0  0  0  0  0  0  0  0
  120.0161  104.2181  107.6353 C   0  0  0  0  0  0  0  0  0  0  0  0
  124.2624  104.9033  108.9661 C   0  0  0  0  0  0  0  0  0  0  0  0
  120.5870  103.9688  106.2809 C   0  0  0  0  0  0  0  0  0  0  0  0
  121.6025  106.5608  105.7732 C   0  0  0  0  0  0  0  0  0  0  0  0
  122.3483  105.5558  106.6551 C   0  0  1  0  0  0  0  0  0  0  0  0
  125.9882  106.3012  106.1253 N   0  0  0  0  0  0  0  0  0  0  0  0
  124.6598  105.4720  107.7000 N   0  0  0  0  0  0  0  0  0  0  0  0
  122.0286  104.1988  106.2663 N   0  0  0  0  0  0  0  0  0  0  0  0
  121.8853  107.8814  106.2246 O   0  0  0  0  0  0  0  0  0  0  0  0
  124.4264  106.6471  104.7017 H   0  0  0  0  0  0  0  0  0  0  0  0
  126.7814  105.6617  108.0012 H   0  0  0  0  0  0  0  0  0  0  0  0
  120.4651  103.5494  108.3778 H   0  0  0  0  0  0  0  0  0  0  0  0
  120.1772  105.2575  107.9414 H   0  0  0  0  0  0  0  0  0  0  0  0
  118.9355  104.0322  107.6229 H   0  0  0  0  0  0  0  0  0  0  0  0
  124.0294  105.7261  109.6472 H   0  0  0  0  0  0  0  0  0  0  0  0
  123.3847  104.2675  108.8203 H   0  0  0  0  0  0  0  0  0  0  0  0
  125.0816  104.2973  109.3631 H   0  0  0  0  0  0  0  0  0  0  0  0
  120.1344  104.6397  105.5445 H   0  0  0  0  0  0  0  0  0  0  0  0
  120.4114  102.9346  105.9702 H   0  0  0  0  0  0  0  0  0  0  0  0
  121.9340  106.4887  104.7315 H   0  0  0  0  0  0  0  0  0  0  0  0
  120.5180  106.4105  105.8077 H   0  0  0  0  0  0  0  0  0  0  0  0
  121.9714  105.6499  107.6814 H   0  0  0  0  0  0  0  0  0  0  0  0
  122.3813  104.0180  105.3235 H   0  0  0  0  0  0  0  0  0  0  0  0
  121.3964  108.4842  105.6426 H   0  0  0  0  0  0  0  0  0  0  0  0
  1  3  2  0  0  0  0
  1  9  1  0  0  0  0
  2  9  2  0  0  0  0
  2 10  1  0  0  0  0
  3  8  1  0  0  0  0
  3 10  1  0  0  0  0
  4  6  1  0  0  0  0
  5 10  1  0  0  0  0
  6 11  1  0  0  0  0
  7  8  1  0  0  0  0
  7 12  1  0  0  0  0
  8 11  1  0  0  0  0
  1 13  1  0  0  0  0
  2 14  1  0  0  0  0
  4 15  1  0  0  0  0
  4 16  1  0  0  0  0
  4 17  1  0  0  0  0
  5 18  1  0  0  0  0
  5 19  1  0  0  0  0
  5 20  1  0  0  0  0
  6 21  1  0  0  0  0
  6 22  1  0  0  0  0
  7 23  1  0  0  0  0
  7 24  1  0  0  0  0
  8 25  1  0  0  0  0
 11 26  1  0  0  0  0
 12 27  1  0  0  0  0
M  END
> <FRED Chemgauss4 score>
-5.188608

$$$$
C82915708	P129631184
  -OEChem-05182014473D

 27 27  0     1  0  0  0  0  0999 V2000
  125.5666  103.5705  108.0014 C   0  0  0  0  0  0  0  0  0  0  0  0
  125.6205  104.9086  108.3129 C   0  0  0  0  0  0  0  0  0  0  0  0
  123.7205  104.3866  107.3258 C   0  0  0  0  0  0  0  0  0  0  0  0
  122.3749  104.5778  106.7471 C   0  0  0  0  0  0  0  0  0  0  0  0
  124.2496  109.1904  107.0630 C   0  0  0  0  0  0  0  0  0  0  0  0
  123.9974  106.8627  107.9836 C   0  0  0  0  0  0  0  0  0  0  0  0
  125.3171  107.2750  105.7838 C   0  0  0  0  0  0  0  0  0  0  0  0
  124.1436  107.7029  106.6894 C   0  0  2  0  0  0  0  0  0  0  0  0
  124.3815  103.2520  107.3868 N   0  0  0  0  0  0  0  0  0  0  0  0
  124.4311  105.4182  107.8737 N   0  0  0  0  0  0  0  0  0  0  0  0
  125.4334  108.0534  104.5570 N   0  0  0  0  0  0  0  0  0  0  0  0
  122.9532  107.5627  105.9013 O   0  0  0  0  0  0  0  0  0  0  0  0
  126.3210  102.8202  108.1882 H   0  0  0  0  0  0  0  0  0  0  0  0
  126.3744  105.5183  108.7909 H   0  0  0  0  0  0  0  0  0  0  0  0
  121.5919  104.4324  107.5087 H   0  0  0  0  0  0  0  0  0  0  0  0
  122.2478  105.5880  106.3230 H   0  0  0  0  0  0  0  0  0  0  0  0
  122.1766  103.8728  105.9222 H   0  0  0  0  0  0  0  0  0  0  0  0
  124.3542  109.8104  106.1652 H   0  0  0  0  0  0  0  0  0  0  0  0
  123.3792  109.5383  107.6277 H   0  0  0  0  0  0  0  0  0  0  0  0
  125.1436  109.3766  107.6698 H   0  0  0  0  0  0  0  0  0  0  0  0
  122.9578  106.8969  108.3354 H   0  0  0  0  0  0  0  0  0  0  0  0
  124.5931  107.3199  108.7862 H   0  0  0  0  0  0  0  0  0  0  0  0
  125.2254  106.2128  105.5277 H   0  0  0  0  0  0  0  0  0  0  0  0
  126.2575  107.3505  106.3448 H   0  0  0  0  0  0  0  0  0  0  0  0
  124.5956  108.3015  104.0743 H   0  0  0  0  0  0  0  0  0  0  0  0
  126.3342  108.1367  104.1348 H   0  0  0  0  0  0  0  0  0  0  0  0
  122.2238  107.8548  106.4652 H   0  0  0  0  0  0  0  0  0  0  0  0
  1  2  2  0  0  0  0
  1  9  1  0  0  0  0
  2 10  1  0  0  0  0
  3  4  1  0  0  0  0
  3  9  2  0  0  0  0
  3 10  1  0  0  0  0
  5  8  1  0  0  0  0
  6  8  1  0  0  0  0
  6 10  1  0  0  0  0
  7  8  1  0  0  0  0
  7 11  1  0  0  0  0
  8 12  1  0  0  0  0
  1 13  1  0  0  0  0
  2 14  1  0  0  0  0
  4 15  1  0  0  0  0
  4 16  1  0  0  0  0
  4 17  1  0  0  0  0
  5 18  1  0  0  0  0
  5 19  1  0  0  0  0
  5 20  1  0  0  0  0
  6 21  1  0  0  0  0
  6 22  1  0  0  0  0
  7 23  1  0  0  0  0
  7 24  1  0  0  0  0
 11 25  1  0  0  0  0
 11 26  1  0  0  0  0
 12 27  1  0  0  0  0
M  END
> <FRED Chemgauss4 score>
-5.183562

$$$$
C82916559	P129632711
  -OEChem-05182014473D

 21 20  0     1  0  0  0  0  0999 V2000
  123.2000  104.8908  108.4393 C   0  0  0  0  0  0  0  0  0  0  0  0
  125.4862  105.8171  106.6612 C   0  0  0  0  0  0  0  0  0  0  0  0
  124.0105  107.8584  106.7533 C   0  0  0  0  0  0  0  0  0  0  0  0
  125.4866  105.3156  108.1025 C   0  0  0  0  0  0  0  0  0  0  0  0
  125.4423  107.3453  106.5739 C   0  0  2  0  0  0  0  0  0  0  0  0
  123.1389  107.3302  105.7068 N   0  0  0  0  0  0  0  0  0  0  0  0
  125.9279  107.7372  105.2910 O   0  0  0  0  0  0  0  0  0  0  0  0
  124.2969  105.7360  108.7578 O   0  0  0  0  0  0  0  0  0  0  0  0
  122.3052  105.2425  108.9587 H   0  0  0  0  0  0  0  0  0  0  0  0
  123.4295  103.8654  108.7401 H   0  0  0  0  0  0  0  0  0  0  0  0
  123.0284  104.9222  107.3607 H   0  0  0  0  0  0  0  0  0  0  0  0
  124.6197  105.3847  106.1443 H   0  0  0  0  0  0  0  0  0  0  0  0
  126.3750  105.4313  106.1469 H   0  0  0  0  0  0  0  0  0  0  0  0
  123.6155  107.5581  107.7298 H   0  0  0  0  0  0  0  0  0  0  0  0
  123.9903  108.9523  106.6955 H   0  0  0  0  0  0  0  0  0  0  0  0
  125.5184  104.2221  108.1330 H   0  0  0  0  0  0  0  0  0  0  0  0
  126.3430  105.7000  108.6653 H   0  0  0  0  0  0  0  0  0  0  0  0
  126.1048  107.7738  107.3358 H   0  0  0  0  0  0  0  0  0  0  0  0
  122.3199  107.8481  105.4733 H   0  0  0  0  0  0  0  0  0  0  0  0
  123.2784  106.3882  105.4121 H   0  0  0  0  0  0  0  0  0  0  0  0
  126.8362  107.4047  105.2276 H   0  0  0  0  0  0  0  0  0  0  0  0
  1  8  1  0  0  0  0
  2  4  1  0  0  0  0
  2  5  1  0  0  0  0
  3  5  1  0  0  0  0
  3  6  1  0  0  0  0
  4  8  1  0  0  0  0
  5  7  1  0  0  0  0
  1  9  1  0  0  0  0
  1 10  1  0  0  0  0
  1 11  1  0  0  0  0
  2 12  1  0  0  0  0
  2 13  1  0  0  0  0
  3 14  1  0  0  0  0
  3 15  1  0  0  0  0
  4 16  1  0  0  0  0
  4 17  1  0  0  0  0
  5 18  1  0  0  0  0
  6 19  1  0  0  0  0
  6 20  1  0  0  0  0
  7 21  1  0  0  0  0
M  END
> <FRED Chemgauss4 score>
-5.175881

$$$$
C85353299	P133560721
  -OEChem-05182014473D

 21 22  0     1  0  0  0  0  0999 V2000
  122.8825  108.2693  109.9660 C   0  0  0  0  0  0  0  0  0  0  0  0
  123.6666  107.4081  108.2338 C   0  0  0  0  0  0  0  0  0  0  0  0
  125.5120  108.0970  106.5332 C   0  0  0  0  0  0  0  0  0  0  0  0
  124.7551  106.9615  104.6409 C   0  0  0  0  0  0  0  0  0  0  0  0
  124.4505  107.0911  106.9793 C   0  0  2  0  0  0  0  0  0  0  0  0
  123.6483  106.9098  105.6857 C   0  0  1  0  0  0  0  0  0  0  0  0
  123.8111  108.4743  108.9860 N   0  0  0  0  0  0  0  0  0  0  0  0
  122.6936  106.6112  108.7514 N   0  0  0  0  0  0  0  0  0  0  0  0
  122.1726  107.1434  109.8674 N   0  0  0  0  0  0  0  0  0  0  0  0
  122.6817  107.9857  105.4492 N   0  0  0  0  0  0  0  0  0  0  0  0
  125.7741  107.8367  105.1455 O   0  0  0  0  0  0  0  0  0  0  0  0
  122.7305  108.9745  110.7726 H   0  0  0  0  0  0  0  0  0  0  0  0
  125.2180  109.1416  106.6574 H   0  0  0  0  0  0  0  0  0  0  0  0
  126.4486  107.9313  107.0736 H   0  0  0  0  0  0  0  0  0  0  0  0
  125.1869  105.9738  104.4401 H   0  0  0  0  0  0  0  0  0  0  0  0
  124.4088  107.3794  103.6865 H   0  0  0  0  0  0  0  0  0  0  0  0
  124.9764  106.0851  107.2176 H   0  0  0  0  0  0  0  0  0  0  0  0
  123.1727  105.9826  105.6750 H   0  0  0  0  0  0  0  0  0  0  0  0
  121.4321  106.6970  110.4015 H   0  0  0  0  0  0  0  0  0  0  0  0
  122.1510  108.3285  106.2250 H   0  0  0  0  0  0  0  0  0  0  0  0
  122.4330  108.2036  104.5049 H   0  0  0  0  0  0  0  0  0  0  0  0
  1  7  2  0  0  0  0
  1  9  1  0  0  0  0
  2  5  1  0  0  0  0
  2  7  1  0  0  0  0
  2  8  2  0  0  0  0
  3  5  1  0  0  0  0
  3 11  1  0  0  0  0
  4  6  1  0  0  0  0
  4 11  1  0  0  0  0
  5  6  1  0  0  0  0
  6 10  1  0  0  0  0
  8  9  1  0  0  0  0
  1 12  1  0  0  0  0
  3 13  1  0  0  0  0
  3 14  1  0  0  0  0
  4 15  1  0  0  0  0
  4 16  1  0  0  0  0
  5 17  1  0  0  0  0
  6 18  1  0  0  0  0
  9 19  1  0  0  0  0
 10 20  1  0  0  0  0
 10 21  1  0  0  0  0
M  END
> <FRED Chemgauss4 score>
-5.153923

$$$$
C86655371	P135660828
  -OEChem-05182014473D

 24 24  0     1  0  0  0  0  0999 V2000
  120.5818  104.5877  102.7017 C   0  0  0  0  0  0  0  0  0  0  0  0
  120.7640  107.3691  105.8098 C   0  0  0  0  0  0  0  0  0  0  0  0
  121.9021  105.7610  104.4253 C   0  0  0  0  0  0  0  0  0  0  0  0
  119.6511  107.4362  104.7687 C   0  0  0  0  0  0  0  0  0  0  0  0
  120.7606  105.8644  103.4061 C   0  0  2  0  0  0  0  0  0  0  0  0
  123.1166  106.9519  106.1379 C   0  0  0  0  0  0  0  0  0  0  0  0
  124.4876  107.0231  105.4868 C   0  0  0  0  0  0  0  0  0  0  0  0
  120.4407  103.5793  102.1454 N   0  0  0  0  0  0  0  0  0  0  0  0
  122.0356  107.0296  105.1573 N   0  0  2  0  0  0  0  0  0  0  0  0
  124.6831  108.2579  104.7766 N   0  0  0  0  0  0  0  0  0  0  0  0
  119.5403  106.1910  104.0784 O   0  0  0  0  0  0  0  0  0  0  0  0
  120.8407  108.3411  106.3104 H   0  0  0  0  0  0  0  0  0  0  0  0
  120.5110  106.6154  106.5668 H   0  0  0  0  0  0  0  0  0  0  0  0
  121.7063  104.9391  105.1286 H   0  0  0  0  0  0  0  0  0  0  0  0
  122.8386  105.5305  103.9015 H   0  0  0  0  0  0  0  0  0  0  0  0
  118.6925  107.6298  105.2606 H   0  0  0  0  0  0  0  0  0  0  0  0
  119.8211  108.2430  104.0453 H   0  0  0  0  0  0  0  0  0  0  0  0
  120.9757  106.6470  102.6668 H   0  0  0  0  0  0  0  0  0  0  0  0
  122.9704  107.7692  106.8513 H   0  0  0  0  0  0  0  0  0  0  0  0
  123.0013  106.0016  106.6684 H   0  0  0  0  0  0  0  0  0  0  0  0
  125.2719  106.9623  106.2475 H   0  0  0  0  0  0  0  0  0  0  0  0
  124.6328  106.2062  104.7726 H   0  0  0  0  0  0  0  0  0  0  0  0
  125.3519  108.2913  104.0235 H   0  0  0  0  0  0  0  0  0  0  0  0
  124.3107  109.1111  105.1626 H   0  0  0  0  0  0  0  0  0  0  0  0
  1  5  1  0  0  0  0
  1  8  3  0  0  0  0
  2  4  1  0  0  0  0
  2  9  1  0  0  0  0
  3  5  1  0  0  0  0
  3  9  1  0  0  0  0
  4 11  1  0  0  0  0
  5 11  1  0  0  0  0
  6  7  1  0  0  0  0
  6  9  1  0  0  0  0
  7 10  1  0  0  0  0
  2 12  1  0  0  0  0
  2 13  1  0  0  0  0
  3 14  1  0  0  0  0
  3 15  1  0  0  0  0
  4 16  1  0  0  0  0
  4 17  1  0  0  0  0
  5 18  1  0  0  0  0
  6 19  1  0  0  0  0
  6 20  1  0  0  0  0
  7 21  1  0  0  0  0
  7 22  1  0  0  0  0
 10 23  1  0  0  0  0
 10 24  1  0  0  0  0
M  END
> <FRED Chemgauss4 score>
-5.152079

$$$$
C91018745	P142410634
  -OEChem-05182014473D

 37 39  0     0  0  0  0  0  0999 V2000
  122.5333  108.7197  109.1080 C   0  0  0  0  0  0  0  0  0  0  0  0
  123.6946  108.2222  108.5197 C   0  0  0  0  0  0  0  0  0  0  0  0
  121.3502  108.0093  108.9555 C   0  0  0  0  0  0  0  0  0  0  0  0
  123.7859  105.1255  106.5851 C   0  0  0  0  0  0  0  0  0  0  0  0
  123.6018  107.0201  107.7997 C   0  0  0  0  0  0  0  0  0  0  0  0
  124.5024  106.1969  107.0733 C   0  0  0  0  0  0  0  0  0  0  0  0
  122.3518  106.4123  107.7267 C   0  0  0  0  0  0  0  0  0  0  0  0
  120.6967  105.6254  104.6189 C   0  0  0  0  0  0  0  0  0  0  0  0
  121.3319  104.8693  101.3623 C   0  0  0  0  0  0  0  0  0  0  0  0
  119.9036  104.5473  101.0373 C   0  0  0  0  0  0  0  0  0  0  0  0
  120.2226  105.4710  102.1808 C   0  0  0  0  0  0  0  0  0  0  0  0
  125.9454  106.4361  106.8717 C   0  0  0  0  0  0  0  0  0  0  0  0
  120.2641  105.0176  105.9408 C   0  0  0  0  0  0  0  0  0  0  0  0
  121.4186  104.3399  106.6719 C   0  0  0  0  0  0  0  0  0  0  0  0
  121.2021  106.8491  108.2746 N   0  0  0  0  0  0  0  0  0  0  0  0
  122.4830  105.2665  106.9870 N   0  0  0  0  0  0  0  0  0  0  0  0
  126.5113  105.6134  105.8249 N   0  0  0  0  0  0  0  0  0  0  0  0
  120.0034  105.0724  103.5521 N   0  0  0  0  0  0  0  0  0  0  0  0
  121.5573  106.4969  104.5296 O   0  0  0  0  0  0  0  0  0  0  0  0
  122.5546  109.6447  109.6742 H   0  0  0  0  0  0  0  0  0  0  0  0
  124.6358  108.7531  108.6198 H   0  0  0  0  0  0  0  0  0  0  0  0
  120.4352  108.3828  109.4077 H   0  0  0  0  0  0  0  0  0  0  0  0
  124.0936  104.2778  105.9871 H   0  0  0  0  0  0  0  0  0  0  0  0
  121.9357  104.0873  101.8064 H   0  0  0  0  0  0  0  0  0  0  0  0
  121.8690  105.5213  100.6845 H   0  0  0  0  0  0  0  0  0  0  0  0
  119.4793  104.9827  100.1410 H   0  0  0  0  0  0  0  0  0  0  0  0
  119.5486  103.5494  101.2632 H   0  0  0  0  0  0  0  0  0  0  0  0
  120.0207  106.5253  102.0252 H   0  0  0  0  0  0  0  0  0  0  0  0
  126.1539  107.4861  106.5998 H   0  0  0  0  0  0  0  0  0  0  0  0
  126.5337  106.2354  107.7844 H   0  0  0  0  0  0  0  0  0  0  0  0
  119.8369  105.8136  106.5633 H   0  0  0  0  0  0  0  0  0  0  0  0
  119.4650  104.2931  105.7406 H   0  0  0  0  0  0  0  0  0  0  0  0
  121.8471  103.5303  106.0684 H   0  0  0  0  0  0  0  0  0  0  0  0
  121.0795  103.8871  107.6117 H   0  0  0  0  0  0  0  0  0  0  0  0
  127.4879  105.3865  105.8640 H   0  0  0  0  0  0  0  0  0  0  0  0
  125.9768  105.4601  104.9895 H   0  0  0  0  0  0  0  0  0  0  0  0
  119.3104  104.3549  103.7438 H   0  0  0  0  0  0  0  0  0  0  0  0
  1  2  1  0  0  0  0
  1  3  2  0  0  0  0
  2  5  2  0  0  0  0
  3 15  1  0  0  0  0
  4  6  2  0  0  0  0
  4 16  1  0  0  0  0
  5  6  1  0  0  0  0
  5  7  1  0  0  0  0
  6 12  1  0  0  0  0
  7 15  2  0  0  0  0
  7 16  1  0  0  0  0
  8 13  1  0  0  0  0
  8 18  1  0  0  0  0
  8 19  2  0  0  0  0
  9 10  1  0  0  0  0
  9 11  1  0  0  0  0
 10 11  1  0  0  0  0
 11 18  1  0  0  0  0
 12 17  1  0  0  0  0
 13 14  1  0  0  0  0
 14 16  1  0  0  0  0
  1 20  1  0  0  0  0
  2 21  1  0  0  0  0
  3 22  1  0  0  0  0
  4 23  1  0  0  0  0
  9 24  1  0  0  0  0
  9 25  1  0  0  0  0
 10 26  1  0  0  0  0
 10 27  1  0  0  0  0
 11 28  1  0  0  0  0
 12 29  1  0  0  0  0
 12 30  1  0  0  0  0
 13 31  1  0  0  0  0
 13 32  1  0  0  0  0
 14 33  1  0  0  0  0
 14 34  1  0  0  0  0
 17 35  1  0  0  0  0
 17 36  1  0  0  0  0
 18 37  1  0  0  0  0
M  END
> <FRED Chemgauss4 score>
-5.148980

$$$$
C86451957	P135357207
  -OEChem-05182014473D

 31 31  0     1  0  0  0  0  0999 V2000
  124.0907  107.3755  105.8728 C   0  0  0  0  0  0  0  0  0  0  0  0
  122.9067  105.6158  106.4531 C   0  0  0  0  0  0  0  0  0  0  0  0
  124.0721  106.2775  106.7537 C   0  0  0  0  0  0  0  0  0  0  0  0
  119.9361  106.9084  105.2846 C   0  0  0  0  0  0  0  0  0  0  0  0
  125.6879  102.2948  107.0626 C   0  0  0  0  0  0  0  0  0  0  0  0
  123.6770  104.1773  109.9190 C   0  0  0  0  0  0  0  0  0  0  0  0
  121.0703  106.0230  104.7977 C   0  0  0  0  0  0  0  0  0  0  0  0
  125.1103  105.9037  107.8023 C   0  0  1  0  0  0  0  0  0  0  0  0
  125.1756  104.3797  108.0775 C   0  0  0  0  0  0  0  0  0  0  0  0
  123.0220  107.4126  105.0725 N   0  0  0  0  0  0  0  0  0  0  0  0
  122.3210  106.3296  105.4493 N   0  0  0  0  0  0  0  0  0  0  0  0
  126.4420  106.4312  107.4748 N   0  0  0  0  0  0  0  0  0  0  0  0
  125.5691  103.6988  106.8771 O   0  0  0  0  0  0  0  0  0  0  0  0
  123.9019  103.9121  108.5412 O   0  0  0  0  0  0  0  0  0  0  0  0
  124.8376  108.1509  105.7782 H   0  0  0  0  0  0  0  0  0  0  0  0
  122.4561  104.7193  106.8570 H   0  0  0  0  0  0  0  0  0  0  0  0
  119.7838  106.7988  106.3636 H   0  0  0  0  0  0  0  0  0  0  0  0
  119.0027  106.6415  104.7794 H   0  0  0  0  0  0  0  0  0  0  0  0
  120.1440  107.9644  105.0825 H   0  0  0  0  0  0  0  0  0  0  0  0
  125.9884  101.8264  106.1221 H   0  0  0  0  0  0  0  0  0  0  0  0
  124.7294  101.8879  107.3946 H   0  0  0  0  0  0  0  0  0  0  0  0
  126.4475  102.0998  107.8232 H   0  0  0  0  0  0  0  0  0  0  0  0
  122.6938  103.7979  110.2081 H   0  0  0  0  0  0  0  0  0  0  0  0
  123.7306  105.2543  110.0972 H   0  0  0  0  0  0  0  0  0  0  0  0
  124.4470  103.6737  110.5082 H   0  0  0  0  0  0  0  0  0  0  0  0
  121.2149  106.1394  103.7176 H   0  0  0  0  0  0  0  0  0  0  0  0
  120.8430  104.9671  104.9833 H   0  0  0  0  0  0  0  0  0  0  0  0
  124.8174  106.4050  108.7331 H   0  0  0  0  0  0  0  0  0  0  0  0
  125.9426  104.1862  108.8408 H   0  0  0  0  0  0  0  0  0  0  0  0
  127.2248  106.0121  107.9187 H   0  0  0  0  0  0  0  0  0  0  0  0
  126.4876  107.2986  106.9940 H   0  0  0  0  0  0  0  0  0  0  0  0
  1  3  1  0  0  0  0
  1 10  2  0  0  0  0
  2  3  2  0  0  0  0
  2 11  1  0  0  0  0
  3  8  1  0  0  0  0
  4  7  1  0  0  0  0
  5 13  1  0  0  0  0
  6 14  1  0  0  0  0
  7 11  1  0  0  0  0
  8  9  1  0  0  0  0
  8 12  1  0  0  0  0
  9 13  1  0  0  0  0
  9 14  1  0  0  0  0
 10 11  1  0  0  0  0
  1 15  1  0  0  0  0
  2 16  1  0  0  0  0
  4 17  1  0  0  0  0
  4 18  1  0  0  0  0
  4 19  1  0  0  0  0
  5 20  1  0  0  0  0
  5 21  1  0  0  0  0
  5 22  1  0  0  0  0
  6 23  1  0  0  0  0
  6 24  1  0  0  0  0
  6 25  1  0  0  0  0
  7 26  1  0  0  0  0
  7 27  1  0  0  0  0
  8 28  1  0  0  0  0
  9 29  1  0  0  0  0
 12 30  1  0  0  0  0
 12 31  1  0  0  0  0
M  END
> <FRED Chemgauss4 score>
-5.144907

$$$$
C90697913	P141866415
  -OEChem-05182014473D

 19 19  0     1  0  0  0  0  0999 V2000
  125.0020  106.4113  107.9333 C   0  0  2  0  0  0  0  0  0  0  0  0
  125.7343  106.8621  106.6945 C   0  0  1  0  0  0  0  0  0  0  0  0
  123.6796  107.1651  107.8247 C   0  0  1  0  0  0  0  0  0  0  0  0
  124.6056  106.9142  105.6864 C   0  0  1  0  0  0  0  0  0  0  0  0
  123.6318  108.5135  108.5307 C   0  0  0  0  0  0  0  0  0  0  0  0
  123.4558  107.3783  106.4144 O   0  0  0  0  0  0  0  0  0  0  0  0
  125.7169  106.6772  109.1188 O   0  0  0  0  0  0  0  0  0  0  0  0
  124.9494  107.7602  104.6045 O   0  0  0  0  0  0  0  0  0  0  0  0
  122.3520  109.0863  108.3281 O   0  0  0  0  0  0  0  0  0  0  0  0
  126.2143  108.1211  106.8885 F   0  0  0  0  0  0  0  0  0  0  0  0
  124.8128  105.3328  107.8710 H   0  0  0  0  0  0  0  0  0  0  0  0
  126.5747  106.2293  106.3997 H   0  0  0  0  0  0  0  0  0  0  0  0
  122.8601  106.5441  108.2052 H   0  0  0  0  0  0  0  0  0  0  0  0
  124.3804  105.9106  105.3065 H   0  0  0  0  0  0  0  0  0  0  0  0
  124.3918  109.1792  108.1189 H   0  0  0  0  0  0  0  0  0  0  0  0
  123.8009  108.3829  109.6005 H   0  0  0  0  0  0  0  0  0  0  0  0
  125.1766  106.3570  109.8638 H   0  0  0  0  0  0  0  0  0  0  0  0
  124.1957  107.7586  103.9900 H   0  0  0  0  0  0  0  0  0  0  0  0
  122.3477  109.9433  108.7871 H   0  0  0  0  0  0  0  0  0  0  0  0
  1  2  1  0  0  0  0
  1  3  1  0  0  0  0
  1  7  1  0  0  0  0
  2  4  1  0  0  0  0
  2 10  1  0  0  0  0
  3  5  1  0  0  0  0
  3  6  1  0  0  0  0
  4  6  1  0  0  0  0
  4  8  1  0  0  0  0
  5  9  1  0  0  0  0
  1 11  1  0  0  0  0
  2 12  1  0  0  0  0
  3 13  1  0  0  0  0
  4 14  1  0  0  0  0
  5 15  1  0  0  0  0
  5 16  1  0  0  0  0
  7 17  1  0  0  0  0
  8 18  1  0  0  0  0
  9 19  1  0  0  0  0
M  END
> <FRED Chemgauss4 score>
-5.143155

$$$$
C37418582	P55631903
  -OEChem-05182014473D

 18 18  0     0  0  0  0  0  0999 V2000
  121.2611  105.3219  105.7086 C   0  0  0  0  0  0  0  0  0  0  0  0
  122.1579  105.6815  106.6848 C   0  0  0  0  0  0  0  0  0  0  0  0
  121.3402  106.3582  104.7591 C   0  0  0  0  0  0  0  0  0  0  0  0
  123.6952  107.6386  106.9777 C   0  0  0  0  0  0  0  0  0  0  0  0
  125.0867  107.4739  106.3814 C   0  0  0  0  0  0  0  0  0  0  0  0
  122.2177  107.3052  105.1013 N   0  0  0  0  0  0  0  0  0  0  0  0
  122.6983  106.8654  106.2768 N   0  0  0  0  0  0  0  0  0  0  0  0
  120.5811  106.3442  103.6333 N   0  0  0  0  0  0  0  0  0  0  0  0
  125.0895  107.9365  105.0370 O   0  0  0  0  0  0  0  0  0  0  0  0
  120.6437  104.4350  105.6953 H   0  0  0  0  0  0  0  0  0  0  0  0
  122.4486  105.2060  107.6114 H   0  0  0  0  0  0  0  0  0  0  0  0
  123.3766  108.6873  106.9545 H   0  0  0  0  0  0  0  0  0  0  0  0
  123.6839  107.3068  108.0223 H   0  0  0  0  0  0  0  0  0  0  0  0
  125.8050  108.0774  106.9451 H   0  0  0  0  0  0  0  0  0  0  0  0
  125.4148  106.4295  106.3946 H   0  0  0  0  0  0  0  0  0  0  0  0
  119.9594  105.5582  103.4104 H   0  0  0  0  0  0  0  0  0  0  0  0
  120.6678  107.0719  102.9143 H   0  0  0  0  0  0  0  0  0  0  0  0
  125.9916  107.8125  104.7005 H   0  0  0  0  0  0  0  0  0  0  0  0
  1  2  2  0  0  0  0
  1  3  1  0  0  0  0
  2  7  1  0  0  0  0
  3  6  2  0  0  0  0
  3  8  1  0  0  0  0
  4  5  1  0  0  0  0
  4  7  1  0  0  0  0
  5  9  1  0  0  0  0
  6  7  1  0  0  0  0
  1 10  1  0  0  0  0
  2 11  1  0  0  0  0
  4 12  1  0  0  0  0
  4 13  1  0  0  0  0
  5 14  1  0  0  0  0
  5 15  1  0  0  0  0
  8 16  1  0  0  0  0
  8 17  1  0  0  0  0
  9 18  1  0  0  0  0
M  END
> <FRED Chemgauss4 score>
-5.137939

$$$$
C84444357	P132149567
  -OEChem-05182014473D

 33 33  0     1  0  0  0  0  0999 V2000
  124.8201  104.9788  107.5797 C   0  0  0  0  0  0  0  0  0  0  0  0
  124.7632  106.0700  105.7441 C   0  0  0  0  0  0  0  0  0  0  0  0
  123.6752  105.5849  106.7325 C   0  0  0  0  0  0  0  0  0  0  0  0
  125.7447  106.0450  106.9419 C   0  0  0  0  0  0  0  0  0  0  0  0
  120.6590  105.1301  102.0159 C   0  0  0  0  0  0  0  0  0  0  0  0
  118.4627  105.2382  102.9839 C   0  0  0  0  0  0  0  0  0  0  0  0
  120.2793  106.4476  103.9889 C   0  0  0  0  0  0  0  0  0  0  0  0
  121.4243  105.0966  105.8122 C   0  0  0  0  0  0  0  0  0  0  0  0
  121.5591  106.2314  104.7998 C   0  0  2  0  0  0  0  0  0  0  0  0
  119.9032  105.2520  103.2691 N   0  0  0  0  0  0  0  0  0  0  0  0
  122.7728  104.5791  106.1628 N   0  3  0  0  0  0  0  0  0  0  0  0
  127.0143  105.5545  106.6110 O   0  5  0  0  0  0  0  0  0  0  0  0
  121.8721  107.4541  105.4662 O   0  0  0  0  0  0  0  0  0  0  0  0
  124.6865  105.0639  108.6628 H   0  0  0  0  0  0  0  0  0  0  0  0
  125.0581  103.9338  107.3404 H   0  0  0  0  0  0  0  0  0  0  0  0
  124.9825  105.3667  104.9297 H   0  0  0  0  0  0  0  0  0  0  0  0
  124.5827  107.0579  105.3087 H   0  0  0  0  0  0  0  0  0  0  0  0
  123.1401  106.4021  107.2349 H   0  0  0  0  0  0  0  0  0  0  0  0
  125.8014  106.9861  107.4994 H   0  0  0  0  0  0  0  0  0  0  0  0
  121.7325  105.1399  102.2222 H   0  0  0  0  0  0  0  0  0  0  0  0
  120.4213  105.9631  101.3487 H   0  0  0  0  0  0  0  0  0  0  0  0
  120.4061  104.1938  101.5114 H   0  0  0  0  0  0  0  0  0  0  0  0
  117.8948  105.3286  103.9135 H   0  0  0  0  0  0  0  0  0  0  0  0
  118.1840  104.3030  102.4908 H   0  0  0  0  0  0  0  0  0  0  0  0
  118.1993  106.0723  102.3280 H   0  0  0  0  0  0  0  0  0  0  0  0
  120.4157  107.2673  103.2760 H   0  0  0  0  0  0  0  0  0  0  0  0
  119.4557  106.7170  104.6586 H   0  0  0  0  0  0  0  0  0  0  0  0
  120.8684  104.2475  105.4044 H   0  0  0  0  0  0  0  0  0  0  0  0
  120.9754  105.4270  106.7536 H   0  0  0  0  0  0  0  0  0  0  0  0
  122.3741  106.0226  104.0961 H   0  0  0  0  0  0  0  0  0  0  0  0
  123.2078  104.1739  105.3224 H   0  0  0  0  0  0  0  0  0  0  0  0
  122.6731  103.8005  106.8289 H   0  0  0  0  0  0  0  0  0  0  0  0
  121.9969  108.1199  104.7731 H   0  0  0  0  0  0  0  0  0  0  0  0
  1  3  1  0  0  0  0
  1  4  1  0  0  0  0
  2  3  1  0  0  0  0
  2  4  1  0  0  0  0
  3 11  1  0  0  0  0
  4 12  1  0  0  0  0
  5 10  1  0  0  0  0
  6 10  1  0  0  0  0
  7  9  1  0  0  0  0
  7 10  1  0  0  0  0
  8  9  1  0  0  0  0
  8 11  1  0  0  0  0
  9 13  1  0  0  0  0
  1 14  1  0  0  0  0
  1 15  1  0  0  0  0
  2 16  1  0  0  0  0
  2 17  1  0  0  0  0
  3 18  1  0  0  0  0
  4 19  1  0  0  0  0
  5 20  1  0  0  0  0
  5 21  1  0  0  0  0
  5 22  1  0  0  0  0
  6 23  1  0  0  0  0
  6 24  1  0  0  0  0
  6 25  1  0  0  0  0
  7 26  1  0  0  0  0
  7 27  1  0  0  0  0
  8 28  1  0  0  0  0
  8 29  1  0  0  0  0
  9 30  1  0  0  0  0
 11 31  1  0  0  0  0
 11 32  1  0  0  0  0
 13 33  1  0  0  0  0
M  CHG  2  11   1  12  -1
M  END
> <FRED Chemgauss4 score>
-5.132871

$$$$
C18140548	P112439822
  -OEChem-05182014473D

 22 22  0     0  0  0  0  0  0999 V2000
  123.4029  107.0900  106.3197 C   0  0  0  0  0  0  0  0  0  0  0  0
  124.7241  106.9385  105.6756 C   0  0  0  0  0  0  0  0  0  0  0  0
  123.5992  107.6260  107.6773 C   0  0  0  0  0  0  0  0  0  0  0  0
  122.2290  106.7916  105.7659 C   0  0  0  0  0  0  0  0  0  0  0  0
  125.7880  107.3869  106.6404 C   0  0  0  0  0  0  0  0  0  0  0  0
  120.8138  105.9925  103.9532 C   0  0  0  0  0  0  0  0  0  0  0  0
  120.3267  104.6646  104.5037 C   0  0  0  0  0  0  0  0  0  0  0  0
  124.9797  107.7704  107.7905 N   0  0  0  0  0  0  0  0  0  0  0  0
  122.1079  106.2971  104.5029 N   0  0  0  0  0  0  0  0  0  0  0  0
  124.9191  106.5192  104.5476 O   0  0  0  0  0  0  0  0  0  0  0  0
  122.7338  107.8765  108.4953 O   0  0  0  0  0  0  0  0  0  0  0  0
  120.2660  104.7353  105.9225 O   0  0  0  0  0  0  0  0  0  0  0  0
  121.2948  106.9279  106.2998 H   0  0  0  0  0  0  0  0  0  0  0  0
  126.4486  106.5669  106.9251 H   0  0  0  0  0  0  0  0  0  0  0  0
  126.3248  108.2625  106.2730 H   0  0  0  0  0  0  0  0  0  0  0  0
  120.9031  105.9613  102.8627 H   0  0  0  0  0  0  0  0  0  0  0  0
  120.1263  106.7962  104.2335 H   0  0  0  0  0  0  0  0  0  0  0  0
  121.0271  103.8679  104.2348 H   0  0  0  0  0  0  0  0  0  0  0  0
  119.3329  104.4104  104.1209 H   0  0  0  0  0  0  0  0  0  0  0  0
  125.4053  108.1284  108.6397 H   0  0  0  0  0  0  0  0  0  0  0  0
  122.9472  106.1608  103.9894 H   0  0  0  0  0  0  0  0  0  0  0  0
  119.9517  103.8707  106.2322 H   0  0  0  0  0  0  0  0  0  0  0  0
  1  2  1  0  0  0  0
  1  3  1  0  0  0  0
  1  4  2  0  0  0  0
  2  5  1  0  0  0  0
  2 10  2  0  0  0  0
  3  8  1  0  0  0  0
  3 11  2  0  0  0  0
  4  9  1  0  0  0  0
  5  8  1  0  0  0  0
  6  7  1  0  0  0  0
  6  9  1  0  0  0  0
  7 12  1  0  0  0  0
  4 13  1  0  0  0  0
  5 14  1  0  0  0  0
  5 15  1  0  0  0  0
  6 16  1  0  0  0  0
  6 17  1  0  0  0  0
  7 18  1  0  0  0  0
  7 19  1  0  0  0  0
  8 20  1  0  0  0  0
  9 21  1  0  0  0  0
 12 22  1  0  0  0  0
M  END
> <FRED Chemgauss4 score>
-5.128907

$$$$
C40349624	P61251809
  -OEChem-05182014473D

 22 21  0     0  0  0  0  0  0999 V2000
  126.8872  105.7475  108.3851 C   0  0  0  0  0  0  0  0  0  0  0  0
  122.0420  108.1069  108.2576 C   0  0  0  0  0  0  0  0  0  0  0  0
  121.4370  106.9391  106.1832 C   0  0  0  0  0  0  0  0  0  0  0  0
  125.3877  105.8912  108.4442 C   0  0  0  0  0  0  0  0  0  0  0  0
  127.4957  105.4834  109.5839 N   0  0  0  0  0  0  0  0  0  0  0  0
  125.0557  107.2525  107.9808 N   0  0  0  0  0  0  0  0  0  0  0  0
  122.4982  107.1591  107.2035 N   0  0  0  0  0  0  0  0  0  0  0  0
  124.1889  108.7913  106.1117 O   0  0  0  0  0  0  0  0  0  0  0  0
  124.4155  106.3292  105.6637 O   0  0  0  0  0  0  0  0  0  0  0  0
  127.7481  105.8839  106.9595 S   0  0  0  0  0  0  0  0  0  0  0  0
  124.0919  107.4170  106.5693 S   0  0  0  0  0  0  0  0  0  0  0  0
  122.8332  108.2559  108.9969 H   0  0  0  0  0  0  0  0  0  0  0  0
  121.1571  107.7116  108.7639 H   0  0  0  0  0  0  0  0  0  0  0  0
  121.7890  109.0732  107.8132 H   0  0  0  0  0  0  0  0  0  0  0  0
  121.7895  106.2418  105.4188 H   0  0  0  0  0  0  0  0  0  0  0  0
  121.1734  107.8849  105.7021 H   0  0  0  0  0  0  0  0  0  0  0  0
  120.5415  106.5234  106.6528 H   0  0  0  0  0  0  0  0  0  0  0  0
  124.9918  105.7617  109.4548 H   0  0  0  0  0  0  0  0  0  0  0  0
  124.9045  105.1813  107.7665 H   0  0  0  0  0  0  0  0  0  0  0  0
  126.9713  105.3913  110.4480 H   0  0  0  0  0  0  0  0  0  0  0  0
  128.5019  105.3693  109.6466 H   0  0  0  0  0  0  0  0  0  0  0  0
  124.8622  107.9120  108.7457 H   0  0  0  0  0  0  0  0  0  0  0  0
  1  4  1  0  0  0  0
  1  5  1  0  0  0  0
  1 10  2  0  0  0  0
  2  7  1  0  0  0  0
  3  7  1  0  0  0  0
  4  6  1  0  0  0  0
  6 11  1  0  0  0  0
  7 11  1  0  0  0  0
  8 11  2  0  0  0  0
  9 11  2  0  0  0  0
  2 12  1  0  0  0  0
  2 13  1  0  0  0  0
  2 14  1  0  0  0  0
  3 15  1  0  0  0  0
  3 16  1  0  0  0  0
  3 17  1  0  0  0  0
  4 18  1  0  0  0  0
  4 19  1  0  0  0  0
  5 20  1  0  0  0  0
  5 21  1  0  0  0  0
  6 22  1  0  0  0  0
M  END
> <FRED Chemgauss4 score>
-5.127957

$$$$
C26471307	P39070368
  -OEChem-05182014473D

 19 19  0     0  0  0  0  0  0999 V2000
  123.1457  104.8009  106.2995 C   0  0  0  0  0  0  0  0  0  0  0  0
  123.0416  105.9669  105.6426 C   0  0  0  0  0  0  0  0  0  0  0  0
  123.9434  107.0747  106.0671 C   0  0  0  0  0  0  0  0  0  0  0  0
  124.7869  105.4918  107.6934 C   0  0  0  0  0  0  0  0  0  0  0  0
  125.7663  105.2972  108.8144 C   0  0  0  0  0  0  0  0  0  0  0  0
  122.0857  106.2185  104.5230 C   0  0  0  0  0  0  0  0  0  0  0  0
  124.0059  104.5228  107.3314 N   0  0  0  0  0  0  0  0  0  0  0  0
  124.7884  106.7406  107.1090 N   0  0  0  0  0  0  0  0  0  0  0  0
  121.2265  107.2980  104.9200 N   0  0  0  0  0  0  0  0  0  0  0  0
  123.9190  108.1753  105.5250 O   0  0  0  0  0  0  0  0  0  0  0  0
  122.5053  103.9698  106.0191 H   0  0  0  0  0  0  0  0  0  0  0  0
  126.7082  104.9323  108.4123 H   0  0  0  0  0  0  0  0  0  0  0  0
  125.3669  104.5753  109.5229 H   0  0  0  0  0  0  0  0  0  0  0  0
  125.9280  106.2452  109.3222 H   0  0  0  0  0  0  0  0  0  0  0  0
  121.5068  105.3121  104.3424 H   0  0  0  0  0  0  0  0  0  0  0  0
  122.6507  106.4847  103.6290 H   0  0  0  0  0  0  0  0  0  0  0  0
  125.4354  107.4421  107.4574 H   0  0  0  0  0  0  0  0  0  0  0  0
  120.9478  107.3774  105.8863 H   0  0  0  0  0  0  0  0  0  0  0  0
  120.7513  107.8367  104.2117 H   0  0  0  0  0  0  0  0  0  0  0  0
  1  2  2  0  0  0  0
  1  7  1  0  0  0  0
  2  3  1  0  0  0  0
  2  6  1  0  0  0  0
  3  8  1  0  0  0  0
  3 10  2  0  0  0  0
  4  5  1  0  0  0  0
  4  7  2  0  0  0  0
  4  8  1  0  0  0  0
  6  9  1  0  0  0  0
  1 11  1  0  0  0  0
  5 12  1  0  0  0  0
  5 13  1  0  0  0  0
  5 14  1  0  0  0  0
  6 15  1  0  0  0  0
  6 16  1  0  0  0  0
  8 17  1  0  0  0  0
  9 18  1  0  0  0  0
  9 19  1  0  0  0  0
M  END
> <FRED Chemgauss4 score>
-5.116567

$$$$
C14516428	P134522179
  -OEChem-05182014473D

 20 20  0     1  0  0  0  0  0999 V2000
  125.1351  105.3844  106.9465 C   0  0  0  0  0  0  0  0  0  0  0  0
  122.9858  106.0933  105.9217 C   0  0  0  0  0  0  0  0  0  0  0  0
  124.4319  104.1949  107.5658 C   0  0  1  0  0  0  0  0  0  0  0  0
  122.3086  104.9144  106.5981 C   0  0  1  0  0  0  0  0  0  0  0  0
  124.0940  104.4735  109.0274 C   0  0  0  0  0  0  0  0  0  0  0  0
  121.1238  104.4173  105.7736 C   0  0  0  0  0  0  0  0  0  0  0  0
  124.3376  106.2412  106.2030 N   0  0  0  0  0  0  0  0  0  0  0  0
  123.2718  103.8274  106.7550 N   0  0  0  0  0  0  0  0  0  0  0  0
  126.3331  105.5931  107.1416 O   0  0  0  0  0  0  0  0  0  0  0  0
  122.3692  106.8953  105.2201 O   0  0  0  0  0  0  0  0  0  0  0  0
  125.1304  103.3502  107.5310 H   0  0  0  0  0  0  0  0  0  0  0  0
  121.9277  105.2487  107.5691 H   0  0  0  0  0  0  0  0  0  0  0  0
  123.3997  105.3102  109.0944 H   0  0  0  0  0  0  0  0  0  0  0  0
  125.0015  104.7198  109.5771 H   0  0  0  0  0  0  0  0  0  0  0  0
  123.6345  103.5934  109.4757 H   0  0  0  0  0  0  0  0  0  0  0  0
  121.4688  104.0763  104.7987 H   0  0  0  0  0  0  0  0  0  0  0  0
  120.4055  105.2240  105.6350 H   0  0  0  0  0  0  0  0  0  0  0  0
  120.6362  103.5905  106.2882 H   0  0  0  0  0  0  0  0  0  0  0  0
  124.7917  107.0669  105.8226 H   0  0  0  0  0  0  0  0  0  0  0  0
  123.5831  103.5083  105.8373 H   0  0  0  0  0  0  0  0  0  0  0  0
  1  3  1  0  0  0  0
  1  7  1  0  0  0  0
  1  9  2  0  0  0  0
  2  4  1  0  0  0  0
  2  7  1  0  0  0  0
  2 10  2  0  0  0  0
  3  5  1  0  0  0  0
  3  8  1  0  0  0  0
  4  6  1  0  0  0  0
  4  8  1  0  0  0  0
  3 11  1  0  0  0  0
  4 12  1  0  0  0  0
  5 13  1  0  0  0  0
  5 14  1  0  0  0  0
  5 15  1  0  0  0  0
  6 16  1  0  0  0  0
  6 17  1  0  0  0  0
  6 18  1  0  0  0  0
  7 19  1  0  0  0  0
  8 20  1  0  0  0  0
M  END
> <FRED Chemgauss4 score>
-5.115447

$$$$
C38251012	P87937981
  -OEChem-05182014473D

 20 19  0     0  0  0  0  0  0999 V2000
  125.7728  105.7652  107.9407 C   0  0  0  0  0  0  0  0  0  0  0  0
  122.9232  108.1149  108.2985 C   0  0  0  0  0  0  0  0  0  0  0  0
  124.5306  105.6697  107.0759 C   0  0  0  0  0  0  0  0  0  0  0  0
  124.0853  108.3983  107.3667 C   0  0  0  0  0  0  0  0  0  0  0  0
  125.9700  104.5861  108.7389 N   0  0  0  0  0  0  0  0  0  0  0  0
  122.9792  107.0059  105.4509 O   0  0  0  0  0  0  0  0  0  0  0  0
  125.4682  107.4200  105.3760 O   0  0  0  0  0  0  0  0  0  0  0  0
  122.8213  109.1302  109.2887 O   0  0  0  0  0  0  0  0  0  0  0  0
  124.2583  107.1343  106.1281 S   0  0  0  0  0  0  0  0  0  0  0  0
  126.6735  105.9089  107.3358 H   0  0  0  0  0  0  0  0  0  0  0  0
  125.6849  106.6073  108.6339 H   0  0  0  0  0  0  0  0  0  0  0  0
  121.9819  108.0947  107.7403 H   0  0  0  0  0  0  0  0  0  0  0  0
  123.0409  107.1531  108.8070 H   0  0  0  0  0  0  0  0  0  0  0  0
  123.6413  105.5395  107.6998 H   0  0  0  0  0  0  0  0  0  0  0  0
  124.5907  104.8370  106.3686 H   0  0  0  0  0  0  0  0  0  0  0  0
  125.0365  108.4367  107.9055 H   0  0  0  0  0  0  0  0  0  0  0  0
  123.9323  109.3389  106.8303 H   0  0  0  0  0  0  0  0  0  0  0  0
  126.4793  104.6582  109.6056 H   0  0  0  0  0  0  0  0  0  0  0  0
  125.7818  103.6818  108.3352 H   0  0  0  0  0  0  0  0  0  0  0  0
  122.0657  108.8969  109.8516 H   0  0  0  0  0  0  0  0  0  0  0  0
  1  3  1  0  0  0  0
  1  5  1  0  0  0  0
  2  4  1  0  0  0  0
  2  8  1  0  0  0  0
  3  9  1  0  0  0  0
  4  9  1  0  0  0  0
  6  9  2  0  0  0  0
  7  9  2  0  0  0  0
  1 10  1  0  0  0  0
  1 11  1  0  0  0  0
  2 12  1  0  0  0  0
  2 13  1  0  0  0  0
  3 14  1  0  0  0  0
  3 15  1  0  0  0  0
  4 16  1  0  0  0  0
  4 17  1  0  0  0  0
  5 18  1  0  0  0  0
  5 19  1  0  0  0  0
  8 20  1  0  0  0  0
M  END
> <FRED Chemgauss4 score>
-5.115058

$$$$
C20216890	P30117378
  -OEChem-05182014473D

 36 36  0     1  0  0  0  0  0999 V2000
  121.4597  106.0629  104.4475 C   0  0  0  0  0  0  0  0  0  0  0  0
  120.9632  104.7270  106.8457 C   0  0  0  0  0  0  0  0  0  0  0  0
  122.0699  106.4942  105.6253 C   0  0  0  0  0  0  0  0  0  0  0  0
  120.6012  104.9637  104.4688 C   0  0  0  0  0  0  0  0  0  0  0  0
  121.8217  105.8263  106.8244 C   0  0  0  0  0  0  0  0  0  0  0  0
  120.3530  104.2958  105.6679 C   0  0  0  0  0  0  0  0  0  0  0  0
  125.0692  106.4054  106.4211 C   0  0  0  0  0  0  0  0  0  0  0  0
  120.7117  103.5831  102.5355 C   0  0  0  0  0  0  0  0  0  0  0  0
  122.1016  105.4930  109.1624 C   0  0  0  0  0  0  0  0  0  0  0  0
  118.1364  103.4798  105.9445 C   0  0  0  0  0  0  0  0  0  0  0  0
  122.9986  107.6911  105.5833 C   0  0  2  0  0  0  0  0  0  0  0  0
  124.4688  107.2953  105.3336 C   0  0  1  0  0  0  0  0  0  0  0  0
  125.2717  108.4923  105.1918 N   0  0  0  0  0  0  0  0  0  0  0  0
  122.8847  108.4556  106.7834 O   0  0  0  0  0  0  0  0  0  0  0  0
  120.0102  104.5518  103.3125 O   0  0  0  0  0  0  0  0  0  0  0  0
  122.4114  106.2330  107.9834 O   0  0  0  0  0  0  0  0  0  0  0  0
  119.5177  103.2202  105.7022 O   0  0  0  0  0  0  0  0  0  0  0  0
  121.6498  106.5821  103.5112 H   0  0  0  0  0  0  0  0  0  0  0  0
  120.7694  104.2069  107.7805 H   0  0  0  0  0  0  0  0  0  0  0  0
  125.0109  106.8798  107.4049 H   0  0  0  0  0  0  0  0  0  0  0  0
  126.1267  106.2070  106.2124 H   0  0  0  0  0  0  0  0  0  0  0  0
  124.5643  105.4349  106.4746 H   0  0  0  0  0  0  0  0  0  0  0  0
  120.1313  103.3424  101.6415 H   0  0  0  0  0  0  0  0  0  0  0  0
  120.8715  102.6819  103.1328 H   0  0  0  0  0  0  0  0  0  0  0  0
  121.6782  103.9975  102.2390 H   0  0  0  0  0  0  0  0  0  0  0  0
  122.6368  105.9212  110.0135 H   0  0  0  0  0  0  0  0  0  0  0  0
  122.3913  104.4482  109.0245 H   0  0  0  0  0  0  0  0  0  0  0  0
  121.0260  105.5497  109.3454 H   0  0  0  0  0  0  0  0  0  0  0  0
  117.5827  102.5377  105.9464 H   0  0  0  0  0  0  0  0  0  0  0  0
  117.7473  104.1419  105.1669 H   0  0  0  0  0  0  0  0  0  0  0  0
  118.0311  103.9636  106.9185 H   0  0  0  0  0  0  0  0  0  0  0  0
  122.6520  108.3497  104.7756 H   0  0  0  0  0  0  0  0  0  0  0  0
  124.5531  106.7737  104.3725 H   0  0  0  0  0  0  0  0  0  0  0  0
  124.8640  109.2958  104.7521 H   0  0  0  0  0  0  0  0  0  0  0  0
  126.2607  108.4290  105.3451 H   0  0  0  0  0  0  0  0  0  0  0  0
  123.4989  109.1998  106.6935 H   0  0  0  0  0  0  0  0  0  0  0  0
  1  3  1  0  0  0  0
  1  4  2  0  0  0  0
  2  5  1  0  0  0  0
  2  6  2  0  0  0  0
  3  5  2  0  0  0  0
  3 11  1  0  0  0  0
  4  6  1  0  0  0  0
  4 15  1  0  0  0  0
  5 16  1  0  0  0  0
  6 17  1  0  0  0  0
  7 12  1  0  0  0  0
  8 15  1  0  0  0  0
  9 16  1  0  0  0  0
 10 17  1  0  0  0  0
 11 12  1  0  0  0  0
 11 14  1  0  0  0  0
 12 13  1  0  0  0  0
  1 18  1  0  0  0  0
  2 19  1  0  0  0  0
  7 20  1  0  0  0  0
  7 21  1  0  0  0  0
  7 22  1  0  0  0  0
  8 23  1  0  0  0  0
  8 24  1  0  0  0  0
  8 25  1  0  0  0  0
  9 26  1  0  0  0  0
  9 27  1  0  0  0  0
  9 28  1  0  0  0  0
 10 29  1  0  0  0  0
 10 30  1  0  0  0  0
 10 31  1  0  0  0  0
 11 32  1  0  0  0  0
 12 33  1  0  0  0  0
 13 34  1  0  0  0  0
 13 35  1  0  0  0  0
 14 36  1  0  0  0  0
M  END
> <FRED Chemgauss4 score>
-5.109611

$$$$
C94112850	P147484958
  -OEChem-05182014473D

 40 42  0     1  0  0  0  0  0999 V2000
  119.4870  108.8183  107.2453 C   0  0  0  0  0  0  0  0  0  0  0  0
  120.1349  108.3921  108.4020 C   0  0  0  0  0  0  0  0  0  0  0  0
  122.2322  105.1425  106.1564 C   0  0  0  0  0  0  0  0  0  0  0  0
  122.6430  106.2475  104.0476 C   0  0  0  0  0  0  0  0  0  0  0  0
  121.2080  104.4006  105.5681 C   0  0  0  0  0  0  0  0  0  0  0  0
  121.6189  105.5055  103.4592 C   0  0  0  0  0  0  0  0  0  0  0  0
  120.2096  108.8658  106.0533 C   0  0  0  0  0  0  0  0  0  0  0  0
  121.4617  108.0247  108.3029 C   0  0  0  0  0  0  0  0  0  0  0  0
  122.9497  106.0661  105.3962 C   0  0  0  0  0  0  0  0  0  0  0  0
  120.9013  104.5820  104.2195 C   0  0  0  0  0  0  0  0  0  0  0  0
  122.0971  108.1038  107.0672 C   0  0  0  0  0  0  0  0  0  0  0  0
  122.3992  107.5758  109.3731 C   0  0  0  0  0  0  0  0  0  0  0  0
  123.5254  106.9528  108.5322 C   0  0  0  0  0  0  0  0  0  0  0  0
  123.5522  107.7253  107.1961 C   0  0  1  0  0  0  0  0  0  0  0  0
  125.1854  105.9277  106.5536 C   0  0  0  0  0  0  0  0  0  0  0  0
  119.6418  104.0925  102.2625 C   0  0  0  0  0  0  0  0  0  0  0  0
  124.0821  106.8858  106.0461 C   0  0  1  0  0  0  0  0  0  0  0  0
  121.5148  108.5243  105.9311 N   0  0  0  0  0  0  0  0  0  0  0  0
  124.7137  107.7826  105.0764 N   0  0  0  0  0  0  0  0  0  0  0  0
  119.9027  103.8570  103.6453 O   0  0  0  0  0  0  0  0  0  0  0  0
  118.4439  109.1145  107.2717 H   0  0  0  0  0  0  0  0  0  0  0  0
  119.6089  108.3542  109.3494 H   0  0  0  0  0  0  0  0  0  0  0  0
  122.4642  104.9947  107.2077 H   0  0  0  0  0  0  0  0  0  0  0  0
  123.1968  106.9650  103.4475 H   0  0  0  0  0  0  0  0  0  0  0  0
  120.6527  103.6824  106.1656 H   0  0  0  0  0  0  0  0  0  0  0  0
  121.3851  105.6512  102.4084 H   0  0  0  0  0  0  0  0  0  0  0  0
  119.7349  109.1982  105.1354 H   0  0  0  0  0  0  0  0  0  0  0  0
  122.7614  108.4359  109.9454 H   0  0  0  0  0  0  0  0  0  0  0  0
  121.9496  106.8395  110.0452 H   0  0  0  0  0  0  0  0  0  0  0  0
  124.4899  106.9859  109.0495 H   0  0  0  0  0  0  0  0  0  0  0  0
  123.2920  105.8934  108.3540 H   0  0  0  0  0  0  0  0  0  0  0  0
  124.1442  108.6422  107.3044 H   0  0  0  0  0  0  0  0  0  0  0  0
  126.0025  106.4910  107.0205 H   0  0  0  0  0  0  0  0  0  0  0  0
  125.6223  105.3396  105.7372 H   0  0  0  0  0  0  0  0  0  0  0  0
  124.8044  105.2236  107.3013 H   0  0  0  0  0  0  0  0  0  0  0  0
  118.8227  103.4497  101.9309 H   0  0  0  0  0  0  0  0  0  0  0  0
  120.5425  103.8829  101.6800 H   0  0  0  0  0  0  0  0  0  0  0  0
  119.3583  105.1390  102.1275 H   0  0  0  0  0  0  0  0  0  0  0  0
  124.2782  108.6603  104.9020 H   0  0  0  0  0  0  0  0  0  0  0  0
  125.4231  107.4066  104.4883 H   0  0  0  0  0  0  0  0  0  0  0  0
  1  2  1  0  0  0  0
  1  7  2  0  0  0  0
  2  8  2  0  0  0  0
  3  5  2  0  0  0  0
  3  9  1  0  0  0  0
  4  6  1  0  0  0  0
  4  9  2  0  0  0  0
  5 10  1  0  0  0  0
  6 10  2  0  0  0  0
  7 18  1  0  0  0  0
  8 11  1  0  0  0  0
  8 12  1  0  0  0  0
  9 17  1  0  0  0  0
 10 20  1  0  0  0  0
 11 14  1  0  0  0  0
 11 18  2  0  0  0  0
 12 13  1  0  0  0  0
 13 14  1  0  0  0  0
 14 17  1  0  0  0  0
 15 17  1  0  0  0  0
 16 20  1  0  0  0  0
 17 19  1  0  0  0  0
  1 21  1  0  0  0  0
  2 22  1  0  0  0  0
  3 23  1  0  0  0  0
  4 24  1  0  0  0  0
  5 25  1  0  0  0  0
  6 26  1  0  0  0  0
  7 27  1  0  0  0  0
 12 28  1  0  0  0  0
 12 29  1  0  0  0  0
 13 30  1  0  0  0  0
 13 31  1  0  0  0  0
 14 32  1  0  0  0  0
 15 33  1  0  0  0  0
 15 34  1  0  0  0  0
 15 35  1  0  0  0  0
 16 36  1  0  0  0  0
 16 37  1  0  0  0  0
 16 38  1  0  0  0  0
 19 39  1  0  0  0  0
 19 40  1  0  0  0  0
M  END
> <FRED Chemgauss4 score>
-5.108216

$$$$
C13544507	P20855322
  -OEChem-05182014473D

 17 17  0     0  0  0  0  0  0999 V2000
  122.4867  105.8004  105.5331 C   0  0  0  0  0  0  0  0  0  0  0  0
  124.1798  107.0066  105.9901 C   0  0  0  0  0  0  0  0  0  0  0  0
  124.3272  105.8659  106.7434 C   0  0  0  0  0  0  0  0  0  0  0  0
  125.3589  104.2573  108.3623 C   0  0  0  0  0  0  0  0  0  0  0  0
  125.0712  108.1272  105.9536 C   0  0  0  0  0  0  0  0  0  0  0  0
  123.0319  106.9598  105.2391 N   0  0  0  0  0  0  0  0  0  0  0  0
  123.2348  105.1029  106.4404 N   0  0  0  0  0  0  0  0  0  0  0  0
  124.8625  109.1785  106.8577 N   0  0  0  0  0  0  0  0  0  0  0  0
  125.2866  105.4571  107.6261 N   0  0  0  0  0  0  0  0  0  0  0  0
  124.5761  103.3176  108.3716 O   0  0  0  0  0  0  0  0  0  0  0  0
  126.0171  108.2047  105.1322 O   0  0  0  0  0  0  0  0  0  0  0  0
  121.5626  105.4108  105.1304 H   0  0  0  0  0  0  0  0  0  0  0  0
  126.2666  104.2322  108.9894 H   0  0  0  0  0  0  0  0  0  0  0  0
  123.0193  104.1904  106.8191 H   0  0  0  0  0  0  0  0  0  0  0  0
  124.0887  109.1168  107.5104 H   0  0  0  0  0  0  0  0  0  0  0  0
  125.4593  109.9991  106.8813 H   0  0  0  0  0  0  0  0  0  0  0  0
  126.0911  106.0892  107.8075 H   0  0  0  0  0  0  0  0  0  0  0  0
  1  6  2  0  0  0  0
  1  7  1  0  0  0  0
  2  3  2  0  0  0  0
  2  5  1  0  0  0  0
  2  6  1  0  0  0  0
  3  7  1  0  0  0  0
  3  9  1  0  0  0  0
  4  9  1  0  0  0  0
  4 10  2  0  0  0  0
  5  8  1  0  0  0  0
  5 11  2  0  0  0  0
  1 12  1  0  0  0  0
  4 13  1  0  0  0  0
  7 14  1  0  0  0  0
  8 15  1  0  0  0  0
  8 16  1  0  0  0  0
  9 17  1  0  0  0  0
M  END
> <FRED Chemgauss4 score>
-5.105249

$$$$
C82842415	P129491754
  -OEChem-05182014473D

 22 22  0     1  0  0  0  0  0999 V2000
  123.4313  107.3721  108.9700 C   0  0  0  0  0  0  0  0  0  0  0  0
  123.9618  107.3835  106.6952 C   0  0  0  0  0  0  0  0  0  0  0  0
  122.3321  108.7359  107.5212 C   0  0  0  0  0  0  0  0  0  0  0  0
  124.2109  106.8661  107.9500 C   0  0  0  0  0  0  0  0  0  0  0  0
  125.8549  102.3670  106.8342 C   0  0  0  0  0  0  0  0  0  0  0  0
  125.0307  104.5631  107.3425 C   0  0  0  0  0  0  0  0  0  0  0  0
  125.2694  105.8145  108.1912 C   0  0  1  0  0  0  0  0  0  0  0  0
  122.4793  108.3112  108.7906 N   0  0  0  0  0  0  0  0  0  0  0  0
  123.0265  108.3228  106.4438 N   0  0  0  0  0  0  0  0  0  0  0  0
  126.0667  103.5895  107.6048 N   0  0  0  0  0  0  0  0  0  0  0  0
  126.5437  106.3762  107.8755 O   0  0  0  0  0  0  0  0  0  0  0  0
  123.5494  107.0306  109.9936 H   0  0  0  0  0  0  0  0  0  0  0  0
  124.5209  107.0510  105.8262 H   0  0  0  0  0  0  0  0  0  0  0  0
  121.5735  109.4895  107.3488 H   0  0  0  0  0  0  0  0  0  0  0  0
  125.8417  102.5943  105.7651 H   0  0  0  0  0  0  0  0  0  0  0  0
  124.9011  101.9079  107.1082 H   0  0  0  0  0  0  0  0  0  0  0  0
  126.6578  101.6517  107.0320 H   0  0  0  0  0  0  0  0  0  0  0  0
  125.0448  104.8073  106.2746 H   0  0  0  0  0  0  0  0  0  0  0  0
  124.0613  104.1079  107.5733 H   0  0  0  0  0  0  0  0  0  0  0  0
  125.2943  105.5524  109.2562 H   0  0  0  0  0  0  0  0  0  0  0  0
  126.0753  103.3525  108.6003 H   0  0  0  0  0  0  0  0  0  0  0  0
  127.1976  105.6803  108.0398 H   0  0  0  0  0  0  0  0  0  0  0  0
  1  4  1  0  0  0  0
  1  8  2  0  0  0  0
  2  4  2  0  0  0  0
  2  9  1  0  0  0  0
  3  8  1  0  0  0  0
  3  9  2  0  0  0  0
  4  7  1  0  0  0  0
  5 10  1  0  0  0  0
  6  7  1  0  0  0  0
  6 10  1  0  0  0  0
  7 11  1  0  0  0  0
  1 12  1  0  0  0  0
  2 13  1  0  0  0  0
  3 14  1  0  0  0  0
  5 15  1  0  0  0  0
  5 16  1  0  0  0  0
  5 17  1  0  0  0  0
  6 18  1  0  0  0  0
  6 19  1  0  0  0  0
  7 20  1  0  0  0  0
 10 21  1  0  0  0  0
 11 22  1  0  0  0  0
M  END
> <FRED Chemgauss4 score>
-5.100708

$$$$
C31992616	P138009250
  -OEChem-05182014473D

 20 20  0     1  0  0  0  0  0999 V2000
  124.1312  105.6052  107.2435 C   0  0  0  0  0  0  0  0  0  0  0  0
  123.1898  106.8074  105.5116 C   0  0  0  0  0  0  0  0  0  0  0  0
  124.7159  106.9849  107.3637 C   0  0  0  0  0  0  0  0  0  0  0  0
  124.1906  107.7353  106.1488 C   0  0  1  0  0  0  0  0  0  0  0  0
  121.1508  104.4201  106.5629 C   0  0  0  0  0  0  0  0  0  0  0  0
  122.4486  104.4498  105.8297 C   0  0  0  0  0  0  0  0  0  0  0  0
  123.2321  105.6130  106.1994 N   0  0  0  0  0  0  0  0  0  0  0  0
  125.2010  107.9922  105.1617 N   0  0  0  0  0  0  0  0  0  0  0  0
  124.4178  104.6733  107.9823 O   0  0  0  0  0  0  0  0  0  0  0  0
  122.5294  107.0771  104.5173 O   0  0  0  0  0  0  0  0  0  0  0  0
  124.3566  107.4422  108.2914 H   0  0  0  0  0  0  0  0  0  0  0  0
  125.8083  106.9273  107.4012 H   0  0  0  0  0  0  0  0  0  0  0  0
  123.6898  108.6610  106.4402 H   0  0  0  0  0  0  0  0  0  0  0  0
  121.3143  104.3780  107.6452 H   0  0  0  0  0  0  0  0  0  0  0  0
  120.5468  105.3019  106.3230 H   0  0  0  0  0  0  0  0  0  0  0  0
  120.5805  103.5297  106.2724 H   0  0  0  0  0  0  0  0  0  0  0  0
  122.2780  104.4917  104.7497 H   0  0  0  0  0  0  0  0  0  0  0  0
  123.0437  103.5608  106.0582 H   0  0  0  0  0  0  0  0  0  0  0  0
  126.0997  108.2960  105.4734 H   0  0  0  0  0  0  0  0  0  0  0  0
  124.9212  108.0576  104.2053 H   0  0  0  0  0  0  0  0  0  0  0  0
  1  3  1  0  0  0  0
  1  7  1  0  0  0  0
  1  9  2  0  0  0  0
  2  4  1  0  0  0  0
  2  7  1  0  0  0  0
  2 10  2  0  0  0  0
  3  4  1  0  0  0  0
  4  8  1  0  0  0  0
  5  6  1  0  0  0  0
  6  7  1  0  0  0  0
  3 11  1  0  0  0  0
  3 12  1  0  0  0  0
  4 13  1  0  0  0  0
  5 14  1  0  0  0  0
  5 15  1  0  0  0  0
  5 16  1  0  0  0  0
  6 17  1  0  0  0  0
  6 18  1  0  0  0  0
  8 19  1  0  0  0  0
  8 20  1  0  0  0  0
M  END
> <FRED Chemgauss4 score>
-5.100121

$$$$
C37169667	P55272176
  -OEChem-05182014473D

 29 29  0     1  0  0  0  0  0999 V2000
  120.7888  104.1938  106.2920 C   0  0  0  0  0  0  0  0  0  0  0  0
  120.5725  104.7781  104.8987 C   0  0  0  0  0  0  0  0  0  0  0  0
  122.2780  104.0615  106.6115 C   0  0  0  0  0  0  0  0  0  0  0  0
  122.8307  105.9014  105.1246 C   0  0  0  0  0  0  0  0  0  0  0  0
  121.3629  106.0724  104.7196 C   0  0  2  0  0  0  0  0  0  0  0  0
  125.1522  106.3879  106.2159 C   0  0  0  0  0  0  0  0  0  0  0  0
  124.3724  105.2266  106.8514 C   0  0  1  0  0  0  0  0  0  0  0  0
  124.4755  105.1851  108.3709 C   0  0  0  0  0  0  0  0  0  0  0  0
  122.9620  105.3549  106.4854 N   0  0  2  0  0  0  0  0  0  0  0  0
  126.5711  106.3534  106.5567 N   0  0  0  0  0  0  0  0  0  0  0  0
  120.7872  107.1123  105.5086 O   0  0  0  0  0  0  0  0  0  0  0  0
  125.7498  105.0078  108.7823 F   0  0  0  0  0  0  0  0  0  0  0  0
  123.7335  104.1749  108.8801 F   0  0  0  0  0  0  0  0  0  0  0  0
  124.0199  106.3286  108.9285 F   0  0  0  0  0  0  0  0  0  0  0  0
  120.3046  104.8329  107.0384 H   0  0  0  0  0  0  0  0  0  0  0  0
  120.3092  103.2092  106.3531 H   0  0  0  0  0  0  0  0  0  0  0  0
  120.8610  104.0489  104.1294 H   0  0  0  0  0  0  0  0  0  0  0  0
  119.5019  104.9701  104.7367 H   0  0  0  0  0  0  0  0  0  0  0  0
  122.4020  103.6506  107.6217 H   0  0  0  0  0  0  0  0  0  0  0  0
  122.7147  103.3406  105.9101 H   0  0  0  0  0  0  0  0  0  0  0  0
  123.3123  105.2267  104.4016 H   0  0  0  0  0  0  0  0  0  0  0  0
  123.3577  106.8639  105.0304 H   0  0  0  0  0  0  0  0  0  0  0  0
  121.3097  106.3926  103.6649 H   0  0  0  0  0  0  0  0  0  0  0  0
  125.0450  106.3716  105.1245 H   0  0  0  0  0  0  0  0  0  0  0  0
  124.7463  107.3445  106.5662 H   0  0  0  0  0  0  0  0  0  0  0  0
  124.7434  104.2767  106.4475 H   0  0  0  0  0  0  0  0  0  0  0  0
  127.0766  107.2131  106.5510 H   0  0  0  0  0  0  0  0  0  0  0  0
  127.0266  105.4666  106.5820 H   0  0  0  0  0  0  0  0  0  0  0  0
  119.8750  107.2242  105.1978 H   0  0  0  0  0  0  0  0  0  0  0  0
  1  2  1  0  0  0  0
  1  3  1  0  0  0  0
  2  5  1  0  0  0  0
  3  9  1  0  0  0  0
  4  5  1  0  0  0  0
  4  9  1  0  0  0  0
  5 11  1  0  0  0  0
  6  7  1  0  0  0  0
  6 10  1  0  0  0  0
  7  8  1  0  0  0  0
  7  9  1  0  0  0  0
  8 12  1  0  0  0  0
  8 13  1  0  0  0  0
  8 14  1  0  0  0  0
  1 15  1  0  0  0  0
  1 16  1  0  0  0  0
  2 17  1  0  0  0  0
  2 18  1  0  0  0  0
  3 19  1  0  0  0  0
  3 20  1  0  0  0  0
  4 21  1  0  0  0  0
  4 22  1  0  0  0  0
  5 23  1  0  0  0  0
  6 24  1  0  0  0  0
  6 25  1  0  0  0  0
  7 26  1  0  0  0  0
 10 27  1  0  0  0  0
 10 28  1  0  0  0  0
 11 29  1  0  0  0  0
M  END
> <FRED Chemgauss4 score>
-5.096101

$$$$
C39113939	P59254499
  -OEChem-05182014473D

 22 22  0     1  0  0  0  0  0999 V2000
  123.3713  106.1880  106.0367 C   0  0  0  0  0  0  0  0  0  0  0  0
  125.2890  105.7017  108.1400 C   0  0  0  0  0  0  0  0  0  0  0  0
  123.4708  104.8285  106.7141 C   0  0  1  0  0  0  0  0  0  0  0  0
  125.7019  106.3671  106.8348 C   0  0  1  0  0  0  0  0  0  0  0  0
  123.5618  104.2569  109.1709 C   0  0  0  0  0  0  0  0  0  0  0  0
  124.6055  108.2998  105.6436 C   0  0  0  0  0  0  0  0  0  0  0  0
  124.0720  105.0150  108.0358 N   0  0  0  0  0  0  0  0  0  0  0  0
  124.5088  106.9771  106.2456 N   0  0  0  0  0  0  0  0  0  0  0  0
  122.4170  106.4932  105.3240 O   0  0  0  0  0  0  0  0  0  0  0  0
  126.0149  105.7116  109.1325 O   0  0  0  0  0  0  0  0  0  0  0  0
  122.1837  104.2455  106.7862 O   0  0  0  0  0  0  0  0  0  0  0  0
  126.7083  107.3274  107.0922 O   0  0  0  0  0  0  0  0  0  0  0  0
  124.1274  104.1731  106.1236 H   0  0  0  0  0  0  0  0  0  0  0  0
  126.0900  105.6141  106.1400 H   0  0  0  0  0  0  0  0  0  0  0  0
  122.9317  104.8948  109.7960 H   0  0  0  0  0  0  0  0  0  0  0  0
  124.3904  103.8791  109.7761 H   0  0  0  0  0  0  0  0  0  0  0  0
  122.9673  103.4082  108.8221 H   0  0  0  0  0  0  0  0  0  0  0  0
  124.1924  109.0519  106.3207 H   0  0  0  0  0  0  0  0  0  0  0  0
  124.0481  108.3287  104.7033 H   0  0  0  0  0  0  0  0  0  0  0  0
  125.6508  108.5465  105.4390 H   0  0  0  0  0  0  0  0  0  0  0  0
  121.8601  104.1519  105.8737 H   0  0  0  0  0  0  0  0  0  0  0  0
  127.4607  106.8551  107.4887 H   0  0  0  0  0  0  0  0  0  0  0  0
  1  3  1  0  0  0  0
  1  8  1  0  0  0  0
  1  9  2  0  0  0  0
  2  4  1  0  0  0  0
  2  7  1  0  0  0  0
  2 10  2  0  0  0  0
  3  7  1  0  0  0  0
  3 11  1  0  0  0  0
  4  8  1  0  0  0  0
  4 12  1  0  0  0  0
  5  7  1  0  0  0  0
  6  8  1  0  0  0  0
  3 13  1  0  0  0  0
  4 14  1  0  0  0  0
  5 15  1  0  0  0  0
  5 16  1  0  0  0  0
  5 17  1  0  0  0  0
  6 18  1  0  0  0  0
  6 19  1  0  0  0  0
  6 20  1  0  0  0  0
 11 21  1  0  0  0  0
 12 22  1  0  0  0  0
M  END
> <FRED Chemgauss4 score>
-5.087515

$$$$
C95922221	P151020888
  -OEChem-05182014473D

 19 19  0     1  0  0  0  0  0999 V2000
  124.5014  107.2097  106.3451 C   0  0  0  0  0  0  0  0  0  0  0  0
  122.6490  107.1707  107.7672 C   0  0  0  0  0  0  0  0  0  0  0  0
  123.1110  107.7571  106.4431 C   0  0  2  0  0  0  0  0  0  0  0  0
  125.6762  105.2934  107.5801 C   0  0  0  0  0  0  0  0  0  0  0  0
  125.2808  104.3135  108.6641 C   0  0  0  0  0  0  0  0  0  0  0  0
  124.5849  106.1738  107.2387 N   0  0  0  0  0  0  0  0  0  0  0  0
  122.3540  107.2413  105.3123 N   0  0  0  0  0  0  0  0  0  0  0  0
  125.3644  107.6126  105.5794 O   0  0  0  0  0  0  0  0  0  0  0  0
  123.3796  105.9521  107.9314 O   0  0  0  0  0  0  0  0  0  0  0  0
  126.3397  103.5039  108.9363 F   0  0  0  0  0  0  0  0  0  0  0  0
  122.8543  107.8440  108.6102 H   0  0  0  0  0  0  0  0  0  0  0  0
  121.5752  106.9277  107.7779 H   0  0  0  0  0  0  0  0  0  0  0  0
  123.1526  108.8366  106.4553 H   0  0  0  0  0  0  0  0  0  0  0  0
  125.9607  104.7654  106.6655 H   0  0  0  0  0  0  0  0  0  0  0  0
  126.5110  105.9179  107.9103 H   0  0  0  0  0  0  0  0  0  0  0  0
  124.4414  103.6812  108.3600 H   0  0  0  0  0  0  0  0  0  0  0  0
  125.0186  104.8378  109.5870 H   0  0  0  0  0  0  0  0  0  0  0  0
  122.8168  107.1443  104.4286 H   0  0  0  0  0  0  0  0  0  0  0  0
  121.3557  107.1899  105.3862 H   0  0  0  0  0  0  0  0  0  0  0  0
  1  3  1  0  0  0  0
  1  6  1  0  0  0  0
  1  8  2  0  0  0  0
  2  3  1  0  0  0  0
  2  9  1  0  0  0  0
  3  7  1  0  0  0  0
  4  5  1  0  0  0  0
  4  6  1  0  0  0  0
  5 10  1  0  0  0  0
  6  9  1  0  0  0  0
  2 11  1  0  0  0  0
  2 12  1  0  0  0  0
  3 13  1  0  0  0  0
  4 14  1  0  0  0  0
  4 15  1  0  0  0  0
  5 16  1  0  0  0  0
  5 17  1  0  0  0  0
  7 18  1  0  0  0  0
  7 19  1  0  0  0  0
M  END
> <FRED Chemgauss4 score>
-5.086569

$$$$
C38643687	P58506679
  -OEChem-05182014473D

 26 26  0     1  0  0  0  0  0999 V2000
  122.6183  104.9640  106.8017 C   0  0  0  0  0  0  0  0  0  0  0  0
  123.5151  106.0918  106.3451 C   0  0  1  0  0  0  0  0  0  0  0  0
  124.7067  104.5732  107.5779 C   0  0  0  0  0  0  0  0  0  0  0  0
  125.2602  103.2764  106.9930 C   0  0  0  0  0  0  0  0  0  0  0  0
  125.4684  104.9653  108.8371 C   0  0  0  0  0  0  0  0  0  0  0  0
  124.4650  108.3491  106.9553 C   0  0  0  0  0  0  0  0  0  0  0  0
  123.2935  107.3801  107.1267 C   0  0  1  0  0  0  0  0  0  0  0  0
  124.6292  108.6911  105.5604 N   0  0  0  0  0  0  0  0  0  0  0  0
  123.3216  104.3950  107.9053 O   0  0  0  0  0  0  0  0  0  0  0  0
  124.8401  105.6094  106.5928 O   0  0  0  0  0  0  0  0  0  0  0  0
  122.1094  108.0192  106.6445 O   0  0  0  0  0  0  0  0  0  0  0  0
  121.6469  105.3236  107.1668 H   0  0  0  0  0  0  0  0  0  0  0  0
  122.4471  104.2087  106.0263 H   0  0  0  0  0  0  0  0  0  0  0  0
  123.4128  106.2761  105.2772 H   0  0  0  0  0  0  0  0  0  0  0  0
  124.7070  103.0071  106.0931 H   0  0  0  0  0  0  0  0  0  0  0  0
  125.1668  102.4696  107.7200 H   0  0  0  0  0  0  0  0  0  0  0  0
  126.3124  103.4019  106.7370 H   0  0  0  0  0  0  0  0  0  0  0  0
  125.0637  105.8919  109.2444 H   0  0  0  0  0  0  0  0  0  0  0  0
  126.5231  105.1122  108.6044 H   0  0  0  0  0  0  0  0  0  0  0  0
  125.3777  104.1797  109.5875 H   0  0  0  0  0  0  0  0  0  0  0  0
  124.2916  109.2700  107.5224 H   0  0  0  0  0  0  0  0  0  0  0  0
  125.3941  107.8944  107.3142 H   0  0  0  0  0  0  0  0  0  0  0  0
  123.1400  107.1570  108.1921 H   0  0  0  0  0  0  0  0  0  0  0  0
  125.5317  108.9914  105.2388 H   0  0  0  0  0  0  0  0  0  0  0  0
  123.8101  108.8183  104.9938 H   0  0  0  0  0  0  0  0  0  0  0  0
  122.0061  108.8293  107.1652 H   0  0  0  0  0  0  0  0  0  0  0  0
  1  2  1  0  0  0  0
  1  9  1  0  0  0  0
  2  7  1  0  0  0  0
  2 10  1  0  0  0  0
  3  4  1  0  0  0  0
  3  5  1  0  0  0  0
  3  9  1  0  0  0  0
  3 10  1  0  0  0  0
  6  7  1  0  0  0  0
  6  8  1  0  0  0  0
  7 11  1  0  0  0  0
  1 12  1  0  0  0  0
  1 13  1  0  0  0  0
  2 14  1  0  0  0  0
  4 15  1  0  0  0  0
  4 16  1  0  0  0  0
  4 17  1  0  0  0  0
  5 18  1  0  0  0  0
  5 19  1  0  0  0  0
  5 20  1  0  0  0  0
  6 21  1  0  0  0  0
  6 22  1  0  0  0  0
  7 23  1  0  0  0  0
  8 24  1  0  0  0  0
  8 25  1  0  0  0  0
 11 26  1  0  0  0  0
M  END
> <FRED Chemgauss4 score>
-5.081456

$$$$
C86590475	P135571658
  -OEChem-05182014473D

 25 25  0     1  0  0  0  0  0999 V2000
  124.4231  106.1892  106.4683 C   0  0  0  0  0  0  0  0  0  0  0  0
  125.0148  105.5068  108.8206 C   0  0  0  0  0  0  0  0  0  0  0  0
  127.6895  105.1513  107.6172 C   0  0  0  0  0  0  0  0  0  0  0  0
  122.3875  104.7488  106.9834 C   0  0  0  0  0  0  0  0  0  0  0  0
  121.2610  104.1939  106.1185 C   0  0  0  0  0  0  0  0  0  0  0  0
  125.3797  105.4733  107.3276 C   0  0  2  0  0  0  0  0  0  0  0  0
  124.6495  107.2364  105.7092 N   0  0  0  0  0  0  0  0  0  0  0  0
  123.4449  107.5281  105.1101 N   0  0  0  0  0  0  0  0  0  0  0  0
  122.5023  106.6761  105.4945 N   0  0  0  0  0  0  0  0  0  0  0  0
  123.1161  105.8403  106.3436 N   0  0  0  0  0  0  0  0  0  0  0  0
  120.5365  103.1357  106.7691 N   0  0  0  0  0  0  0  0  0  0  0  0
  126.6884  106.0555  107.1907 O   0  0  0  0  0  0  0  0  0  0  0  0
  124.8832  106.5375  109.1649 H   0  0  0  0  0  0  0  0  0  0  0  0
  125.7970  105.0367  109.4272 H   0  0  0  0  0  0  0  0  0  0  0  0
  124.0920  104.9513  109.0215 H   0  0  0  0  0  0  0  0  0  0  0  0
  128.6725  105.6150  107.5040 H   0  0  0  0  0  0  0  0  0  0  0  0
  127.6349  104.2376  107.0200 H   0  0  0  0  0  0  0  0  0  0  0  0
  127.5234  104.9072  108.6691 H   0  0  0  0  0  0  0  0  0  0  0  0
  121.9827  105.1421  107.9236 H   0  0  0  0  0  0  0  0  0  0  0  0
  123.1101  103.9663  107.2442 H   0  0  0  0  0  0  0  0  0  0  0  0
  120.5366  104.9834  105.8960 H   0  0  0  0  0  0  0  0  0  0  0  0
  121.6399  103.7981  105.1708 H   0  0  0  0  0  0  0  0  0  0  0  0
  125.4976  104.4051  107.0466 H   0  0  0  0  0  0  0  0  0  0  0  0
  120.0409  102.4618  106.2073 H   0  0  0  0  0  0  0  0  0  0  0  0
  120.3637  103.1957  107.7601 H   0  0  0  0  0  0  0  0  0  0  0  0
  1  6  1  0  0  0  0
  1  7  2  0  0  0  0
  1 10  1  0  0  0  0
  2  6  1  0  0  0  0
  3 12  1  0  0  0  0
  4  5  1  0  0  0  0
  4 10  1  0  0  0  0
  5 11  1  0  0  0  0
  6 12  1  0  0  0  0
  7  8  1  0  0  0  0
  8  9  2  0  0  0  0
  9 10  1  0  0  0  0
  2 13  1  0  0  0  0
  2 14  1  0  0  0  0
  2 15  1  0  0  0  0
  3 16  1  0  0  0  0
  3 17  1  0  0  0  0
  3 18  1  0  0  0  0
  4 19  1  0  0  0  0
  4 20  1  0  0  0  0
  5 21  1  0  0  0  0
  5 22  1  0  0  0  0
  6 23  1  0  0  0  0
 11 24  1  0  0  0  0
 11 25  1  0  0  0  0
M  END
> <FRED Chemgauss4 score>
-5.073533

$$$$
C84444287	P132137690
  -OEChem-05182014473D

 22 22  0     0  0  0  0  0  0999 V2000
  122.7757  108.8140  107.5097 C   0  0  0  0  0  0  0  0  0  0  0  0
  121.8296  106.9108  107.9122 C   0  0  0  0  0  0  0  0  0  0  0  0
  123.0740  107.6378  108.4621 C   0  0  0  0  0  0  0  0  0  0  0  0
  121.7477  107.9374  106.7621 C   0  0  0  0  0  0  0  0  0  0  0  0
  124.6956  105.8310  109.0730 C   0  0  0  0  0  0  0  0  0  0  0  0
  125.9892  105.1911  108.6089 C   0  0  0  0  0  0  0  0  0  0  0  0
  124.3337  106.9441  108.1421 N   0  3  0  0  0  0  0  0  0  0  0  0
  122.2333  107.4379  105.5407 O   0  5  0  0  0  0  0  0  0  0  0  0
  127.0342  106.1542  108.6393 O   0  0  0  0  0  0  0  0  0  0  0  0
  122.3586  109.7136  108.0000 H   0  0  0  0  0  0  0  0  0  0  0  0
  123.6479  109.1506  106.9116 H   0  0  0  0  0  0  0  0  0  0  0  0
  122.0122  105.8590  107.6086 H   0  0  0  0  0  0  0  0  0  0  0  0
  120.9593  106.8992  108.5951 H   0  0  0  0  0  0  0  0  0  0  0  0
  123.0125  107.8939  109.5288 H   0  0  0  0  0  0  0  0  0  0  0  0
  120.7583  108.4024  106.6355 H   0  0  0  0  0  0  0  0  0  0  0  0
  124.7903  106.2784  110.0664 H   0  0  0  0  0  0  0  0  0  0  0  0
  123.8637  105.1220  109.0526 H   0  0  0  0  0  0  0  0  0  0  0  0
  126.2630  104.3745  109.2842 H   0  0  0  0  0  0  0  0  0  0  0  0
  125.9017  104.7928  107.5928 H   0  0  0  0  0  0  0  0  0  0  0  0
  124.2962  106.5600  107.1805 H   0  0  0  0  0  0  0  0  0  0  0  0
  125.1197  107.6191  108.1265 H   0  0  0  0  0  0  0  0  0  0  0  0
  127.8390  105.7037  108.3363 H   0  0  0  0  0  0  0  0  0  0  0  0
  1  3  1  0  0  0  0
  1  4  1  0  0  0  0
  2  3  1  0  0  0  0
  2  4  1  0  0  0  0
  3  7  1  0  0  0  0
  4  8  1  0  0  0  0
  5  6  1  0  0  0  0
  5  7  1  0  0  0  0
  6  9  1  0  0  0  0
  1 10  1  0  0  0  0
  1 11  1  0  0  0  0
  2 12  1  0  0  0  0
  2 13  1  0  0  0  0
  3 14  1  0  0  0  0
  4 15  1  0  0  0  0
  5 16  1  0  0  0  0
  5 17  1  0  0  0  0
  6 18  1  0  0  0  0
  6 19  1  0  0  0  0
  7 20  1  0  0  0  0
  7 21  1  0  0  0  0
  9 22  1  0  0  0  0
M  CHG  2   7   1   8  -1
M  END
> <FRED Chemgauss4 score>
-5.067502

$$$$
C39065281	P59185761
  -OEChem-05182014473D

 16 16  0     0  0  0  0  0  0999 V2000
  125.0727  106.9414  106.4467 C   0  0  0  0  0  0  0  0  0  0  0  0
  124.1584  105.9794  106.0906 C   0  0  0  0  0  0  0  0  0  0  0  0
  126.2501  106.8714  107.2519 C   0  0  0  0  0  0  0  0  0  0  0  0
  122.0827  106.0194  104.6917 C   0  0  0  0  0  0  0  0  0  0  0  0
  123.4915  107.9127  105.1307 N   0  0  0  0  0  0  0  0  0  0  0  0
  124.6277  108.0944  105.8429 N   0  0  0  0  0  0  0  0  0  0  0  0
  123.2366  106.6293  105.3011 N   0  3  0  0  0  0  0  0  0  0  0  0
  126.1373  107.1033  108.6322 N   0  0  0  0  0  0  0  0  0  0  0  0
  127.3846  106.6264  106.7680 O   0  0  0  0  0  0  0  0  0  0  0  0
  124.1737  104.2631  106.5556 S   0  5  0  0  0  0  0  0  0  0  0  0
  121.2376  106.0931  105.3817 H   0  0  0  0  0  0  0  0  0  0  0  0
  121.8332  106.5257  103.7550 H   0  0  0  0  0  0  0  0  0  0  0  0
  122.2922  104.9678  104.4761 H   0  0  0  0  0  0  0  0  0  0  0  0
  125.0398  109.0191  105.8726 H   0  0  0  0  0  0  0  0  0  0  0  0
  125.2237  107.3139  109.0192 H   0  0  0  0  0  0  0  0  0  0  0  0
  126.9364  107.0679  109.2568 H   0  0  0  0  0  0  0  0  0  0  0  0
  1  2  2  0  0  0  0
  1  3  1  0  0  0  0
  1  6  1  0  0  0  0
  2  7  1  0  0  0  0
  2 10  1  0  0  0  0
  3  8  1  0  0  0  0
  3  9  2  0  0  0  0
  4  7  1  0  0  0  0
  5  6  1  0  0  0  0
  5  7  2  0  0  0  0
  4 11  1  0  0  0  0
  4 12  1  0  0  0  0
  4 13  1  0  0  0  0
  6 14  1  0  0  0  0
  8 15  1  0  0  0  0
  8 16  1  0  0  0  0
M  CHG  2   7   1  10  -1
M  END
> <FRED Chemgauss4 score>
-5.066164

$$$$
C79002672	P123316451
  -OEChem-05182014473D

 37 38  0     1  0  0  0  0  0999 V2000
  119.7737  104.7762  105.3151 C   0  0  0  0  0  0  0  0  0  0  0  0
  120.1130  105.9094  103.2210 C   0  0  0  0  0  0  0  0  0  0  0  0
  119.2123  103.7324  104.5976 C   0  0  0  0  0  0  0  0  0  0  0  0
  120.2303  105.8818  104.6062 C   0  0  0  0  0  0  0  0  0  0  0  0
  119.5365  104.8147  102.5972 C   0  0  0  0  0  0  0  0  0  0  0  0
  119.3888  104.7894  101.1522 C   0  0  0  0  0  0  0  0  0  0  0  0
  126.5178  106.3673  107.8757 C   0  0  0  0  0  0  0  0  0  0  0  0
  126.3741  107.8463  107.5595 C   0  0  0  0  0  0  0  0  0  0  0  0
  124.5440  105.9165  106.6780 C   0  0  0  0  0  0  0  0  0  0  0  0
  124.3973  107.4011  106.3543 C   0  0  1  0  0  0  0  0  0  0  0  0
  120.8472  107.0411  105.3340 C   0  0  0  0  0  0  0  0  0  0  0  0
  122.9362  107.8040  106.2368 C   0  0  0  0  0  0  0  0  0  0  0  0
  119.0814  103.7231  103.2521 N   0  0  0  0  0  0  0  0  0  0  0  0
  118.1563  104.6806  100.6868 N   0  0  0  0  0  0  0  0  0  0  0  0
  120.4797  104.8726  100.2800 N   0  0  0  0  0  0  0  0  0  0  0  0
  122.3077  107.0649  105.1910 N   0  0  0  0  0  0  0  0  0  0  0  0
  125.9288  105.5920  106.8294 O   0  0  0  0  0  0  0  0  0  0  0  0
  124.9914  108.1743  107.4052 O   0  0  0  0  0  0  0  0  0  0  0  0
  117.2110  104.6095  101.7151 O   0  0  0  0  0  0  0  0  0  0  0  0
  119.8508  104.7245  106.3958 H   0  0  0  0  0  0  0  0  0  0  0  0
  120.4631  106.7629  102.6488 H   0  0  0  0  0  0  0  0  0  0  0  0
  118.8409  102.8472  105.1035 H   0  0  0  0  0  0  0  0  0  0  0  0
  127.5738  106.0921  107.9527 H   0  0  0  0  0  0  0  0  0  0  0  0
  126.0259  106.1140  108.8220 H   0  0  0  0  0  0  0  0  0  0  0  0
  126.7808  108.4540  108.3731 H   0  0  0  0  0  0  0  0  0  0  0  0
  126.9036  108.1081  106.6361 H   0  0  0  0  0  0  0  0  0  0  0  0
  124.0203  105.6505  107.6041 H   0  0  0  0  0  0  0  0  0  0  0  0
  124.1398  105.3002  105.8689 H   0  0  0  0  0  0  0  0  0  0  0  0
  124.9176  107.6400  105.4183 H   0  0  0  0  0  0  0  0  0  0  0  0
  120.4553  107.9898  104.9515 H   0  0  0  0  0  0  0  0  0  0  0  0
  120.6161  107.0014  106.4037 H   0  0  0  0  0  0  0  0  0  0  0  0
  122.8781  108.8620  106.0070 H   0  0  0  0  0  0  0  0  0  0  0  0
  122.4299  107.5942  107.1719 H   0  0  0  0  0  0  0  0  0  0  0  0
  121.4295  104.9763  100.6187 H   0  0  0  0  0  0  0  0  0  0  0  0
  120.3532  104.8740   99.2734 H   0  0  0  0  0  0  0  0  0  0  0  0
  122.5273  107.4734  104.2714 H   0  0  0  0  0  0  0  0  0  0  0  0
  116.3822  104.5347  101.2128 H   0  0  0  0  0  0  0  0  0  0  0  0
  1  3  1  0  0  0  0
  1  4  2  0  0  0  0
  2  4  1  0  0  0  0
  2  5  2  0  0  0  0
  3 13  2  0  0  0  0
  4 11  1  0  0  0  0
  5  6  1  0  0  0  0
  5 13  1  0  0  0  0
  6 14  2  0  0  0  0
  6 15  1  0  0  0  0
  7  8  1  0  0  0  0
  7 17  1  0  0  0  0
  8 18  1  0  0  0  0
  9 10  1  0  0  0  0
  9 17  1  0  0  0  0
 10 12  1  0  0  0  0
 10 18  1  0  0  0  0
 11 16  1  0  0  0  0
 12 16  1  0  0  0  0
 14 19  1  0  0  0  0
  1 20  1  0  0  0  0
  2 21  1  0  0  0  0
  3 22  1  0  0  0  0
  7 23  1  0  0  0  0
  7 24  1  0  0  0  0
  8 25  1  0  0  0  0
  8 26  1  0  0  0  0
  9 27  1  0  0  0  0
  9 28  1  0  0  0  0
 10 29  1  0  0  0  0
 11 30  1  0  0  0  0
 11 31  1  0  0  0  0
 12 32  1  0  0  0  0
 12 33  1  0  0  0  0
 15 34  1  0  0  0  0
 15 35  1  0  0  0  0
 16 36  1  0  0  0  0
 19 37  1  0  0  0  0
M  END
> <FRED Chemgauss4 score>
-5.061412

$$$$
C39094985	P59234643
  -OEChem-05182014473D

 19 19  0     1  0  0  0  0  0999 V2000
  123.1448  106.7537  106.0261 C   0  0  0  0  0  0  0  0  0  0  0  0
  124.5123  107.7576  107.7354 C   0  0  0  0  0  0  0  0  0  0  0  0
  123.9239  108.0197  106.3335 C   0  0  1  0  0  0  0  0  0  0  0  0
  124.5599  106.2355  107.8839 C   0  0  2  0  0  0  0  0  0  0  0  0
  125.9043  105.6398  107.4867 C   0  0  0  0  0  0  0  0  0  0  0  0
  123.4992  105.8465  106.9862 N   0  0  0  0  0  0  0  0  0  0  0  0
  124.9494  108.1553  105.3100 N   0  0  0  0  0  0  0  0  0  0  0  0
  122.3896  106.5979  105.0790 O   0  0  0  0  0  0  0  0  0  0  0  0
  123.0939  104.5222  106.9511 O   0  0  0  0  0  0  0  0  0  0  0  0
  125.4800  108.2431  107.9009 H   0  0  0  0  0  0  0  0  0  0  0  0
  123.8183  108.1688  108.4809 H   0  0  0  0  0  0  0  0  0  0  0  0
  123.2687  108.8786  106.3366 H   0  0  0  0  0  0  0  0  0  0  0  0
  124.3077  105.9359  108.8971 H   0  0  0  0  0  0  0  0  0  0  0  0
  126.1608  105.9387  106.4696 H   0  0  0  0  0  0  0  0  0  0  0  0
  125.8601  104.5511  107.5332 H   0  0  0  0  0  0  0  0  0  0  0  0
  126.6841  105.9901  108.1641 H   0  0  0  0  0  0  0  0  0  0  0  0
  125.7679  108.6875  105.5252 H   0  0  0  0  0  0  0  0  0  0  0  0
  124.7219  107.8937  104.3721 H   0  0  0  0  0  0  0  0  0  0  0  0
  122.5526  104.4741  106.1298 H   0  0  0  0  0  0  0  0  0  0  0  0
  1  3  1  0  0  0  0
  1  6  1  0  0  0  0
  1  8  2  0  0  0  0
  2  3  1  0  0  0  0
  2  4  1  0  0  0  0
  3  7  1  0  0  0  0
  4  5  1  0  0  0  0
  4  6  1  0  0  0  0
  6  9  1  0  0  0  0
  2 10  1  0  0  0  0
  2 11  1  0  0  0  0
  3 12  1  0  0  0  0
  4 13  1  0  0  0  0
  5 14  1  0  0  0  0
  5 15  1  0  0  0  0
  5 16  1  0  0  0  0
  7 17  1  0  0  0  0
  7 18  1  0  0  0  0
  9 19  1  0  0  0  0
M  END
> <FRED Chemgauss4 score>
-5.060609

$$$$
C39077974	P59214167
  -OEChem-05182014473D

 21 20  0     0  0  0  0  0  0999 V2000
  122.1019  106.6107  105.7495 C   0  0  0  0  0  0  0  0  0  0  0  0
  122.3352  105.3184  108.7681 C   0  0  0  0  0  0  0  0  0  0  0  0
  123.1148  105.1688  107.4725 C   0  0  0  0  0  0  0  0  0  0  0  0
  124.1643  107.3509  106.9195 C   0  0  0  0  0  0  0  0  0  0  0  0
  125.3321  107.0534  105.9969 C   0  0  0  0  0  0  0  0  0  0  0  0
  122.3643  104.1184  109.5605 N   0  0  0  0  0  0  0  0  0  0  0  0
  123.1004  106.3768  106.6927 N   0  0  0  0  0  0  0  0  0  0  0  0
  121.9655  107.5868  105.0201 O   0  0  0  0  0  0  0  0  0  0  0  0
  126.3508  108.0253  106.1961 O   0  0  0  0  0  0  0  0  0  0  0  0
  121.3827  105.7762  105.7086 H   0  0  0  0  0  0  0  0  0  0  0  0
  121.2846  105.5585  108.5766 H   0  0  0  0  0  0  0  0  0  0  0  0
  122.7695  106.1166  109.3781 H   0  0  0  0  0  0  0  0  0  0  0  0
  124.1627  104.9364  107.6855 H   0  0  0  0  0  0  0  0  0  0  0  0
  122.7019  104.3695  106.8486 H   0  0  0  0  0  0  0  0  0  0  0  0
  124.4641  107.2928  107.9707 H   0  0  0  0  0  0  0  0  0  0  0  0
  123.7627  108.3482  106.7161 H   0  0  0  0  0  0  0  0  0  0  0  0
  125.0092  107.1116  104.9528 H   0  0  0  0  0  0  0  0  0  0  0  0
  125.7516  106.0599  106.1860 H   0  0  0  0  0  0  0  0  0  0  0  0
  122.2944  103.2246  109.1010 H   0  0  0  0  0  0  0  0  0  0  0  0
  122.2486  104.1866  110.5591 H   0  0  0  0  0  0  0  0  0  0  0  0
  127.0748  107.7995  105.5903 H   0  0  0  0  0  0  0  0  0  0  0  0
  1  7  1  0  0  0  0
  1  8  2  0  0  0  0
  2  3  1  0  0  0  0
  2  6  1  0  0  0  0
  3  7  1  0  0  0  0
  4  5  1  0  0  0  0
  4  7  1  0  0  0  0
  5  9  1  0  0  0  0
  1 10  1  0  0  0  0
  2 11  1  0  0  0  0
  2 12  1  0  0  0  0
  3 13  1  0  0  0  0
  3 14  1  0  0  0  0
  4 15  1  0  0  0  0
  4 16  1  0  0  0  0
  5 17  1  0  0  0  0
  5 18  1  0  0  0  0
  6 19  1  0  0  0  0
  6 20  1  0  0  0  0
  9 21  1  0  0  0  0
M  END
> <FRED Chemgauss4 score>
-5.058219

$$$$
C13510329	P20803174
  -OEChem-05182014473D

 17 17  0     1  0  0  0  0  0999 V2000
  122.9063  106.4370  105.8864 C   0  0  0  0  0  0  0  0  0  0  0  0
  122.2388  105.4676  106.8159 C   0  0  1  0  0  0  0  0  0  0  0  0
  123.4193  104.8952  107.5671 C   0  0  1  0  0  0  0  0  0  0  0  0
  124.3616  106.0788  107.6123 C   0  0  1  0  0  0  0  0  0  0  0  0
  125.8189  105.6767  107.7569 C   0  0  0  0  0  0  0  0  0  0  0  0
  122.3990  106.9332  104.8928 O   0  0  0  0  0  0  0  0  0  0  0  0
  124.1608  106.7321  106.3513 O   0  0  0  0  0  0  0  0  0  0  0  0
  123.0788  104.4570  108.8649 O   0  0  0  0  0  0  0  0  0  0  0  0
  126.6139  106.8496  107.7782 O   0  0  0  0  0  0  0  0  0  0  0  0
  121.4066  106.1225  107.6632 F   0  0  0  0  0  0  0  0  0  0  0  0
  121.6940  104.7421  106.2469 H   0  0  0  0  0  0  0  0  0  0  0  0
  123.8639  104.0159  107.0258 H   0  0  0  0  0  0  0  0  0  0  0  0
  124.0844  106.7842  108.4070 H   0  0  0  0  0  0  0  0  0  0  0  0
  126.1222  105.0540  106.9137 H   0  0  0  0  0  0  0  0  0  0  0  0
  125.9666  105.1272  108.6881 H   0  0  0  0  0  0  0  0  0  0  0  0
  123.8932  104.1108  109.2608 H   0  0  0  0  0  0  0  0  0  0  0  0
  127.5386  106.5646  107.8712 H   0  0  0  0  0  0  0  0  0  0  0  0
  1  2  1  0  0  0  0
  1  6  2  0  0  0  0
  1  7  1  0  0  0  0
  2  3  1  0  0  0  0
  2 10  1  0  0  0  0
  3  4  1  0  0  0  0
  3  8  1  0  0  0  0
  4  5  1  0  0  0  0
  4  7  1  0  0  0  0
  5  9  1  0  0  0  0
  2 11  1  0  0  0  0
  3 12  1  0  0  0  0
  4 13  1  0  0  0  0
  5 14  1  0  0  0  0
  5 15  1  0  0  0  0
  8 16  1  0  0  0  0
  9 17  1  0  0  0  0
M  END
> <FRED Chemgauss4 score>
-5.054766

$$$$
C05501770	P85200389
  -OEChem-05182014473D

 17 16  0     0  0  0  0  0  0999 V2000
  122.8352  105.8099  106.3118 C   0  0  0  0  0  0  0  0  0  0  0  0
  123.3962  105.2947  107.5935 C   0  0  0  0  0  0  0  0  0  0  0  0
  125.5957  104.7904  108.7068 C   0  0  0  0  0  0  0  0  0  0  0  0
  126.8379  105.5721  108.3198 C   0  0  0  0  0  0  0  0  0  0  0  0
  121.6916  105.1931  105.8835 N   0  0  0  0  0  0  0  0  0  0  0  0
  124.6674  104.7719  107.5951 N   0  0  0  0  0  0  0  0  0  0  0  0
  126.4679  106.8948  107.9520 O   0  0  0  0  0  0  0  0  0  0  0  0
  123.6261  107.0429  105.5274 S   0  0  0  0  0  0  0  0  0  0  0  0
  122.4060  105.3478  108.9340 S   0  0  0  0  0  0  0  0  0  0  0  0
  125.8424  103.7557  108.9649 H   0  0  0  0  0  0  0  0  0  0  0  0
  125.0982  105.2634  109.5588 H   0  0  0  0  0  0  0  0  0  0  0  0
  127.3213  105.1041  107.4566 H   0  0  0  0  0  0  0  0  0  0  0  0
  127.5546  105.6237  109.1459 H   0  0  0  0  0  0  0  0  0  0  0  0
  121.2587  104.4371  106.4042 H   0  0  0  0  0  0  0  0  0  0  0  0
  121.2359  105.4735  105.0215 H   0  0  0  0  0  0  0  0  0  0  0  0
  124.9853  104.3322  106.7366 H   0  0  0  0  0  0  0  0  0  0  0  0
  127.2869  107.3579  107.7131 H   0  0  0  0  0  0  0  0  0  0  0  0
  1  2  1  0  0  0  0
  1  5  1  0  0  0  0
  1  8  2  0  0  0  0
  2  6  1  0  0  0  0
  2  9  2  0  0  0  0
  3  4  1  0  0  0  0
  3  6  1  0  0  0  0
  4  7  1  0  0  0  0
  3 10  1  0  0  0  0
  3 11  1  0  0  0  0
  4 12  1  0  0  0  0
  4 13  1  0  0  0  0
  5 14  1  0  0  0  0
  5 15  1  0  0  0  0
  6 16  1  0  0  0  0
  7 17  1  0  0  0  0
M  END
> <FRED Chemgauss4 score>
-5.054624

$$$$
C98093000	P155917681
  -OEChem-05182014473D

 44 45  0     0  0  0  0  0  0999 V2000
  118.9513  104.7639   99.8973 C   0  0  0  0  0  0  0  0  0  0  0  0
  118.8620  105.3612  100.9349 C   0  0  0  0  0  0  0  0  0  0  0  0
  123.0341  103.5470  107.0292 C   0  0  0  0  0  0  0  0  0  0  0  0
  124.1327  104.2700  106.4811 C   0  0  0  0  0  0  0  0  0  0  0  0
  122.1309  104.3760  107.6574 C   0  0  0  0  0  0  0  0  0  0  0  0
  124.0272  105.6243  106.7111 C   0  0  0  0  0  0  0  0  0  0  0  0
  118.9477  104.6415  106.8869 C   0  0  0  0  0  0  0  0  0  0  0  0
  117.0012  105.1844  105.4161 C   0  0  0  0  0  0  0  0  0  0  0  0
  118.6230  103.3527  104.7866 C   0  0  0  0  0  0  0  0  0  0  0  0
  117.6503  106.0571  104.3376 C   0  0  0  0  0  0  0  0  0  0  0  0
  119.2131  104.3080  103.7459 C   0  0  0  0  0  0  0  0  0  0  0  0
  117.9295  104.0864  105.9337 C   0  0  0  0  0  0  0  0  0  0  0  0
  126.4605  106.5106  108.6024 C   0  0  0  0  0  0  0  0  0  0  0  0
  118.7546  106.0947  102.1985 C   0  0  0  0  0  0  0  0  0  0  0  0
  120.8527  104.0085  108.3541 C   0  0  0  0  0  0  0  0  0  0  0  0
  118.1948  105.2401  103.2457 N   0  0  0  0  0  0  0  0  0  0  0  0
  119.7984  103.6908  107.4179 N   0  0  0  0  0  0  0  0  0  0  0  0
  125.6611  107.4597  107.8144 N   0  0  0  0  0  0  0  0  0  0  0  0
  118.9623  105.8440  107.1226 O   0  0  0  0  0  0  0  0  0  0  0  0
  126.1346  106.5232  105.4617 O   0  0  0  0  0  0  0  0  0  0  0  0
  124.1649  108.0490  105.8028 O   0  0  0  0  0  0  0  0  0  0  0  0
  122.6084  106.0189  107.5848 S   0  0  0  0  0  0  0  0  0  0  0  0
  125.0408  106.9979  106.2930 S   0  0  0  0  0  0  0  0  0  0  0  0
  119.0299  104.2339   98.9770 H   0  0  0  0  0  0  0  0  0  0  0  0
  122.9161  102.4728  106.9637 H   0  0  0  0  0  0  0  0  0  0  0  0
  124.9576  103.8183  105.9454 H   0  0  0  0  0  0  0  0  0  0  0  0
  116.6629  105.8233  106.2410 H   0  0  0  0  0  0  0  0  0  0  0  0
  116.1035  104.7140  104.9931 H   0  0  0  0  0  0  0  0  0  0  0  0
  117.8924  102.6987  104.2925 H   0  0  0  0  0  0  0  0  0  0  0  0
  119.4187  102.7039  105.1725 H   0  0  0  0  0  0  0  0  0  0  0  0
  116.8835  106.7367  103.9457 H   0  0  0  0  0  0  0  0  0  0  0  0
  118.4336  106.6812  104.7873 H   0  0  0  0  0  0  0  0  0  0  0  0
  120.0676  104.8495  104.1710 H   0  0  0  0  0  0  0  0  0  0  0  0
  119.5996  103.7034  102.9159 H   0  0  0  0  0  0  0  0  0  0  0  0
  117.3435  103.3625  106.5132 H   0  0  0  0  0  0  0  0  0  0  0  0
  126.9386  105.7828  107.9416 H   0  0  0  0  0  0  0  0  0  0  0  0
  125.8223  105.9763  109.3114 H   0  0  0  0  0  0  0  0  0  0  0  0
  127.2361  107.0419  109.1605 H   0  0  0  0  0  0  0  0  0  0  0  0
  118.1152  106.9742  102.0746 H   0  0  0  0  0  0  0  0  0  0  0  0
  119.7419  106.4483  102.5125 H   0  0  0  0  0  0  0  0  0  0  0  0
  121.0025  103.1376  109.0016 H   0  0  0  0  0  0  0  0  0  0  0  0
  120.5011  104.8288  108.9886 H   0  0  0  0  0  0  0  0  0  0  0  0
  119.6770  102.7225  107.1368 H   0  0  0  0  0  0  0  0  0  0  0  0
  125.1699  108.1870  108.3483 H   0  0  0  0  0  0  0  0  0  0  0  0
  1  2  3  0  0  0  0
  2 14  1  0  0  0  0
  3  4  1  0  0  0  0
  3  5  2  0  0  0  0
  4  6  2  0  0  0  0
  5 15  1  0  0  0  0
  5 22  1  0  0  0  0
  6 22  1  0  0  0  0
  6 23  1  0  0  0  0
  7 12  1  0  0  0  0
  7 17  1  0  0  0  0
  7 19  2  0  0  0  0
  8 10  1  0  0  0  0
  8 12  1  0  0  0  0
  9 11  1  0  0  0  0
  9 12  1  0  0  0  0
 10 16  1  0  0  0  0
 11 16  1  0  0  0  0
 13 18  1  0  0  0  0
 14 16  1  0  0  0  0
 15 17  1  0  0  0  0
 18 23  1  0  0  0  0
 20 23  2  0  0  0  0
 21 23  2  0  0  0  0
  1 24  1  0  0  0  0
  3 25  1  0  0  0  0
  4 26  1  0  0  0  0
  8 27  1  0  0  0  0
  8 28  1  0  0  0  0
  9 29  1  0  0  0  0
  9 30  1  0  0  0  0
 10 31  1  0  0  0  0
 10 32  1  0  0  0  0
 11 33  1  0  0  0  0
 11 34  1  0  0  0  0
 12 35  1  0  0  0  0
 13 36  1  0  0  0  0
 13 37  1  0  0  0  0
 13 38  1  0  0  0  0
 14 39  1  0  0  0  0
 14 40  1  0  0  0  0
 15 41  1  0  0  0  0
 15 42  1  0  0  0  0
 17 43  1  0  0  0  0
 18 44  1  0  0  0  0
M  END
> <FRED Chemgauss4 score>
-5.052711

$$$$
C72226568	P112212622
  -OEChem-05182014473D

 23 23  0     1  0  0  0  0  0999 V2000
  124.1407  104.7058  106.9781 C   0  0  0  0  0  0  0  0  0  0  0  0
  122.8248  104.2265  106.6366 C   0  0  0  0  0  0  0  0  0  0  0  0
  124.5771  105.9154  106.5915 C   0  0  0  0  0  0  0  0  0  0  0  0
  121.9966  104.9939  105.9128 C   0  0  0  0  0  0  0  0  0  0  0  0
  123.6567  106.7818  105.7807 C   0  0  0  0  0  0  0  0  0  0  0  0
  120.6170  104.5779  105.5148 C   0  0  0  0  0  0  0  0  0  0  0  0
  126.1612  106.4738  108.4213 C   0  0  0  0  0  0  0  0  0  0  0  0
  125.9319  106.4530  106.9235 C   0  0  1  0  0  0  0  0  0  0  0  0
  122.4117  106.2415  105.4987 N   0  0  0  0  0  0  0  0  0  0  0  0
  126.8488  105.5789  106.2488 N   0  0  0  0  0  0  0  0  0  0  0  0
  124.0071  107.8979  105.4027 O   0  0  0  0  0  0  0  0  0  0  0  0
  124.7692  104.0440  107.5654 H   0  0  0  0  0  0  0  0  0  0  0  0
  122.5373  103.2398  106.9823 H   0  0  0  0  0  0  0  0  0  0  0  0
  119.9048  104.8865  106.2791 H   0  0  0  0  0  0  0  0  0  0  0  0
  120.5771  103.4949  105.4008 H   0  0  0  0  0  0  0  0  0  0  0  0
  120.3518  105.0427  104.5656 H   0  0  0  0  0  0  0  0  0  0  0  0
  126.0586  105.4741  108.8591 H   0  0  0  0  0  0  0  0  0  0  0  0
  127.1681  106.8357  108.6551 H   0  0  0  0  0  0  0  0  0  0  0  0
  125.4363  107.1277  108.9174 H   0  0  0  0  0  0  0  0  0  0  0  0
  126.0355  107.4523  106.4927 H   0  0  0  0  0  0  0  0  0  0  0  0
  121.7634  106.8011  104.9517 H   0  0  0  0  0  0  0  0  0  0  0  0
  127.8119  105.5468  106.5480 H   0  0  0  0  0  0  0  0  0  0  0  0
  126.5804  105.1658  105.3682 H   0  0  0  0  0  0  0  0  0  0  0  0
  1  2  1  0  0  0  0
  1  3  2  0  0  0  0
  2  4  2  0  0  0  0
  3  5  1  0  0  0  0
  3  8  1  0  0  0  0
  4  6  1  0  0  0  0
  4  9  1  0  0  0  0
  5  9  1  0  0  0  0
  5 11  2  0  0  0  0
  7  8  1  0  0  0  0
  8 10  1  0  0  0  0
  1 12  1  0  0  0  0
  2 13  1  0  0  0  0
  6 14  1  0  0  0  0
  6 15  1  0  0  0  0
  6 16  1  0  0  0  0
  7 17  1  0  0  0  0
  7 18  1  0  0  0  0
  7 19  1  0  0  0  0
  8 20  1  0  0  0  0
  9 21  1  0  0  0  0
 10 22  1  0  0  0  0
 10 23  1  0  0  0  0
M  END
> <FRED Chemgauss4 score>
-5.050427

$$$$
C52833943	P79173630
  -OEChem-05182014473D

 22 22  0     0  0  0  0  0  0999 V2000
  120.6899  106.0637  105.0477 C   0  0  0  0  0  0  0  0  0  0  0  0
  122.3631  105.4482  106.2849 C   0  0  0  0  0  0  0  0  0  0  0  0
  125.5798  105.1453  107.7911 C   0  0  0  0  0  0  0  0  0  0  0  0
  120.2653  104.0733  106.5072 C   0  0  0  0  0  0  0  0  0  0  0  0
  123.1752  104.6709  107.2801 C   0  0  0  0  0  0  0  0  0  0  0  0
  121.6859  106.8846  104.8015 N   0  0  0  0  0  0  0  0  0  0  0  0
  122.7504  106.4930  105.5886 N   0  0  0  0  0  0  0  0  0  0  0  0
  126.6898  105.6715  107.3419 N   0  0  0  0  0  0  0  0  0  0  0  0
  121.0723  105.1433  105.9758 N   0  0  0  0  0  0  0  0  0  0  0  0
  125.2491  104.9808  109.1189 N   0  0  0  0  0  0  0  0  0  0  0  0
  124.5813  104.6798  106.9545 N   0  0  0  0  0  0  0  0  0  0  0  0
  127.5124  106.0533  108.4062 O   0  0  0  0  0  0  0  0  0  0  0  0
  119.7074  106.0895  104.5985 H   0  0  0  0  0  0  0  0  0  0  0  0
  120.4088  103.1952  105.8720 H   0  0  0  0  0  0  0  0  0  0  0  0
  120.5761  103.8579  107.5333 H   0  0  0  0  0  0  0  0  0  0  0  0
  119.2152  104.3787  106.5077 H   0  0  0  0  0  0  0  0  0  0  0  0
  123.0591  105.0908  108.2853 H   0  0  0  0  0  0  0  0  0  0  0  0
  122.8484  103.6267  107.3241 H   0  0  0  0  0  0  0  0  0  0  0  0
  125.8812  105.2741  109.8557 H   0  0  0  0  0  0  0  0  0  0  0  0
  124.3682  104.5636  109.3987 H   0  0  0  0  0  0  0  0  0  0  0  0
  124.8393  104.3152  106.0417 H   0  0  0  0  0  0  0  0  0  0  0  0
  128.2814  106.4188  107.9368 H   0  0  0  0  0  0  0  0  0  0  0  0
  1  6  2  0  0  0  0
  1  9  1  0  0  0  0
  2  5  1  0  0  0  0
  2  7  2  0  0  0  0
  2  9  1  0  0  0  0
  3  8  2  0  0  0  0
  3 10  1  0  0  0  0
  3 11  1  0  0  0  0
  4  9  1  0  0  0  0
  5 11  1  0  0  0  0
  6  7  1  0  0  0  0
  8 12  1  0  0  0  0
  1 13  1  0  0  0  0
  4 14  1  0  0  0  0
  4 15  1  0  0  0  0
  4 16  1  0  0  0  0
  5 17  1  0  0  0  0
  5 18  1  0  0  0  0
 10 19  1  0  0  0  0
 10 20  1  0  0  0  0
 11 21  1  0  0  0  0
 12 22  1  0  0  0  0
M  END
> <FRED Chemgauss4 score>
-5.047952

$$$$
C39129103	P151026861
  -OEChem-05182014473D

 23 23  0     1  0  0  0  0  0999 V2000
  124.2164  104.8826  107.2954 C   0  0  0  0  0  0  0  0  0  0  0  0
  125.1951  107.1190  106.7411 C   0  0  0  0  0  0  0  0  0  0  0  0
  120.9496  104.2236  105.6344 C   0  0  0  0  0  0  0  0  0  0  0  0
  123.1992  105.1256  106.1900 C   0  0  2  0  0  0  0  0  0  0  0  0
  122.8585  106.6089  106.0948 C   0  0  1  0  0  0  0  0  0  0  0  0
  119.8623  103.3329  106.1371 C   0  0  0  0  0  0  0  0  0  0  0  0
  125.1512  105.9084  107.4385 N   0  0  0  0  0  0  0  0  0  0  0  0
  124.0705  107.3922  105.9811 N   0  0  0  0  0  0  0  0  0  0  0  0
  122.0197  106.8966  104.9389 N   0  0  0  0  0  0  0  0  0  0  0  0
  122.0405  104.3221  106.4818 N   0  0  0  0  0  0  0  0  0  0  0  0
  124.2756  103.8366  107.9401 O   0  0  0  0  0  0  0  0  0  0  0  0
  126.1668  107.8745  106.7884 O   0  0  0  0  0  0  0  0  0  0  0  0
  120.8188  104.7859  104.5535 O   0  0  0  0  0  0  0  0  0  0  0  0
  123.6375  104.7529  105.2557 H   0  0  0  0  0  0  0  0  0  0  0  0
  122.3457  106.9455  107.0042 H   0  0  0  0  0  0  0  0  0  0  0  0
  119.1215  103.8759  106.7457 H   0  0  0  0  0  0  0  0  0  0  0  0
  119.2854  102.8712  105.3197 H   0  0  0  0  0  0  0  0  0  0  0  0
  120.1950  102.4926  106.7672 H   0  0  0  0  0  0  0  0  0  0  0  0
  125.8829  105.7584  108.1277 H   0  0  0  0  0  0  0  0  0  0  0  0
  124.0967  108.1656  105.3241 H   0  0  0  0  0  0  0  0  0  0  0  0
  122.0529  107.8148  104.5479 H   0  0  0  0  0  0  0  0  0  0  0  0
  121.2996  106.2457  104.7040 H   0  0  0  0  0  0  0  0  0  0  0  0
  122.0222  103.7999  107.3556 H   0  0  0  0  0  0  0  0  0  0  0  0
  1  4  1  0  0  0  0
  1  7  1  0  0  0  0
  1 11  2  0  0  0  0
  2  7  1  0  0  0  0
  2  8  1  0  0  0  0
  2 12  2  0  0  0  0
  3  6  1  0  0  0  0
  3 10  1  0  0  0  0
  3 13  2  0  0  0  0
  4  5  1  0  0  0  0
  4 10  1  0  0  0  0
  5  8  1  0  0  0  0
  5  9  1  0  0  0  0
  4 14  1  0  0  0  0
  5 15  1  0  0  0  0
  6 16  1  0  0  0  0
  6 17  1  0  0  0  0
  6 18  1  0  0  0  0
  7 19  1  0  0  0  0
  8 20  1  0  0  0  0
  9 21  1  0  0  0  0
  9 22  1  0  0  0  0
 10 23  1  0  0  0  0
M  END
> <FRED Chemgauss4 score>
-5.035580

$$$$
C18717275	P131855685
  -OEChem-05182014473D

 22 23  0     1  0  0  0  0  0999 V2000
  123.7327  107.4538  106.4756 C   0  0  0  0  0  0  0  0  0  0  0  0
  123.2023  108.1205  107.7312 C   0  0  0  0  0  0  0  0  0  0  0  0
  123.9533  107.3896  108.8578 C   0  0  0  0  0  0  0  0  0  0  0  0
  125.4045  104.2672  107.3060 C   0  0  0  0  0  0  0  0  0  0  0  0
  125.0549  105.2632  106.1960 C   0  0  0  0  0  0  0  0  0  0  0  0
  124.1025  105.9897  108.2944 C   0  0  2  0  0  0  0  0  0  0  0  0
  125.3030  105.0923  108.6109 C   0  0  2  0  0  0  0  0  0  0  0  0
  124.2230  106.2289  106.8804 N   0  0  0  0  0  0  0  0  0  0  0  0
  126.5438  105.8320  108.8285 N   0  0  0  0  0  0  0  0  0  0  0  0
  123.7123  107.9320  105.3534 O   0  0  0  0  0  0  0  0  0  0  0  0
  123.4212  109.1909  107.7298 H   0  0  0  0  0  0  0  0  0  0  0  0
  122.1223  107.9542  107.7937 H   0  0  0  0  0  0  0  0  0  0  0  0
  124.9196  107.8821  109.0122 H   0  0  0  0  0  0  0  0  0  0  0  0
  123.4085  107.4093  109.8058 H   0  0  0  0  0  0  0  0  0  0  0  0
  124.6521  103.4683  107.3286 H   0  0  0  0  0  0  0  0  0  0  0  0
  126.3798  103.7951  107.1510 H   0  0  0  0  0  0  0  0  0  0  0  0
  125.9365  105.7815  105.8060 H   0  0  0  0  0  0  0  0  0  0  0  0
  124.5051  104.8118  105.3660 H   0  0  0  0  0  0  0  0  0  0  0  0
  123.1710  105.4255  108.4400 H   0  0  0  0  0  0  0  0  0  0  0  0
  125.1099  104.4525  109.4779 H   0  0  0  0  0  0  0  0  0  0  0  0
  127.4043  105.3774  108.6133 H   0  0  0  0  0  0  0  0  0  0  0  0
  126.5013  106.6703  109.3662 H   0  0  0  0  0  0  0  0  0  0  0  0
  1  2  1  0  0  0  0
  1  8  1  0  0  0  0
  1 10  2  0  0  0  0
  2  3  1  0  0  0  0
  3  6  1  0  0  0  0
  4  5  1  0  0  0  0
  4  7  1  0  0  0  0
  5  8  1  0  0  0  0
  6  7  1  0  0  0  0
  6  8  1  0  0  0  0
  7  9  1  0  0  0  0
  2 11  1  0  0  0  0
  2 12  1  0  0  0  0
  3 13  1  0  0  0  0
  3 14  1  0  0  0  0
  4 15  1  0  0  0  0
  4 16  1  0  0  0  0
  5 17  1  0  0  0  0
  5 18  1  0  0  0  0
  6 19  1  0  0  0  0
  7 20  1  0  0  0  0
  9 21  1  0  0  0  0
  9 22  1  0  0  0  0
M  END
> <FRED Chemgauss4 score>
-5.034985

$$$$
C95532417	P150161681
  -OEChem-05182014473D

 26 27  0     1  0  0  0  0  0999 V2000
  123.9027  106.7990  105.9134 C   0  0  0  0  0  0  0  0  0  0  0  0
  122.6857  104.9605  106.6688 C   0  0  0  0  0  0  0  0  0  0  0  0
  126.0793  104.9203  108.4154 C   0  0  0  0  0  0  0  0  0  0  0  0
  124.8389  105.8554  106.6126 C   0  0  2  0  0  0  0  0  0  0  0  0
  123.8661  105.1760  107.5709 C   0  0  2  0  0  0  0  0  0  0  0  0
  125.9490  106.2203  107.5661 C   0  0  2  0  0  0  0  0  0  0  0  0
  124.7271  104.1491  108.2727 C   0  0  1  0  0  0  0  0  0  0  0  0
  121.6038  106.4769  104.9803 C   0  0  0  0  0  0  0  0  0  0  0  0
  122.7060  106.0811  105.8320 N   0  0  0  0  0  0  0  0  0  0  0  0
  127.1842  106.5699  106.8867 N   0  0  0  0  0  0  0  0  0  0  0  0
  124.8988  102.9126  107.5172 N   0  0  0  0  0  0  0  0  0  0  0  0
  124.1840  107.8924  105.4550 O   0  0  0  0  0  0  0  0  0  0  0  0
  121.8704  104.0583  106.7441 O   0  0  0  0  0  0  0  0  0  0  0  0
  126.9232  104.3009  108.0849 H   0  0  0  0  0  0  0  0  0  0  0  0
  126.2715  105.1767  109.4641 H   0  0  0  0  0  0  0  0  0  0  0  0
  125.2050  105.1631  105.8380 H   0  0  0  0  0  0  0  0  0  0  0  0
  123.5093  105.8880  108.3354 H   0  0  0  0  0  0  0  0  0  0  0  0
  125.6488  107.0582  108.2077 H   0  0  0  0  0  0  0  0  0  0  0  0
  124.3227  103.8987  109.2588 H   0  0  0  0  0  0  0  0  0  0  0  0
  121.7073  106.0172  103.9940 H   0  0  0  0  0  0  0  0  0  0  0  0
  121.5889  107.5638  104.8622 H   0  0  0  0  0  0  0  0  0  0  0  0
  120.6541  106.1590  105.4188 H   0  0  0  0  0  0  0  0  0  0  0  0
  128.0495  106.4352  107.3708 H   0  0  0  0  0  0  0  0  0  0  0  0
  127.1300  107.1169  106.0503 H   0  0  0  0  0  0  0  0  0  0  0  0
  124.1062  102.5388  107.0406 H   0  0  0  0  0  0  0  0  0  0  0  0
  125.7302  102.3820  107.6666 H   0  0  0  0  0  0  0  0  0  0  0  0
  1  4  1  0  0  0  0
  1  9  1  0  0  0  0
  1 12  2  0  0  0  0
  2  5  1  0  0  0  0
  2  9  1  0  0  0  0
  2 13  2  0  0  0  0
  3  6  1  0  0  0  0
  3  7  1  0  0  0  0
  4  5  1  0  0  0  0
  4  6  1  0  0  0  0
  5  7  1  0  0  0  0
  6 10  1  0  0  0  0
  7 11  1  0  0  0  0
  8  9  1  0  0  0  0
  3 14  1  0  0  0  0
  3 15  1  0  0  0  0
  4 16  1  0  0  0  0
  5 17  1  0  0  0  0
  6 18  1  0  0  0  0
  7 19  1  0  0  0  0
  8 20  1  0  0  0  0
  8 21  1  0  0  0  0
  8 22  1  0  0  0  0
 10 23  1  0  0  0  0
 10 24  1  0  0  0  0
 11 25  1  0  0  0  0
 11 26  1  0  0  0  0
M  END
> <FRED Chemgauss4 score>
-5.026149

$$$$
C51356228	P76951199
  -OEChem-05182014473D

 27 27  0     1  0  0  0  0  0999 V2000
  122.8705  106.5302  107.2486 C   0  0  0  0  0  0  0  0  0  0  0  0
  124.9103  107.6558  107.2985 C   0  0  0  0  0  0  0  0  0  0  0  0
  123.1728  107.0340  105.8479 C   0  0  1  0  0  0  0  0  0  0  0  0
  124.6837  107.1441  105.8889 C   0  0  1  0  0  0  0  0  0  0  0  0
  120.7148  105.4402  103.4775 C   0  0  0  0  0  0  0  0  0  0  0  0
  120.9149  103.9486  103.7377 C   0  0  0  0  0  0  0  0  0  0  0  0
  121.2638  106.3381  104.5841 C   0  0  0  0  0  0  0  0  0  0  0  0
  120.3623  103.1277  102.6953 N   0  0  0  0  0  0  0  0  0  0  0  0
  122.6897  106.1495  104.8004 N   0  0  0  0  0  0  0  0  0  0  0  0
  123.8642  107.1069  108.1116 O   0  0  0  0  0  0  0  0  0  0  0  0
  125.1732  108.0499  104.9213 O   0  0  0  0  0  0  0  0  0  0  0  0
  121.8974  106.8918  107.5879 H   0  0  0  0  0  0  0  0  0  0  0  0
  122.8847  105.4442  107.3477 H   0  0  0  0  0  0  0  0  0  0  0  0
  125.8626  107.2985  107.7060 H   0  0  0  0  0  0  0  0  0  0  0  0
  124.8779  108.7476  107.3734 H   0  0  0  0  0  0  0  0  0  0  0  0
  122.6924  108.0367  105.7026 H   0  0  0  0  0  0  0  0  0  0  0  0
  125.2020  106.1693  105.7275 H   0  0  0  0  0  0  0  0  0  0  0  0
  119.6420  105.6326  103.3534 H   0  0  0  0  0  0  0  0  0  0  0  0
  121.2020  105.7118  102.5330 H   0  0  0  0  0  0  0  0  0  0  0  0
  121.9754  103.6972  103.8348 H   0  0  0  0  0  0  0  0  0  0  0  0
  120.4130  103.6620  104.6673 H   0  0  0  0  0  0  0  0  0  0  0  0
  120.7659  106.1084  105.5315 H   0  0  0  0  0  0  0  0  0  0  0  0
  121.0962  107.3964  104.3621 H   0  0  0  0  0  0  0  0  0  0  0  0
  120.0656  102.1893  102.9131 H   0  0  0  0  0  0  0  0  0  0  0  0
  120.4645  103.4168  101.7350 H   0  0  0  0  0  0  0  0  0  0  0  0
  123.1933  106.3522  103.9394 H   0  0  0  0  0  0  0  0  0  0  0  0
  126.1231  108.1457  105.0897 H   0  0  0  0  0  0  0  0  0  0  0  0
  1  3  1  0  0  0  0
  1 10  1  0  0  0  0
  2  4  1  0  0  0  0
  2 10  1  0  0  0  0
  3  4  1  0  0  0  0
  3  9  1  0  0  0  0
  4 11  1  0  0  0  0
  5  6  1  0  0  0  0
  5  7  1  0  0  0  0
  6  8  1  0  0  0  0
  7  9  1  0  0  0  0
  1 12  1  0  0  0  0
  1 13  1  0  0  0  0
  2 14  1  0  0  0  0
  2 15  1  0  0  0  0
  3 16  1  0  0  0  0
  4 17  1  0  0  0  0
  5 18  1  0  0  0  0
  5 19  1  0  0  0  0
  6 20  1  0  0  0  0
  6 21  1  0  0  0  0
  7 22  1  0  0  0  0
  7 23  1  0  0  0  0
  8 24  1  0  0  0  0
  8 25  1  0  0  0  0
  9 26  1  0  0  0  0
 11 27  1  0  0  0  0
M  END
> <FRED Chemgauss4 score>
-5.023282

$$$$
C85353246	P133560523
  -OEChem-05182014473D

 24 25  0     1  0  0  0  0  0999 V2000
  122.3065  105.8423  105.9297 C   0  0  0  0  0  0  0  0  0  0  0  0
  120.7219  104.7693  105.0960 C   0  0  0  0  0  0  0  0  0  0  0  0
  124.6805  105.2629  106.8332 C   0  0  0  0  0  0  0  0  0  0  0  0
  125.3984  107.3938  107.4524 C   0  0  0  0  0  0  0  0  0  0  0  0
  123.4662  106.1912  106.8349 C   0  0  1  0  0  0  0  0  0  0  0  0
  124.1380  107.5503  106.6118 C   0  0  2  0  0  0  0  0  0  0  0  0
  119.6799  103.7975  104.7280 C   0  0  0  0  0  0  0  0  0  0  0  0
  121.6200  104.6679  106.0482 N   0  0  0  0  0  0  0  0  0  0  0  0
  121.8897  106.6641  104.9641 N   0  0  0  0  0  0  0  0  0  0  0  0
  120.8757  105.9543  104.4463 N   0  0  0  0  0  0  0  0  0  0  0  0
  124.5172  107.7819  105.2160 N   0  0  0  0  0  0  0  0  0  0  0  0
  125.7655  106.0062  107.4111 O   0  0  0  0  0  0  0  0  0  0  0  0
  124.5036  104.3986  107.4784 H   0  0  0  0  0  0  0  0  0  0  0  0
  124.9702  104.9083  105.8427 H   0  0  0  0  0  0  0  0  0  0  0  0
  126.2422  107.9676  107.0478 H   0  0  0  0  0  0  0  0  0  0  0  0
  125.2478  107.7026  108.4935 H   0  0  0  0  0  0  0  0  0  0  0  0
  123.0079  106.1907  107.9024 H   0  0  0  0  0  0  0  0  0  0  0  0
  123.5453  108.3265  106.9759 H   0  0  0  0  0  0  0  0  0  0  0  0
  118.7459  103.9787  105.2878 H   0  0  0  0  0  0  0  0  0  0  0  0
  119.4338  103.8359  103.6514 H   0  0  0  0  0  0  0  0  0  0  0  0
  119.9899  102.7559  104.9287 H   0  0  0  0  0  0  0  0  0  0  0  0
  120.3493  106.3370  103.6697 H   0  0  0  0  0  0  0  0  0  0  0  0
  125.3054  108.3689  105.0267 H   0  0  0  0  0  0  0  0  0  0  0  0
  123.8713  107.5225  104.4967 H   0  0  0  0  0  0  0  0  0  0  0  0
  1  5  1  0  0  0  0
  1  8  1  0  0  0  0
  1  9  2  0  0  0  0
  2  7  1  0  0  0  0
  2  8  2  0  0  0  0
  2 10  1  0  0  0  0
  3  5  1  0  0  0  0
  3 12  1  0  0  0  0
  4  6  1  0  0  0  0
  4 12  1  0  0  0  0
  5  6  1  0  0  0  0
  6 11  1  0  0  0  0
  9 10  1  0  0  0  0
  3 13  1  0  0  0  0
  3 14  1  0  0  0  0
  4 15  1  0  0  0  0
  4 16  1  0  0  0  0
  5 17  1  0  0  0  0
  6 18  1  0  0  0  0
  7 19  1  0  0  0  0
  7 20  1  0  0  0  0
  7 21  1  0  0  0  0
 10 22  1  0  0  0  0
 11 23  1  0  0  0  0
 11 24  1  0  0  0  0
M  END
> <FRED Chemgauss4 score>
-5.013504

$$$$
C44469494	P67171936
  -OEChem-05182014473D

 22 22  0     1  0  0  0  0  0999 V2000
  124.5455  104.5298  106.2804 C   0  0  0  0  0  0  0  0  0  0  0  0
  125.4421  103.8273  108.0785 C   0  0  0  0  0  0  0  0  0  0  0  0
  125.1077  105.6384  106.8682 C   0  0  0  0  0  0  0  0  0  0  0  0
  126.4004  105.9446  109.0025 C   0  0  0  0  0  0  0  0  0  0  0  0
  124.4215  107.3585  105.1137 C   0  0  0  0  0  0  0  0  0  0  0  0
  125.1531  107.0946  106.4391 C   0  0  2  0  0  0  0  0  0  0  0  0
  124.7569  103.4057  107.0389 N   0  0  0  0  0  0  0  0  0  0  0  0
  125.6779  105.1727  108.0193 N   0  0  0  0  0  0  0  0  0  0  0  0
  123.0202  107.0385  105.1957 N   0  0  0  0  0  0  0  0  0  0  0  0
  126.5398  107.5676  106.3488 N   0  0  0  0  0  0  0  0  0  0  0  0
  123.9988  104.4813  105.3496 H   0  0  0  0  0  0  0  0  0  0  0  0
  125.7908  103.2118  108.8965 H   0  0  0  0  0  0  0  0  0  0  0  0
  127.4565  105.9469  108.7200 H   0  0  0  0  0  0  0  0  0  0  0  0
  126.0083  106.9652  109.0242 H   0  0  0  0  0  0  0  0  0  0  0  0
  126.2681  105.4892  109.9879 H   0  0  0  0  0  0  0  0  0  0  0  0
  124.4810  108.4195  104.8456 H   0  0  0  0  0  0  0  0  0  0  0  0
  124.8403  106.7825  104.2817 H   0  0  0  0  0  0  0  0  0  0  0  0
  124.6643  107.6977  107.2155 H   0  0  0  0  0  0  0  0  0  0  0  0
  122.5193  106.8126  104.3521 H   0  0  0  0  0  0  0  0  0  0  0  0
  122.5208  107.2407  106.0463 H   0  0  0  0  0  0  0  0  0  0  0  0
  127.1957  107.2008  106.9986 H   0  0  0  0  0  0  0  0  0  0  0  0
  126.7184  108.3695  105.7902 H   0  0  0  0  0  0  0  0  0  0  0  0
  1  3  2  0  0  0  0
  1  7  1  0  0  0  0
  2  7  2  0  0  0  0
  2  8  1  0  0  0  0
  3  6  1  0  0  0  0
  3  8  1  0  0  0  0
  4  8  1  0  0  0  0
  5  6  1  0  0  0  0
  5  9  1  0  0  0  0
  6 10  1  0  0  0  0
  1 11  1  0  0  0  0
  2 12  1  0  0  0  0
  4 13  1  0  0  0  0
  4 14  1  0  0  0  0
  4 15  1  0  0  0  0
  5 16  1  0  0  0  0
  5 17  1  0  0  0  0
  6 18  1  0  0  0  0
  9 19  1  0  0  0  0
  9 20  1  0  0  0  0
 10 21  1  0  0  0  0
 10 22  1  0  0  0  0
M  END
> <FRED Chemgauss4 score>
-5.010888

$$$$
C88001858	P137647862
  -OEChem-05182014473D

 23 23  0     1  0  0  0  0  0999 V2000
  121.5262  104.7871  105.7244 C   0  0  0  0  0  0  0  0  0  0  0  0
  123.2102  106.1549  105.6767 C   0  0  0  0  0  0  0  0  0  0  0  0
  123.5888  103.9847  106.8963 C   0  0  0  0  0  0  0  0  0  0  0  0
  126.1907  106.2646  108.4504 C   0  0  0  0  0  0  0  0  0  0  0  0
  124.6755  107.5516  107.1973 C   0  0  0  0  0  0  0  0  0  0  0  0
  124.5935  106.7215  105.9135 C   0  0  2  0  0  0  0  0  0  0  0  0
  121.1506  105.8523  105.0530 N   0  0  0  0  0  0  0  0  0  0  0  0
  122.2220  106.7225  105.0227 N   0  0  0  0  0  0  0  0  0  0  0  0
  122.8160  104.9348  106.1358 N   0  0  0  0  0  0  0  0  0  0  0  0
  125.0312  107.5085  104.7804 N   0  0  0  0  0  0  0  0  0  0  0  0
  124.8396  106.6790  108.3105 O   0  0  0  0  0  0  0  0  0  0  0  0
  120.9266  103.9127  105.9337 H   0  0  0  0  0  0  0  0  0  0  0  0
  124.1014  103.3253  106.1910 H   0  0  0  0  0  0  0  0  0  0  0  0
  124.3140  104.5187  107.5166 H   0  0  0  0  0  0  0  0  0  0  0  0
  122.9199  103.4094  107.5423 H   0  0  0  0  0  0  0  0  0  0  0  0
  126.2809  105.5979  109.3116 H   0  0  0  0  0  0  0  0  0  0  0  0
  126.8294  107.1410  108.5862 H   0  0  0  0  0  0  0  0  0  0  0  0
  126.4945  105.7314  107.5464 H   0  0  0  0  0  0  0  0  0  0  0  0
  125.5397  108.2245  107.1737 H   0  0  0  0  0  0  0  0  0  0  0  0
  123.7707  108.1479  107.3583 H   0  0  0  0  0  0  0  0  0  0  0  0
  125.3172  105.8997  105.9849 H   0  0  0  0  0  0  0  0  0  0  0  0
  124.7572  107.2210  103.8592 H   0  0  0  0  0  0  0  0  0  0  0  0
  125.7538  108.1907  104.9176 H   0  0  0  0  0  0  0  0  0  0  0  0
  1  7  2  0  0  0  0
  1  9  1  0  0  0  0
  2  6  1  0  0  0  0
  2  8  2  0  0  0  0
  2  9  1  0  0  0  0
  3  9  1  0  0  0  0
  4 11  1  0  0  0  0
  5  6  1  0  0  0  0
  5 11  1  0  0  0  0
  6 10  1  0  0  0  0
  7  8  1  0  0  0  0
  1 12  1  0  0  0  0
  3 13  1  0  0  0  0
  3 14  1  0  0  0  0
  3 15  1  0  0  0  0
  4 16  1  0  0  0  0
  4 17  1  0  0  0  0
  4 18  1  0  0  0  0
  5 19  1  0  0  0  0
  5 20  1  0  0  0  0
  6 21  1  0  0  0  0
 10 22  1  0  0  0  0
 10 23  1  0  0  0  0
M  END
> <FRED Chemgauss4 score>
-5.010675

$$$$
C74309835	P115824025
  -OEChem-05182014473D

 20 20  0     1  0  0  0  0  0999 V2000
  123.1497  108.1673  108.3178 C   0  0  0  0  0  0  0  0  0  0  0  0
  122.8781  107.7893  109.6229 C   0  0  0  0  0  0  0  0  0  0  0  0
  123.3639  105.5877  109.1810 C   0  0  0  0  0  0  0  0  0  0  0  0
  123.5465  107.1794  107.4234 C   0  0  0  0  0  0  0  0  0  0  0  0
  123.6580  105.8625  107.8552 C   0  0  0  0  0  0  0  0  0  0  0  0
  125.2840  107.2423  105.5842 C   0  0  0  0  0  0  0  0  0  0  0  0
  123.8431  107.5703  106.0123 C   0  0  1  0  0  0  0  0  0  0  0  0
  122.9753  106.5205  110.0792 N   0  0  0  0  0  0  0  0  0  0  0  0
  122.9016  106.9660  105.0829 N   0  0  0  0  0  0  0  0  0  0  0  0
  125.6538  108.0486  104.4703 O   0  0  0  0  0  0  0  0  0  0  0  0
  124.1429  104.5895  106.8057 Cl  0  0  0  0  0  0  0  0  0  0  0  0
  123.0529  109.2038  108.0132 H   0  0  0  0  0  0  0  0  0  0  0  0
  122.5650  108.5219  110.3595 H   0  0  0  0  0  0  0  0  0  0  0  0
  123.4315  104.5803  109.5809 H   0  0  0  0  0  0  0  0  0  0  0  0
  125.9844  107.4604  106.3979 H   0  0  0  0  0  0  0  0  0  0  0  0
  125.3940  106.1904  105.2989 H   0  0  0  0  0  0  0  0  0  0  0  0
  123.6950  108.6557  105.8747 H   0  0  0  0  0  0  0  0  0  0  0  0
  123.1757  106.8666  104.1266 H   0  0  0  0  0  0  0  0  0  0  0  0
  121.9510  106.8576  105.3732 H   0  0  0  0  0  0  0  0  0  0  0  0
  126.5643  107.8045  104.2412 H   0  0  0  0  0  0  0  0  0  0  0  0
  1  2  1  0  0  0  0
  1  4  2  0  0  0  0
  2  8  2  0  0  0  0
  3  5  2  0  0  0  0
  3  8  1  0  0  0  0
  4  5  1  0  0  0  0
  4  7  1  0  0  0  0
  5 11  1  0  0  0  0
  6  7  1  0  0  0  0
  6 10  1  0  0  0  0
  7  9  1  0  0  0  0
  1 12  1  0  0  0  0
  2 13  1  0  0  0  0
  3 14  1  0  0  0  0
  6 15  1  0  0  0  0
  6 16  1  0  0  0  0
  7 17  1  0  0  0  0
  9 18  1  0  0  0  0
  9 19  1  0  0  0  0
 10 20  1  0  0  0  0
M  END
> <FRED Chemgauss4 score>
-4.987138

$$$$
C70438307	P108611322
  -OEChem-05182014473D

 36 37  0     1  0  0  0  0  0999 V2000
  121.9351  105.8892  105.7062 C   0  0  0  0  0  0  0  0  0  0  0  0
  125.3464  105.7081  106.9406 C   0  0  0  0  0  0  0  0  0  0  0  0
  120.1292  105.5495  103.0871 C   0  0  0  0  0  0  0  0  0  0  0  0
  121.1423  104.5841  103.6887 C   0  0  0  0  0  0  0  0  0  0  0  0
  120.7387  104.5693  108.6302 C   0  0  0  0  0  0  0  0  0  0  0  0
  122.0264  104.7350  109.3809 C   0  0  0  0  0  0  0  0  0  0  0  0
  118.8370  105.3535  103.8595 C   0  0  0  0  0  0  0  0  0  0  0  0
  121.0986  104.7582  105.2065 C   0  0  2  0  0  0  0  0  0  0  0  0
  122.0413  104.6302  107.8804 C   0  0  0  0  0  0  0  0  0  0  0  0
  124.5392  106.2542  108.1120 C   0  0  0  0  0  0  0  0  0  0  0  0
  123.1935  106.7979  107.6515 C   0  0  0  0  0  0  0  0  0  0  0  0
  126.0853  106.5640  106.2984 N   0  0  0  0  0  0  0  0  0  0  0  0
  125.1979  104.3670  106.6744 N   0  0  0  0  0  0  0  0  0  0  0  0
  122.3804  105.7830  107.0384 N   0  0  0  0  0  0  0  0  0  0  0  0
  122.1866  106.8315  104.9504 O   0  0  0  0  0  0  0  0  0  0  0  0
  125.9525  107.8347  106.8658 O   0  0  0  0  0  0  0  0  0  0  0  0
  119.3486  105.0986  105.5813 S   0  0  0  0  0  0  0  0  0  0  0  0
  120.4760  106.5858  103.1556 H   0  0  0  0  0  0  0  0  0  0  0  0
  119.9784  105.3253  102.0232 H   0  0  0  0  0  0  0  0  0  0  0  0
  120.9067  103.5428  103.4143 H   0  0  0  0  0  0  0  0  0  0  0  0
  122.1497  104.7810  103.2801 H   0  0  0  0  0  0  0  0  0  0  0  0
  120.2307  103.6156  108.7062 H   0  0  0  0  0  0  0  0  0  0  0  0
  120.0788  105.4256  108.5648 H   0  0  0  0  0  0  0  0  0  0  0  0
  122.2335  105.7028  109.8206 H   0  0  0  0  0  0  0  0  0  0  0  0
  122.3829  103.8926  109.9608 H   0  0  0  0  0  0  0  0  0  0  0  0
  118.2079  106.2483  103.8082 H   0  0  0  0  0  0  0  0  0  0  0  0
  118.2636  104.4994  103.4879 H   0  0  0  0  0  0  0  0  0  0  0  0
  121.4025  103.8338  105.7285 H   0  0  0  0  0  0  0  0  0  0  0  0
  122.4050  103.6980  107.4617 H   0  0  0  0  0  0  0  0  0  0  0  0
  124.4069  105.4675  108.8638 H   0  0  0  0  0  0  0  0  0  0  0  0
  125.1178  107.0614  108.5766 H   0  0  0  0  0  0  0  0  0  0  0  0
  122.6309  107.1844  108.5069 H   0  0  0  0  0  0  0  0  0  0  0  0
  123.3130  107.6062  106.9231 H   0  0  0  0  0  0  0  0  0  0  0  0
  124.5820  103.7758  107.2225 H   0  0  0  0  0  0  0  0  0  0  0  0
  125.6973  103.9294  105.9076 H   0  0  0  0  0  0  0  0  0  0  0  0
  126.5434  108.3626  106.3026 H   0  0  0  0  0  0  0  0  0  0  0  0
  1  8  1  0  0  0  0
  1 14  1  0  0  0  0
  1 15  2  0  0  0  0
  2 10  1  0  0  0  0
  2 12  2  0  0  0  0
  2 13  1  0  0  0  0
  3  4  1  0  0  0  0
  3  7  1  0  0  0  0
  4  8  1  0  0  0  0
  5  6  1  0  0  0  0
  5  9  1  0  0  0  0
  6  9  1  0  0  0  0
  7 17  1  0  0  0  0
  8 17  1  0  0  0  0
  9 14  1  0  0  0  0
 10 11  1  0  0  0  0
 11 14  1  0  0  0  0
 12 16  1  0  0  0  0
  3 18  1  0  0  0  0
  3 19  1  0  0  0  0
  4 20  1  0  0  0  0
  4 21  1  0  0  0  0
  5 22  1  0  0  0  0
  5 23  1  0  0  0  0
  6 24  1  0  0  0  0
  6 25  1  0  0  0  0
  7 26  1  0  0  0  0
  7 27  1  0  0  0  0
  8 28  1  0  0  0  0
  9 29  1  0  0  0  0
 10 30  1  0  0  0  0
 10 31  1  0  0  0  0
 11 32  1  0  0  0  0
 11 33  1  0  0  0  0
 13 34  1  0  0  0  0
 13 35  1  0  0  0  0
 16 36  1  0  0  0  0
M  END
> <FRED Chemgauss4 score>
-4.983659

$$$$
C87518688	P136898546
  -OEChem-05182014473D

 35 36  0     1  0  0  0  0  0999 V2000
  120.9257  105.4282  103.8342 C   0  0  0  0  0  0  0  0  0  0  0  0
  121.2076  105.6185  105.9836 C   0  0  0  0  0  0  0  0  0  0  0  0
  123.7996  107.8953  108.2254 C   0  0  0  0  0  0  0  0  0  0  0  0
  124.8702  106.9975  108.8383 C   0  0  0  0  0  0  0  0  0  0  0  0
  124.5191  106.4363  106.4440 C   0  0  2  0  0  0  0  0  0  0  0  0
  123.2620  107.1113  107.0318 C   0  0  1  0  0  0  0  0  0  0  0  0
  125.4513  106.1544  107.6744 C   0  0  0  0  0  0  0  0  0  0  0  0
  125.4118  104.6567  108.0411 C   0  0  0  0  0  0  0  0  0  0  0  0
  126.9312  106.5168  107.4428 C   0  0  0  0  0  0  0  0  0  0  0  0
  120.1871  105.4390  101.4382 C   0  0  0  0  0  0  0  0  0  0  0  0
  121.3595  105.4554  102.4267 C   0  0  0  0  0  0  0  0  0  0  0  0
  121.8406  105.7099  104.8347 N   0  0  0  0  0  0  0  0  0  0  0  0
  119.6597  105.1347  104.1300 N   0  0  0  0  0  0  0  0  0  0  0  0
  125.1224  107.3541  105.4674 N   0  0  0  0  0  0  0  0  0  0  0  0
  119.5532  105.2018  105.7988 S   0  0  0  0  0  0  0  0  0  0  0  0
  121.9922  105.8985  107.5403 S   0  0  0  0  0  0  0  0  0  0  0  0
  123.0476  108.1520  108.9751 H   0  0  0  0  0  0  0  0  0  0  0  0
  124.2499  108.8307  107.8804 H   0  0  0  0  0  0  0  0  0  0  0  0
  125.6401  107.5771  109.3639 H   0  0  0  0  0  0  0  0  0  0  0  0
  124.4019  106.3381  109.5839 H   0  0  0  0  0  0  0  0  0  0  0  0
  124.2731  105.5243  105.9479 H   0  0  0  0  0  0  0  0  0  0  0  0
  122.8043  107.7875  106.3197 H   0  0  0  0  0  0  0  0  0  0  0  0
  125.8204  104.0711  107.2217 H   0  0  0  0  0  0  0  0  0  0  0  0
  124.3840  104.3543  108.2237 H   0  0  0  0  0  0  0  0  0  0  0  0
  126.0033  104.4862  108.9369 H   0  0  0  0  0  0  0  0  0  0  0  0
  127.3197  105.9183  106.6267 H   0  0  0  0  0  0  0  0  0  0  0  0
  127.4923  106.3129  108.3477 H   0  0  0  0  0  0  0  0  0  0  0  0
  127.0042  107.5694  107.1941 H   0  0  0  0  0  0  0  0  0  0  0  0
  119.5454  104.5687  101.6131 H   0  0  0  0  0  0  0  0  0  0  0  0
  120.5391  105.3980  100.4027 H   0  0  0  0  0  0  0  0  0  0  0  0
  119.5721  106.3381  101.5522 H   0  0  0  0  0  0  0  0  0  0  0  0
  121.9795  106.3492  102.2139 H   0  0  0  0  0  0  0  0  0  0  0  0
  122.0217  104.5977  102.1931 H   0  0  0  0  0  0  0  0  0  0  0  0
  124.5141  107.8952  104.8894 H   0  0  0  0  0  0  0  0  0  0  0  0
  126.0970  107.2607  105.2709 H   0  0  0  0  0  0  0  0  0  0  0  0
  1 11  1  0  0  0  0
  1 12  1  0  0  0  0
  1 13  2  0  0  0  0
  2 12  2  0  0  0  0
  2 15  1  0  0  0  0
  2 16  1  0  0  0  0
  3  4  1  0  0  0  0
  3  6  1  0  0  0  0
  4  7  1  0  0  0  0
  5  6  1  0  0  0  0
  5  7  1  0  0  0  0
  5 14  1  0  0  0  0
  6 16  1  0  0  0  0
  7  8  1  0  0  0  0
  7  9  1  0  0  0  0
 10 11  1  0  0  0  0
 13 15  1  0  0  0  0
  3 17  1  0  0  0  0
  3 18  1  0  0  0  0
  4 19  1  0  0  0  0
  4 20  1  0  0  0  0
  5 21  1  0  0  0  0
  6 22  1  0  0  0  0
  8 23  1  0  0  0  0
  8 24  1  0  0  0  0
  8 25  1  0  0  0  0
  9 26  1  0  0  0  0
  9 27  1  0  0  0  0
  9 28  1  0  0  0  0
 10 29  1  0  0  0  0
 10 30  1  0  0  0  0
 10 31  1  0  0  0  0
 11 32  1  0  0  0  0
 11 33  1  0  0  0  0
 14 34  1  0  0  0  0
 14 35  1  0  0  0  0
M  END
> <FRED Chemgauss4 score>
-4.981822

$$$$
C38433750	P58145099
  -OEChem-05182014473D

 22 22  0     1  0  0  0  0  0999 V2000
  125.7226  107.2539  107.7208 C   0  0  0  0  0  0  0  0  0  0  0  0
  123.4652  108.0616  107.3817 C   0  0  0  0  0  0  0  0  0  0  0  0
  125.5372  106.0924  106.7233 C   0  0  2  0  0  0  0  0  0  0  0  0
  123.1670  106.9368  106.3882 C   0  0  2  0  0  0  0  0  0  0  0  0
  124.4376  106.4257  105.6975 C   0  0  1  0  0  0  0  0  0  0  0  0
  125.2391  104.7790  107.4540 C   0  0  0  0  0  0  0  0  0  0  0  0
  124.4688  107.6531  108.3636 N   0  0  0  0  0  0  0  0  0  0  0  0
  122.2459  107.3909  105.4014 O   0  0  0  0  0  0  0  0  0  0  0  0
  124.9323  107.4076  104.7819 O   0  0  0  0  0  0  0  0  0  0  0  0
  124.1130  104.9529  108.1832 F   0  0  0  0  0  0  0  0  0  0  0  0
  126.4628  106.9846  108.4886 H   0  0  0  0  0  0  0  0  0  0  0  0
  126.1294  108.1244  107.1885 H   0  0  0  0  0  0  0  0  0  0  0  0
  123.8559  108.9307  106.8414 H   0  0  0  0  0  0  0  0  0  0  0  0
  122.5457  108.3719  107.8913 H   0  0  0  0  0  0  0  0  0  0  0  0
  126.4896  105.9359  106.1781 H   0  0  0  0  0  0  0  0  0  0  0  0
  122.6712  106.0967  106.9071 H   0  0  0  0  0  0  0  0  0  0  0  0
  124.2012  105.5268  105.1144 H   0  0  0  0  0  0  0  0  0  0  0  0
  126.0574  104.5254  108.1218 H   0  0  0  0  0  0  0  0  0  0  0  0
  125.0766  103.9785  106.7378 H   0  0  0  0  0  0  0  0  0  0  0  0
  124.1084  106.8723  108.9100 H   0  0  0  0  0  0  0  0  0  0  0  0
  121.4429  107.6513  105.8768 H   0  0  0  0  0  0  0  0  0  0  0  0
  125.7067  107.0169  104.3474 H   0  0  0  0  0  0  0  0  0  0  0  0
  1  3  1  0  0  0  0
  1  7  1  0  0  0  0
  2  4  1  0  0  0  0
  2  7  1  0  0  0  0
  3  5  1  0  0  0  0
  3  6  1  0  0  0  0
  4  5  1  0  0  0  0
  4  8  1  0  0  0  0
  5  9  1  0  0  0  0
  6 10  1  0  0  0  0
  1 11  1  0  0  0  0
  1 12  1  0  0  0  0
  2 13  1  0  0  0  0
  2 14  1  0  0  0  0
  3 15  1  0  0  0  0
  4 16  1  0  0  0  0
  5 17  1  0  0  0  0
  6 18  1  0  0  0  0
  6 19  1  0  0  0  0
  7 20  1  0  0  0  0
  8 21  1  0  0  0  0
  9 22  1  0  0  0  0
M  END
> <FRED Chemgauss4 score>
-4.979681

$$$$
C39088413	P59218791
  -OEChem-05182014473D

 21 21  0     1  0  0  0  0  0999 V2000
  123.9004  104.9712  109.0413 C   0  0  0  0  0  0  0  0  0  0  0  0
  125.3686  105.9514  107.2614 C   0  0  1  0  0  0  0  0  0  0  0  0
  124.9235  106.0532  108.7172 C   0  0  2  0  0  0  0  0  0  0  0  0
  124.1573  105.8300  106.3176 C   0  0  2  0  0  0  0  0  0  0  0  0
  123.3840  107.1399  106.1147 C   0  0  0  0  0  0  0  0  0  0  0  0
  122.7836  105.0124  108.0957 N   0  0  0  0  0  0  0  0  0  0  0  0
  123.2697  104.7419  106.7609 N   0  0  0  0  0  0  0  0  0  0  0  0
  126.1503  107.0974  106.9425 O   0  0  0  0  0  0  0  0  0  0  0  0
  122.3153  106.8875  105.2259 O   0  0  0  0  0  0  0  0  0  0  0  0
  126.0123  105.8665  109.5153 F   0  0  0  0  0  0  0  0  0  0  0  0
  124.3761  103.9821  109.0451 H   0  0  0  0  0  0  0  0  0  0  0  0
  123.5233  105.1302  110.0577 H   0  0  0  0  0  0  0  0  0  0  0  0
  126.0199  105.0761  107.1499 H   0  0  0  0  0  0  0  0  0  0  0  0
  124.5319  107.0517  108.9427 H   0  0  0  0  0  0  0  0  0  0  0  0
  124.5413  105.5509  105.3303 H   0  0  0  0  0  0  0  0  0  0  0  0
  124.0462  107.8889  105.6889 H   0  0  0  0  0  0  0  0  0  0  0  0
  122.9942  107.4820  107.0696 H   0  0  0  0  0  0  0  0  0  0  0  0
  122.1125  104.2868  108.3463 H   0  0  0  0  0  0  0  0  0  0  0  0
  122.4690  104.6850  106.1320 H   0  0  0  0  0  0  0  0  0  0  0  0
  126.4168  107.0030  106.0143 H   0  0  0  0  0  0  0  0  0  0  0  0
  121.8347  107.7256  105.1069 H   0  0  0  0  0  0  0  0  0  0  0  0
  1  3  1  0  0  0  0
  1  6  1  0  0  0  0
  2  3  1  0  0  0  0
  2  4  1  0  0  0  0
  2  8  1  0  0  0  0
  3 10  1  0  0  0  0
  4  5  1  0  0  0  0
  4  7  1  0  0  0  0
  5  9  1  0  0  0  0
  6  7  1  0  0  0  0
  1 11  1  0  0  0  0
  1 12  1  0  0  0  0
  2 13  1  0  0  0  0
  3 14  1  0  0  0  0
  4 15  1  0  0  0  0
  5 16  1  0  0  0  0
  5 17  1  0  0  0  0
  6 18  1  0  0  0  0
  7 19  1  0  0  0  0
  8 20  1  0  0  0  0
  9 21  1  0  0  0  0
M  END
> <FRED Chemgauss4 score>
-4.977796

$$$$
C39059495	P151021494
  -OEChem-05182014473D

 18 19  0     1  0  0  0  0  0999 V2000
  125.7719  105.8591  107.5733 C   0  0  0  0  0  0  0  0  0  0  0  0
  124.5371  107.2657  105.8836 C   0  0  0  0  0  0  0  0  0  0  0  0
  122.3816  106.5629  105.4484 C   0  0  0  0  0  0  0  0  0  0  0  0
  124.4847  106.5379  107.2197 C   0  0  1  0  0  0  0  0  0  0  0  0
  123.5705  105.3145  107.2227 C   0  0  1  0  0  0  0  0  0  0  0  0
  125.7821  104.5750  107.4439 N   0  0  0  0  0  0  0  0  0  0  0  0
  123.3518  107.3974  105.1917 N   0  0  0  0  0  0  0  0  0  0  0  0
  122.4221  105.5515  106.3806 N   0  0  0  0  0  0  0  0  0  0  0  0
  124.5527  104.2476  106.9807 N   0  0  0  0  0  0  0  0  0  0  0  0
  121.1817  106.6275  104.7844 N   0  0  0  0  0  0  0  0  0  0  0  0
  125.5886  107.7669  105.4880 O   0  0  0  0  0  0  0  0  0  0  0  0
  126.6412  106.4433  107.9078 H   0  0  0  0  0  0  0  0  0  0  0  0
  124.2163  107.2555  108.0017 H   0  0  0  0  0  0  0  0  0  0  0  0
  123.1962  105.1718  108.2455 H   0  0  0  0  0  0  0  0  0  0  0  0
  121.6388  104.9109  106.4655 H   0  0  0  0  0  0  0  0  0  0  0  0
  124.2443  103.3484  107.3438 H   0  0  0  0  0  0  0  0  0  0  0  0
  121.0650  107.3320  104.0950 H   0  0  0  0  0  0  0  0  0  0  0  0
  120.4792  105.9671  105.0205 H   0  0  0  0  0  0  0  0  0  0  0  0
  1  4  1  0  0  0  0
  1  6  2  0  0  0  0
  2  4  1  0  0  0  0
  2  7  1  0  0  0  0
  2 11  2  0  0  0  0
  3  7  2  0  0  0  0
  3  8  1  0  0  0  0
  3 10  1  0  0  0  0
  4  5  1  0  0  0  0
  5  8  1  0  0  0  0
  5  9  1  0  0  0  0
  6  9  1  0  0  0  0
  1 12  1  0  0  0  0
  4 13  1  0  0  0  0
  5 14  1  0  0  0  0
  8 15  1  0  0  0  0
  9 16  1  0  0  0  0
 10 17  1  0  0  0  0
 10 18  1  0  0  0  0
M  END
> <FRED Chemgauss4 score>
-4.954663

$$$$
C77257676	P120527372
  -OEChem-05182014473D

 62 63  0     1  0  0  0  0  0999 V2000
  119.6705  104.4346  103.4019 C   0  0  0  0  0  0  0  0  0  0  0  0
  121.1095  104.4237  103.8990 C   0  0  0  0  0  0  0  0  0  0  0  0
  121.0837  106.3728  107.1777 C   0  0  0  0  0  0  0  0  0  0  0  0
  120.4905  106.1391  105.7632 C   0  0  1  0  0  0  0  0  0  0  0  0
  118.6673  105.1924  104.2799 C   0  0  2  0  0  0  0  0  0  0  0  0
  122.3714  107.1892  107.1265 C   0  0  1  0  0  0  0  0  0  0  0  0
  123.4755  106.4932  106.3171 C   0  0  1  0  0  0  0  0  0  0  0  0
  121.5782  105.6737  104.6945 C   0  0  1  0  0  0  0  0  0  0  0  0
  119.1247  105.3402  105.7668 C   0  0  1  0  0  0  0  0  0  0  0  0
  122.9710  105.3574  105.3850 C   0  0  1  0  0  0  0  0  0  0  0  0
  117.2707  104.5884  104.0674 C   0  0  0  0  0  0  0  0  0  0  0  0
  121.7402  106.8187  103.6531 C   0  0  0  0  0  0  0  0  0  0  0  0
  119.2185  103.9853  106.4994 C   0  0  0  0  0  0  0  0  0  0  0  0
  124.0824  104.9507  104.3958 C   0  0  0  0  0  0  0  0  0  0  0  0
  116.7048  109.7804  105.9506 C   0  0  0  0  0  0  0  0  0  0  0  0
  118.0577  106.1697  106.5358 C   0  0  0  0  0  0  0  0  0  0  0  0
  117.8844  107.5264  105.8794 C   0  0  0  0  0  0  0  0  0  0  0  0
  115.4996  107.6594  106.6610 C   0  0  0  0  0  0  0  0  0  0  0  0
  114.4365  108.3516  107.5065 C   0  0  0  0  0  0  0  0  0  0  0  0
  116.8478  108.4064  106.6120 C   0  0  2  0  0  0  0  0  0  0  0  0
  122.0562  108.4753  106.5930 O   0  0  0  0  0  0  0  0  0  0  0  0
  124.2504  107.4525  105.6041 O   0  0  0  0  0  0  0  0  0  0  0  0
  122.7675  104.1985  106.2247 O   0  0  0  0  0  0  0  0  0  0  0  0
  114.9054  108.4370  108.8468 O   0  0  0  0  0  0  0  0  0  0  0  0
  119.6773  104.8960  102.3822 H   0  0  0  0  0  0  0  0  0  0  0  0
  119.2998  103.4013  103.1987 H   0  0  0  0  0  0  0  0  0  0  0  0
  121.2742  103.5043  104.4752 H   0  0  0  0  0  0  0  0  0  0  0  0
  121.7462  104.3015  103.0072 H   0  0  0  0  0  0  0  0  0  0  0  0
  120.3561  106.9028  107.7843 H   0  0  0  0  0  0  0  0  0  0  0  0
  121.2677  105.4449  107.6990 H   0  0  0  0  0  0  0  0  0  0  0  0
  120.1780  107.1235  105.4209 H   0  0  0  0  0  0  0  0  0  0  0  0
  118.6004  106.2245  103.8602 H   0  0  0  0  0  0  0  0  0  0  0  0
  122.7397  107.3677  108.1474 H   0  0  0  0  0  0  0  0  0  0  0  0
  124.1892  106.0529  107.0658 H   0  0  0  0  0  0  0  0  0  0  0  0
  117.2551  103.5741  104.4538 H   0  0  0  0  0  0  0  0  0  0  0  0
  117.0417  104.5774  103.0063 H   0  0  0  0  0  0  0  0  0  0  0  0
  116.5354  105.1898  104.5927 H   0  0  0  0  0  0  0  0  0  0  0  0
  122.0653  107.7003  104.1783 H   0  0  0  0  0  0  0  0  0  0  0  0
  120.7837  106.9790  103.1861 H   0  0  0  0  0  0  0  0  0  0  0  0
  122.4748  106.5074  102.9305 H   0  0  0  0  0  0  0  0  0  0  0  0
  118.2525  103.4943  106.4634 H   0  0  0  0  0  0  0  0  0  0  0  0
  119.5046  104.1582  107.5307 H   0  0  0  0  0  0  0  0  0  0  0  0
  119.9631  103.3677  106.0100 H   0  0  0  0  0  0  0  0  0  0  0  0
  123.7101  104.1598  103.7575 H   0  0  0  0  0  0  0  0  0  0  0  0
  124.9398  104.6026  104.9571 H   0  0  0  0  0  0  0  0  0  0  0  0
  124.3530  105.8129  103.8001 H   0  0  0  0  0  0  0  0  0  0  0  0
  116.3607  109.6864  104.9153 H   0  0  0  0  0  0  0  0  0  0  0  0
  115.9919  110.4112  106.4896 H   0  0  0  0  0  0  0  0  0  0  0  0
  117.6545  110.3233  105.9454 H   0  0  0  0  0  0  0  0  0  0  0  0
  117.1369  105.5983  106.5209 H   0  0  0  0  0  0  0  0  0  0  0  0
  118.4100  106.2513  107.5567 H   0  0  0  0  0  0  0  0  0  0  0  0
  117.5571  107.3858  104.8410 H   0  0  0  0  0  0  0  0  0  0  0  0
  118.8487  108.0487  105.8358 H   0  0  0  0  0  0  0  0  0  0  0  0
  115.1111  107.5086  105.6452 H   0  0  0  0  0  0  0  0  0  0  0  0
  115.6541  106.6499  107.0650 H   0  0  0  0  0  0  0  0  0  0  0  0
  113.4991  107.7888  107.5132 H   0  0  0  0  0  0  0  0  0  0  0  0
  114.2458  109.3655  107.1409 H   0  0  0  0  0  0  0  0  0  0  0  0
  117.1935  108.5571  107.6430 H   0  0  0  0  0  0  0  0  0  0  0  0
  121.4066  108.8690  107.1945 H   0  0  0  0  0  0  0  0  0  0  0  0
  124.6386  108.0435  106.2680 H   0  0  0  0  0  0  0  0  0  0  0  0
  123.6280  103.9981  106.6192 H   0  0  0  0  0  0  0  0  0  0  0  0
  114.2096  108.8804  109.3579 H   0  0  0  0  0  0  0  0  0  0  0  0
  1  2  1  0  0  0  0
  1  5  1  0  0  0  0
  2  8  1  0  0  0  0
  3  4  1  0  0  0  0
  3  6  1  0  0  0  0
  4  8  1  0  0  0  0
  4  9  1  0  0  0  0
  5  9  1  0  0  0  0
  5 11  1  0  0  0  0
  6  7  1  0  0  0  0
  6 21  1  0  0  0  0
  7 10  1  0  0  0  0
  7 22  1  0  0  0  0
  8 10  1  0  0  0  0
  8 12  1  0  0  0  0
  9 13  1  0  0  0  0
  9 16  1  0  0  0  0
 10 14  1  0  0  0  0
 10 23  1  0  0  0  0
 15 20  1  0  0  0  0
 16 17  1  0  0  0  0
 17 20  1  0  0  0  0
 18 19  1  0  0  0  0
 18 20  1  0  0  0  0
 19 24  1  0  0  0  0
  1 25  1  0  0  0  0
  1 26  1  0  0  0  0
  2 27  1  0  0  0  0
  2 28  1  0  0  0  0
  3 29  1  0  0  0  0
  3 30  1  0  0  0  0
  4 31  1  0  0  0  0
  5 32  1  0  0  0  0
  6 33  1  0  0  0  0
  7 34  1  0  0  0  0
 11 35  1  0  0  0  0
 11 36  1  0  0  0  0
 11 37  1  0  0  0  0
 12 38  1  0  0  0  0
 12 39  1  0  0  0  0
 12 40  1  0  0  0  0
 13 41  1  0  0  0  0
 13 42  1  0  0  0  0
 13 43  1  0  0  0  0
 14 44  1  0  0  0  0
 14 45  1  0  0  0  0
 14 46  1  0  0  0  0
 15 47  1  0  0  0  0
 15 48  1  0  0  0  0
 15 49  1  0  0  0  0
 16 50  1  0  0  0  0
 16 51  1  0  0  0  0
 17 52  1  0  0  0  0
 17 53  1  0  0  0  0
 18 54  1  0  0  0  0
 18 55  1  0  0  0  0
 19 56  1  0  0  0  0
 19 57  1  0  0  0  0
 20 58  1  0  0  0  0
 21 59  1  0  0  0  0
 22 60  1  0  0  0  0
 23 61  1  0  0  0  0
 24 62  1  0  0  0  0
M  END
> <FRED Chemgauss4 score>
-4.953794

$$$$
C44549370	P67231226
  -OEChem-05182014473D

 18 18  0     0  0  0  0  0  0999 V2000
  125.8538  105.5683  107.4737 C   0  0  0  0  0  0  0  0  0  0  0  0
  121.6820  104.6129  106.1370 C   0  0  0  0  0  0  0  0  0  0  0  0
  122.7415  106.5292  106.2354 C   0  0  0  0  0  0  0  0  0  0  0  0
  124.9939  105.2487  108.6229 C   0  0  0  0  0  0  0  0  0  0  0  0
  123.6948  106.0472  108.6023 C   0  0  0  0  0  0  0  0  0  0  0  0
  126.5339  105.8190  106.5676 N   0  0  0  0  0  0  0  0  0  0  0  0
  122.2476  104.5629  107.3000 N   0  0  0  0  0  0  0  0  0  0  0  0
  121.9283  105.7419  105.4533 N   0  0  0  0  0  0  0  0  0  0  0  0
  122.9338  105.7631  107.4054 N   0  0  0  0  0  0  0  0  0  0  0  0
  121.4398  106.0188  104.2077 N   0  0  0  0  0  0  0  0  0  0  0  0
  123.3577  108.0362  105.8831 S   0  0  0  0  0  0  0  0  0  0  0  0
  121.0463  103.8386  105.6892 H   0  0  0  0  0  0  0  0  0  0  0  0
  125.5372  105.4786  109.5469 H   0  0  0  0  0  0  0  0  0  0  0  0
  124.7796  104.1736  108.6354 H   0  0  0  0  0  0  0  0  0  0  0  0
  123.0863  105.7796  109.4723 H   0  0  0  0  0  0  0  0  0  0  0  0
  123.8966  107.1227  108.6569 H   0  0  0  0  0  0  0  0  0  0  0  0
  121.3336  105.1615  103.6319 H   0  0  0  0  0  0  0  0  0  0  0  0
  122.0984  106.5996  103.6543 H   0  0  0  0  0  0  0  0  0  0  0  0
  1  4  1  0  0  0  0
  1  6  3  0  0  0  0
  2  7  2  0  0  0  0
  2  8  1  0  0  0  0
  3  8  1  0  0  0  0
  3  9  1  0  0  0  0
  3 11  2  0  0  0  0
  4  5  1  0  0  0  0
  5  9  1  0  0  0  0
  7  9  1  0  0  0  0
  8 10  1  0  0  0  0
  2 12  1  0  0  0  0
  4 13  1  0  0  0  0
  4 14  1  0  0  0  0
  5 15  1  0  0  0  0
  5 16  1  0  0  0  0
 10 17  1  0  0  0  0
 10 18  1  0  0  0  0
M  END
> <FRED Chemgauss4 score>
-4.947797

$$$$
C82928769	P129631281
  -OEChem-05182014473D

 29 29  0     1  0  0  0  0  0999 V2000
  121.9507  106.0602  104.7821 C   0  0  0  0  0  0  0  0  0  0  0  0
  122.9868  107.3007  106.1030 C   0  0  0  0  0  0  0  0  0  0  0  0
  121.9887  105.8632  109.0523 C   0  0  0  0  0  0  0  0  0  0  0  0
  125.5789  105.5969  106.4983 C   0  0  0  0  0  0  0  0  0  0  0  0
  124.4377  106.3090  108.6208 C   0  0  0  0  0  0  0  0  0  0  0  0
  126.4196  104.6340  108.6945 C   0  0  0  0  0  0  0  0  0  0  0  0
  123.1523  105.6352  108.0751 C   0  0  2  0  0  0  0  0  0  0  0  0
  125.7856  105.8572  107.9991 C   0  0  1  0  0  0  0  0  0  0  0  0
  122.4860  107.3118  104.8895 N   0  0  0  0  0  0  0  0  0  0  0  0
  122.0888  105.2754  105.8529 N   0  0  0  0  0  0  0  0  0  0  0  0
  122.7546  106.0926  106.6829 N   0  0  0  0  0  0  0  0  0  0  0  0
  125.5963  103.4324  108.6400 N   0  0  0  0  0  0  0  0  0  0  0  0
  126.7155  106.9422  108.1008 O   0  0  0  0  0  0  0  0  0  0  0  0
  121.4456  105.7080  103.8952 H   0  0  0  0  0  0  0  0  0  0  0  0
  123.5107  108.1095  106.5926 H   0  0  0  0  0  0  0  0  0  0  0  0
  121.7559  106.9307  109.1319 H   0  0  0  0  0  0  0  0  0  0  0  0
  121.0826  105.3498  108.7111 H   0  0  0  0  0  0  0  0  0  0  0  0
  122.2216  105.4977  110.0585 H   0  0  0  0  0  0  0  0  0  0  0  0
  126.5160  105.2751  106.0289 H   0  0  0  0  0  0  0  0  0  0  0  0
  124.8610  104.7844  106.3377 H   0  0  0  0  0  0  0  0  0  0  0  0
  125.2197  106.4853  105.9699 H   0  0  0  0  0  0  0  0  0  0  0  0
  124.4849  106.1479  109.7065 H   0  0  0  0  0  0  0  0  0  0  0  0
  124.3383  107.3940  108.4805 H   0  0  0  0  0  0  0  0  0  0  0  0
  127.3947  104.4181  108.2391 H   0  0  0  0  0  0  0  0  0  0  0  0
  126.6438  104.8696  109.7407 H   0  0  0  0  0  0  0  0  0  0  0  0
  123.3180  104.5510  108.0553 H   0  0  0  0  0  0  0  0  0  0  0  0
  125.7155  102.7460  109.3550 H   0  0  0  0  0  0  0  0  0  0  0  0
  125.0974  103.2403  107.7970 H   0  0  0  0  0  0  0  0  0  0  0  0
  127.5253  106.6441  107.6631 H   0  0  0  0  0  0  0  0  0  0  0  0
  1  9  1  0  0  0  0
  1 10  2  0  0  0  0
  2  9  2  0  0  0  0
  2 11  1  0  0  0  0
  3  7  1  0  0  0  0
  4  8  1  0  0  0  0
  5  7  1  0  0  0  0
  5  8  1  0  0  0  0
  6  8  1  0  0  0  0
  6 12  1  0  0  0  0
  7 11  1  0  0  0  0
  8 13  1  0  0  0  0
 10 11  1  0  0  0  0
  1 14  1  0  0  0  0
  2 15  1  0  0  0  0
  3 16  1  0  0  0  0
  3 17  1  0  0  0  0
  3 18  1  0  0  0  0
  4 19  1  0  0  0  0
  4 20  1  0  0  0  0
  4 21  1  0  0  0  0
  5 22  1  0  0  0  0
  5 23  1  0  0  0  0
  6 24  1  0  0  0  0
  6 25  1  0  0  0  0
  7 26  1  0  0  0  0
 12 27  1  0  0  0  0
 12 28  1  0  0  0  0
 13 29  1  0  0  0  0
M  END
> <FRED Chemgauss4 score>
-4.945434

$$$$
C31992616	P86628678
  -OEChem-05182014473D

 20 20  0     1  0  0  0  0  0999 V2000
  123.7628  106.6536  105.8124 C   0  0  0  0  0  0  0  0  0  0  0  0
  124.8224  105.2409  107.2999 C   0  0  0  0  0  0  0  0  0  0  0  0
  125.0354  107.3624  106.1840 C   0  0  0  0  0  0  0  0  0  0  0  0
  125.7837  106.3773  107.0699 C   0  0  2  0  0  0  0  0  0  0  0  0
  121.5339  104.9041  107.4672 C   0  0  0  0  0  0  0  0  0  0  0  0
  122.5788  104.5662  106.4591 C   0  0  0  0  0  0  0  0  0  0  0  0
  123.6987  105.4843  106.5382 N   0  0  0  0  0  0  0  0  0  0  0  0
  126.9439  105.8157  106.4378 N   0  0  0  0  0  0  0  0  0  0  0  0
  122.9457  107.0891  105.0130 O   0  0  0  0  0  0  0  0  0  0  0  0
  125.0609  104.2590  107.9901 O   0  0  0  0  0  0  0  0  0  0  0  0
  125.5858  107.6431  105.2804 H   0  0  0  0  0  0  0  0  0  0  0  0
  124.7837  108.2724  106.7391 H   0  0  0  0  0  0  0  0  0  0  0  0
  126.0447  106.8343  108.0330 H   0  0  0  0  0  0  0  0  0  0  0  0
  121.9380  104.8456  108.4837 H   0  0  0  0  0  0  0  0  0  0  0  0
  121.1357  105.9099  107.2944 H   0  0  0  0  0  0  0  0  0  0  0  0
  120.7023  104.1932  107.3928 H   0  0  0  0  0  0  0  0  0  0  0  0
  122.1686  104.6266  105.4465 H   0  0  0  0  0  0  0  0  0  0  0  0
  122.9642  103.5556  106.6235 H   0  0  0  0  0  0  0  0  0  0  0  0
  127.2347  104.8998  106.7105 H   0  0  0  0  0  0  0  0  0  0  0  0
  127.5338  106.4225  105.9069 H   0  0  0  0  0  0  0  0  0  0  0  0
  1  3  1  0  0  0  0
  1  7  1  0  0  0  0
  1  9  2  0  0  0  0
  2  4  1  0  0  0  0
  2  7  1  0  0  0  0
  2 10  2  0  0  0  0
  3  4  1  0  0  0  0
  4  8  1  0  0  0  0
  5  6  1  0  0  0  0
  6  7  1  0  0  0  0
  3 11  1  0  0  0  0
  3 12  1  0  0  0  0
  4 13  1  0  0  0  0
  5 14  1  0  0  0  0
  5 15  1  0  0  0  0
  5 16  1  0  0  0  0
  6 17  1  0  0  0  0
  6 18  1  0  0  0  0
  8 19  1  0  0  0  0
  8 20  1  0  0  0  0
M  END
> <FRED Chemgauss4 score>
-4.932005

$$$$
C52945694	P79371735
  -OEChem-05182014473D

 19 19  0     0  0  0  0  0  0999 V2000
  123.0368  106.3902  105.6687 C   0  0  0  0  0  0  0  0  0  0  0  0
  121.2192  105.7376  106.7201 C   0  0  0  0  0  0  0  0  0  0  0  0
  122.5700  105.4984  106.6528 C   0  0  0  0  0  0  0  0  0  0  0  0
  125.5077  105.4470  108.0354 C   0  0  0  0  0  0  0  0  0  0  0  0
  124.7239  104.3977  107.2652 C   0  0  0  0  0  0  0  0  0  0  0  0
  122.0617  107.1400  105.1481 N   0  0  0  0  0  0  0  0  0  0  0  0
  120.9687  106.7197  105.8076 N   0  0  0  0  0  0  0  0  0  0  0  0
  126.9286  105.2777  107.8908 N   0  0  0  0  0  0  0  0  0  0  0  0
  123.3039  104.5825  107.3958 N   0  0  0  0  0  0  0  0  0  0  0  0
  124.0459  106.5275  105.3064 H   0  0  0  0  0  0  0  0  0  0  0  0
  120.4284  105.3098  107.3203 H   0  0  0  0  0  0  0  0  0  0  0  0
  125.2811  105.4091  109.1057 H   0  0  0  0  0  0  0  0  0  0  0  0
  125.2639  106.4468  107.6629 H   0  0  0  0  0  0  0  0  0  0  0  0
  124.9588  104.4569  106.1981 H   0  0  0  0  0  0  0  0  0  0  0  0
  124.9579  103.3876  107.6166 H   0  0  0  0  0  0  0  0  0  0  0  0
  120.0797  107.1508  105.5866 H   0  0  0  0  0  0  0  0  0  0  0  0
  127.3147  104.3471  107.8898 H   0  0  0  0  0  0  0  0  0  0  0  0
  127.5318  106.0777  107.9971 H   0  0  0  0  0  0  0  0  0  0  0  0
  122.8020  104.0104  108.0699 H   0  0  0  0  0  0  0  0  0  0  0  0
  1  3  1  0  0  0  0
  1  6  2  0  0  0  0
  2  3  2  0  0  0  0
  2  7  1  0  0  0  0
  3  9  1  0  0  0  0
  4  5  1  0  0  0  0
  4  8  1  0  0  0  0
  5  9  1  0  0  0  0
  6  7  1  0  0  0  0
  1 10  1  0  0  0  0
  2 11  1  0  0  0  0
  4 12  1  0  0  0  0
  4 13  1  0  0  0  0
  5 14  1  0  0  0  0
  5 15  1  0  0  0  0
  7 16  1  0  0  0  0
  8 17  1  0  0  0  0
  8 18  1  0  0  0  0
  9 19  1  0  0  0  0
M  END
> <FRED Chemgauss4 score>
-4.930375

$$$$
C83947884	P131328941
  -OEChem-05182014473D

 15 15  0     1  0  0  0  0  0999 V2000
  126.4285  106.2819  107.2757 C   0  0  0  0  0  0  0  0  0  0  0  0
  125.5550  106.6621  106.5445 C   0  0  0  0  0  0  0  0  0  0  0  0
  121.6649  105.1253  106.5381 C   0  0  0  0  0  0  0  0  0  0  0  0
  123.1849  106.3894  105.8681 C   0  0  0  0  0  0  0  0  0  0  0  0
  124.4877  107.1267  105.6441 C   0  0  1  0  0  0  0  0  0  0  0  0
  122.9772  105.4386  106.7492 N   0  0  0  0  0  0  0  0  0  0  0  0
  122.0418  106.6237  105.1695 N   0  0  0  0  0  0  0  0  0  0  0  0
  121.0477  105.8224  105.5818 N   0  0  0  0  0  0  0  0  0  0  0  0
  124.3174  108.5555  105.7668 N   0  0  0  0  0  0  0  0  0  0  0  0
  127.2029  105.9448  107.9242 H   0  0  0  0  0  0  0  0  0  0  0  0
  121.1560  104.3601  107.1094 H   0  0  0  0  0  0  0  0  0  0  0  0
  124.8178  106.9670  104.6103 H   0  0  0  0  0  0  0  0  0  0  0  0
  120.1139  105.8460  105.1814 H   0  0  0  0  0  0  0  0  0  0  0  0
  123.4566  108.9700  105.4563 H   0  0  0  0  0  0  0  0  0  0  0  0
  125.1215  109.1247  105.9640 H   0  0  0  0  0  0  0  0  0  0  0  0
  1  2  3  0  0  0  0
  2  5  1  0  0  0  0
  3  6  2  0  0  0  0
  3  8  1  0  0  0  0
  4  5  1  0  0  0  0
  4  6  1  0  0  0  0
  4  7  2  0  0  0  0
  5  9  1  0  0  0  0
  7  8  1  0  0  0  0
  1 10  1  0  0  0  0
  3 11  1  0  0  0  0
  5 12  1  0  0  0  0
  8 13  1  0  0  0  0
  9 14  1  0  0  0  0
  9 15  1  0  0  0  0
M  END
> <FRED Chemgauss4 score>
-4.929701

$$$$
C88023787	P137677865
  -OEChem-05182014473D

 34 35  0     1  0  0  0  0  0999 V2000
  124.7504  106.4931  105.5555 C   0  0  0  0  0  0  0  0  0  0  0  0
  123.6674  107.0093  104.9713 C   0  0  0  0  0  0  0  0  0  0  0  0
  124.6770  105.7853  106.8180 C   0  0  0  0  0  0  0  0  0  0  0  0
  123.4656  105.5786  107.3842 C   0  0  0  0  0  0  0  0  0  0  0  0
  122.3372  106.8566  105.6104 C   0  0  0  0  0  0  0  0  0  0  0  0
  123.3223  104.7502  108.6451 C   0  0  0  0  0  0  0  0  0  0  0  0
  124.5541  103.9077  108.9731 C   0  0  0  0  0  0  0  0  0  0  0  0
  125.8146  104.7459  108.8476 C   0  0  0  0  0  0  0  0  0  0  0  0
  125.9816  105.2728  107.4119 C   0  0  2  0  0  0  0  0  0  0  0  0
  120.1543  104.8830  106.7601 C   0  0  0  0  0  0  0  0  0  0  0  0
  121.0091  105.9338  107.4562 C   0  0  0  0  0  0  0  0  0  0  0  0
  118.7938  104.6959  107.4209 C   0  0  0  0  0  0  0  0  0  0  0  0
  122.3055  106.1219  106.8059 N   0  0  0  0  0  0  0  0  0  0  0  0
  127.0486  106.2825  107.4514 N   0  0  0  0  0  0  0  0  0  0  0  0
  121.3628  107.3644  105.0561 O   0  0  0  0  0  0  0  0  0  0  0  0
  118.0779  103.6899  106.7167 O   0  0  0  0  0  0  0  0  0  0  0  0
  125.7195  106.6017  105.0754 H   0  0  0  0  0  0  0  0  0  0  0  0
  123.7289  107.5411  104.0285 H   0  0  0  0  0  0  0  0  0  0  0  0
  123.1277  105.3895  109.5086 H   0  0  0  0  0  0  0  0  0  0  0  0
  122.4656  104.0817  108.5221 H   0  0  0  0  0  0  0  0  0  0  0  0
  124.4687  103.5084  109.9890 H   0  0  0  0  0  0  0  0  0  0  0  0
  124.6027  103.0493  108.2966 H   0  0  0  0  0  0  0  0  0  0  0  0
  125.7945  105.5701  109.5674 H   0  0  0  0  0  0  0  0  0  0  0  0
  126.6835  104.1299  109.1058 H   0  0  0  0  0  0  0  0  0  0  0  0
  126.3544  104.4189  106.8168 H   0  0  0  0  0  0  0  0  0  0  0  0
  120.0037  105.1742  105.7131 H   0  0  0  0  0  0  0  0  0  0  0  0
  120.6794  103.9199  106.7308 H   0  0  0  0  0  0  0  0  0  0  0  0
  120.5008  106.9029  107.4403 H   0  0  0  0  0  0  0  0  0  0  0  0
  121.1947  105.6618  108.5001 H   0  0  0  0  0  0  0  0  0  0  0  0
  118.8989  104.3784  108.4629 H   0  0  0  0  0  0  0  0  0  0  0  0
  118.2133  105.6234  107.3872 H   0  0  0  0  0  0  0  0  0  0  0  0
  127.1222  106.9033  106.6808 H   0  0  0  0  0  0  0  0  0  0  0  0
  127.7616  106.1706  108.1327 H   0  0  0  0  0  0  0  0  0  0  0  0
  117.2195  103.5948  107.1602 H   0  0  0  0  0  0  0  0  0  0  0  0
  1  2  2  0  0  0  0
  1  3  1  0  0  0  0
  2  5  1  0  0  0  0
  3  4  2  0  0  0  0
  3  9  1  0  0  0  0
  4  6  1  0  0  0  0
  4 13  1  0  0  0  0
  5 13  1  0  0  0  0
  5 15  2  0  0  0  0
  6  7  1  0  0  0  0
  7  8  1  0  0  0  0
  8  9  1  0  0  0  0
  9 14  1  0  0  0  0
 10 11  1  0  0  0  0
 10 12  1  0  0  0  0
 11 13  1  0  0  0  0
 12 16  1  0  0  0  0
  1 17  1  0  0  0  0
  2 18  1  0  0  0  0
  6 19  1  0  0  0  0
  6 20  1  0  0  0  0
  7 21  1  0  0  0  0
  7 22  1  0  0  0  0
  8 23  1  0  0  0  0
  8 24  1  0  0  0  0
  9 25  1  0  0  0  0
 10 26  1  0  0  0  0
 10 27  1  0  0  0  0
 11 28  1  0  0  0  0
 11 29  1  0  0  0  0
 12 30  1  0  0  0  0
 12 31  1  0  0  0  0
 14 32  1  0  0  0  0
 14 33  1  0  0  0  0
 16 34  1  0  0  0  0
M  END
> <FRED Chemgauss4 score>
-4.928314

$$$$
C82987567	P129755007
  -OEChem-05182014473D

 33 33  0     1  0  0  0  0  0999 V2000
  122.9192  105.4074  109.5955 C   0  0  0  0  0  0  0  0  0  0  0  0
  122.9389  106.2721  108.5267 C   0  0  0  0  0  0  0  0  0  0  0  0
  124.3693  104.6183  108.2520 C   0  0  0  0  0  0  0  0  0  0  0  0
  124.8208  102.7246  106.6508 C   0  0  0  0  0  0  0  0  0  0  0  0
  126.3570  103.1105  108.6120 C   0  0  0  0  0  0  0  0  0  0  0  0
  122.1935  105.1556  105.4232 C   0  0  0  0  0  0  0  0  0  0  0  0
  124.9604  107.7126  106.5539 C   0  0  0  0  0  0  0  0  0  0  0  0
  125.4076  103.7936  107.6011 C   0  0  0  0  0  0  0  0  0  0  0  0
  124.2743  106.3484  106.3265 C   0  0  2  0  0  0  0  0  0  0  0  0
  123.0941  106.3916  105.3115 C   0  0  2  0  0  0  0  0  0  0  0  0
  123.8120  104.3802  109.4185 N   0  0  0  0  0  0  0  0  0  0  0  0
  123.8729  105.7538  107.6745 N   0  0  0  0  0  0  0  0  0  0  0  0
  122.2523  107.5713  105.5425 N   0  0  0  0  0  0  0  0  0  0  0  0
  125.1003  108.4319  105.3364 O   0  0  0  0  0  0  0  0  0  0  0  0
  122.3075  105.4723  110.4835 H   0  0  0  0  0  0  0  0  0  0  0  0
  122.3896  107.1772  108.3081 H   0  0  0  0  0  0  0  0  0  0  0  0
  124.1513  102.0407  107.1838 H   0  0  0  0  0  0  0  0  0  0  0  0
  125.6045  102.1219  106.1791 H   0  0  0  0  0  0  0  0  0  0  0  0
  124.2420  103.2049  105.8540 H   0  0  0  0  0  0  0  0  0  0  0  0
  125.7868  102.4622  109.2867 H   0  0  0  0  0  0  0  0  0  0  0  0
  126.8959  103.8410  109.2252 H   0  0  0  0  0  0  0  0  0  0  0  0
  127.1026  102.4898  108.1032 H   0  0  0  0  0  0  0  0  0  0  0  0
  121.7835  105.0485  106.4338 H   0  0  0  0  0  0  0  0  0  0  0  0
  121.3551  105.2066  104.7214 H   0  0  0  0  0  0  0  0  0  0  0  0
  122.7500  104.2410  105.1874 H   0  0  0  0  0  0  0  0  0  0  0  0
  125.9619  107.5677  106.9730 H   0  0  0  0  0  0  0  0  0  0  0  0
  124.3930  108.3299  107.2598 H   0  0  0  0  0  0  0  0  0  0  0  0
  126.0634  104.4251  106.9633 H   0  0  0  0  0  0  0  0  0  0  0  0
  125.0454  105.6894  105.9003 H   0  0  0  0  0  0  0  0  0  0  0  0
  123.4727  106.4459  104.2843 H   0  0  0  0  0  0  0  0  0  0  0  0
  121.3073  107.5310  105.2383 H   0  0  0  0  0  0  0  0  0  0  0  0
  122.7043  108.4178  105.8001 H   0  0  0  0  0  0  0  0  0  0  0  0
  125.5358  109.2716  105.5554 H   0  0  0  0  0  0  0  0  0  0  0  0
  1  2  2  0  0  0  0
  1 11  1  0  0  0  0
  2 12  1  0  0  0  0
  3  8  1  0  0  0  0
  3 11  2  0  0  0  0
  3 12  1  0  0  0  0
  4  8  1  0  0  0  0
  5  8  1  0  0  0  0
  6 10  1  0  0  0  0
  7  9  1  0  0  0  0
  7 14  1  0  0  0  0
  9 10  1  0  0  0  0
  9 12  1  0  0  0  0
 10 13  1  0  0  0  0
  1 15  1  0  0  0  0
  2 16  1  0  0  0  0
  4 17  1  0  0  0  0
  4 18  1  0  0  0  0
  4 19  1  0  0  0  0
  5 20  1  0  0  0  0
  5 21  1  0  0  0  0
  5 22  1  0  0  0  0
  6 23  1  0  0  0  0
  6 24  1  0  0  0  0
  6 25  1  0  0  0  0
  7 26  1  0  0  0  0
  7 27  1  0  0  0  0
  8 28  1  0  0  0  0
  9 29  1  0  0  0  0
 10 30  1  0  0  0  0
 13 31  1  0  0  0  0
 13 32  1  0  0  0  0
 14 33  1  0  0  0  0
M  END
> <FRED Chemgauss4 score>
-4.927178

$$$$
C67172119	P103192712
  -OEChem-05182014473D

 23 23  0     0  0  0  0  0  0999 V2000
  121.8987  105.4211  106.2994 C   0  0  0  0  0  0  0  0  0  0  0  0
  122.2011  106.9168  106.3189 C   0  0  0  0  0  0  0  0  0  0  0  0
  123.9727  104.3938  107.0541 C   0  0  0  0  0  0  0  0  0  0  0  0
  124.5332  106.4152  105.5771 C   0  0  0  0  0  0  0  0  0  0  0  0
  124.9175  105.5831  106.8132 C   0  0  0  0  0  0  0  0  0  0  0  0
  125.1246  106.4348  108.0682 C   0  0  0  0  0  0  0  0  0  0  0  0
  122.5875  104.7197  107.3803 N   0  0  0  0  0  0  0  0  0  0  0  0
  123.4408  107.3704  105.7037 N   0  0  0  0  0  0  0  0  0  0  0  0
  126.0107  107.4878  107.7471 O   0  0  0  0  0  0  0  0  0  0  0  0
  120.8273  105.2440  106.3314 H   0  0  0  0  0  0  0  0  0  0  0  0
  122.2563  105.0236  105.3521 H   0  0  0  0  0  0  0  0  0  0  0  0
  121.3803  107.4479  105.8138 H   0  0  0  0  0  0  0  0  0  0  0  0
  122.1732  107.2684  107.3609 H   0  0  0  0  0  0  0  0  0  0  0  0
  123.9532  103.7931  106.1277 H   0  0  0  0  0  0  0  0  0  0  0  0
  124.3952  103.7142  107.8170 H   0  0  0  0  0  0  0  0  0  0  0  0
  125.4472  106.9112  105.1312 H   0  0  0  0  0  0  0  0  0  0  0  0
  124.2310  105.7044  104.7590 H   0  0  0  0  0  0  0  0  0  0  0  0
  125.9342  105.1245  106.5798 H   0  0  0  0  0  0  0  0  0  0  0  0
  125.5550  105.8222  108.8566 H   0  0  0  0  0  0  0  0  0  0  0  0
  124.1709  106.8449  108.3913 H   0  0  0  0  0  0  0  0  0  0  0  0
  122.6003  105.3406  108.1987 H   0  0  0  0  0  0  0  0  0  0  0  0
  123.2291  107.7738  104.7718 H   0  0  0  0  0  0  0  0  0  0  0  0
  126.1316  108.0188  108.5537 H   0  0  0  0  0  0  0  0  0  0  0  0
  1  2  1  0  0  0  0
  1  7  1  0  0  0  0
  2  8  1  0  0  0  0
  3  5  1  0  0  0  0
  3  7  1  0  0  0  0
  4  5  1  0  0  0  0
  4  8  1  0  0  0  0
  5  6  1  0  0  0  0
  6  9  1  0  0  0  0
  1 10  1  0  0  0  0
  1 11  1  0  0  0  0
  2 12  1  0  0  0  0
  2 13  1  0  0  0  0
  3 14  1  0  0  0  0
  3 15  1  0  0  0  0
  4 16  1  0  0  0  0
  4 17  1  0  0  0  0
  5 18  1  0  0  0  0
  6 19  1  0  0  0  0
  6 20  1  0  0  0  0
  7 21  1  0  0  0  0
  8 22  1  0  0  0  0
  9 23  1  0  0  0  0
M  END
> <FRED Chemgauss4 score>
-4.916868

$$$$
C59366433	P90271539
  -OEChem-05182014473D

 20 20  0     0  0  0  0  0  0999 V2000
  124.1276  105.9073  106.3049 C   0  0  0  0  0  0  0  0  0  0  0  0
  121.6759  106.2859  105.7962 C   0  0  0  0  0  0  0  0  0  0  0  0
  125.4183  104.5922  108.9787 C   0  0  0  0  0  0  0  0  0  0  0  0
  124.9706  103.9881  107.6584 C   0  0  0  0  0  0  0  0  0  0  0  0
  125.2392  106.5378  106.0026 N   0  0  0  0  0  0  0  0  0  0  0  0
  124.8570  107.6209  105.2439 N   0  0  0  0  0  0  0  0  0  0  0  0
  123.5394  107.6512  105.0852 N   0  0  0  0  0  0  0  0  0  0  0  0
  123.0858  106.5791  105.7494 N   0  0  0  0  0  0  0  0  0  0  0  0
  126.4860  103.8426  109.5842 N   0  0  0  0  0  0  0  0  0  0  0  0
  123.9171  104.7517  107.0463 N   0  0  0  0  0  0  0  0  0  0  0  0
  121.2553  106.7904  106.6700 H   0  0  0  0  0  0  0  0  0  0  0  0
  121.1987  106.6458  104.8804 H   0  0  0  0  0  0  0  0  0  0  0  0
  121.5341  105.2043  105.8727 H   0  0  0  0  0  0  0  0  0  0  0  0
  124.5956  104.6304  109.6998 H   0  0  0  0  0  0  0  0  0  0  0  0
  125.7899  105.6093  108.8199 H   0  0  0  0  0  0  0  0  0  0  0  0
  125.8044  103.9656  106.9500 H   0  0  0  0  0  0  0  0  0  0  0  0
  124.6012  102.9662  107.7922 H   0  0  0  0  0  0  0  0  0  0  0  0
  126.4657  102.8362  109.5406 H   0  0  0  0  0  0  0  0  0  0  0  0
  127.1213  104.3111  110.2104 H   0  0  0  0  0  0  0  0  0  0  0  0
  122.9591  104.4302  107.1587 H   0  0  0  0  0  0  0  0  0  0  0  0
  1  5  2  0  0  0  0
  1  8  1  0  0  0  0
  1 10  1  0  0  0  0
  2  8  1  0  0  0  0
  3  4  1  0  0  0  0
  3  9  1  0  0  0  0
  4 10  1  0  0  0  0
  5  6  1  0  0  0  0
  6  7  2  0  0  0  0
  7  8  1  0  0  0  0
  2 11  1  0  0  0  0
  2 12  1  0  0  0  0
  2 13  1  0  0  0  0
  3 14  1  0  0  0  0
  3 15  1  0  0  0  0
  4 16  1  0  0  0  0
  4 17  1  0  0  0  0
  9 18  1  0  0  0  0
  9 19  1  0  0  0  0
 10 20  1  0  0  0  0
M  END
> <FRED Chemgauss4 score>
-4.916331

$$$$
C70588816	P108883946
  -OEChem-05182014473D

 24 25  0     1  0  0  0  0  0999 V2000
  126.9846  106.0174  108.2773 C   0  0  0  0  0  0  0  0  0  0  0  0
  125.3429  105.0617  107.4120 C   0  0  0  0  0  0  0  0  0  0  0  0
  122.9841  106.4286  105.7963 C   0  0  0  0  0  0  0  0  0  0  0  0
  120.6032  105.9995  105.1783 C   0  0  0  0  0  0  0  0  0  0  0  0
  120.6445  104.8114  106.1178 C   0  0  0  0  0  0  0  0  0  0  0  0
  122.9863  105.1056  106.5570 C   0  0  2  0  0  0  0  0  0  0  0  0
  124.3519  104.4293  106.4735 C   0  0  0  0  0  0  0  0  0  0  0  0
  126.4892  105.6049  107.0736 N   0  0  0  0  0  0  0  0  0  0  0  0
  125.1736  105.1521  108.7585 N   0  0  0  0  0  0  0  0  0  0  0  0
  126.2171  105.7635  109.3393 N   0  0  0  0  0  0  0  0  0  0  0  0
  121.7660  106.8528  105.3070 N   0  0  0  0  0  0  0  0  0  0  0  0
  121.9653  104.1966  106.0282 N   0  0  0  0  0  0  0  0  0  0  0  0
  123.9959  107.1273  105.7099 O   0  0  0  0  0  0  0  0  0  0  0  0
  127.9395  106.5186  108.3663 H   0  0  0  0  0  0  0  0  0  0  0  0
  120.5739  105.6657  104.1347 H   0  0  0  0  0  0  0  0  0  0  0  0
  119.7152  106.6129  105.3605 H   0  0  0  0  0  0  0  0  0  0  0  0
  120.4301  105.1166  107.1493 H   0  0  0  0  0  0  0  0  0  0  0  0
  119.8758  104.0872  105.8282 H   0  0  0  0  0  0  0  0  0  0  0  0
  122.7744  105.3331  107.6096 H   0  0  0  0  0  0  0  0  0  0  0  0
  124.7244  104.4843  105.4453 H   0  0  0  0  0  0  0  0  0  0  0  0
  124.2467  103.3641  106.7048 H   0  0  0  0  0  0  0  0  0  0  0  0
  126.2776  105.9263  110.3407 H   0  0  0  0  0  0  0  0  0  0  0  0
  121.6795  107.8228  105.0196 H   0  0  0  0  0  0  0  0  0  0  0  0
  121.9700  103.3337  106.5720 H   0  0  0  0  0  0  0  0  0  0  0  0
  1  8  2  0  0  0  0
  1 10  1  0  0  0  0
  2  7  1  0  0  0  0
  2  8  1  0  0  0  0
  2  9  2  0  0  0  0
  3  6  1  0  0  0  0
  3 11  1  0  0  0  0
  3 13  2  0  0  0  0
  4  5  1  0  0  0  0
  4 11  1  0  0  0  0
  5 12  1  0  0  0  0
  6  7  1  0  0  0  0
  6 12  1  0  0  0  0
  9 10  1  0  0  0  0
  1 14  1  0  0  0  0
  4 15  1  0  0  0  0
  4 16  1  0  0  0  0
  5 17  1  0  0  0  0
  5 18  1  0  0  0  0
  6 19  1  0  0  0  0
  7 20  1  0  0  0  0
  7 21  1  0  0  0  0
 10 22  1  0  0  0  0
 11 23  1  0  0  0  0
 12 24  1  0  0  0  0
M  END
> <FRED Chemgauss4 score>
-4.915731

$$$$
C44464318	P129259292
  -OEChem-05182014473D

 20 20  0     1  0  0  0  0  0999 V2000
  120.3929  105.1788  101.8262 C   0  0  0  0  0  0  0  0  0  0  0  0
  119.8611  104.5216  102.9158 C   0  0  0  0  0  0  0  0  0  0  0  0
  122.0268  105.5224  103.2483 C   0  0  0  0  0  0  0  0  0  0  0  0
  123.3381  105.9943  103.8307 C   0  0  0  0  0  0  0  0  0  0  0  0
  124.5950  106.8292  105.8501 C   0  0  0  0  0  0  0  0  0  0  0  0
  123.2451  106.3359  105.3262 C   0  0  1  0  0  0  0  0  0  0  0  0
  121.6345  105.7537  102.0151 N   0  0  0  0  0  0  0  0  0  0  0  0
  122.2314  107.3428  105.5623 N   0  0  0  0  0  0  0  0  0  0  0  0
  124.9992  107.9760  105.1106 O   0  0  0  0  0  0  0  0  0  0  0  0
  120.9521  104.6193  104.2354 S   0  0  0  0  0  0  0  0  0  0  0  0
  119.9120  105.2686  100.8614 H   0  0  0  0  0  0  0  0  0  0  0  0
  118.9158  104.0038  102.9960 H   0  0  0  0  0  0  0  0  0  0  0  0
  124.1102  105.2314  103.6638 H   0  0  0  0  0  0  0  0  0  0  0  0
  123.6613  106.8769  103.2632 H   0  0  0  0  0  0  0  0  0  0  0  0
  125.3648  106.0613  105.7208 H   0  0  0  0  0  0  0  0  0  0  0  0
  124.5395  107.1007  106.9099 H   0  0  0  0  0  0  0  0  0  0  0  0
  122.9352  105.4585  105.9064 H   0  0  0  0  0  0  0  0  0  0  0  0
  122.2965  107.9067  106.3889 H   0  0  0  0  0  0  0  0  0  0  0  0
  121.3915  107.3176  105.0149 H   0  0  0  0  0  0  0  0  0  0  0  0
  125.8549  108.2539  105.4739 H   0  0  0  0  0  0  0  0  0  0  0  0
  1  2  2  0  0  0  0
  1  7  1  0  0  0  0
  2 10  1  0  0  0  0
  3  4  1  0  0  0  0
  3  7  2  0  0  0  0
  3 10  1  0  0  0  0
  4  6  1  0  0  0  0
  5  6  1  0  0  0  0
  5  9  1  0  0  0  0
  6  8  1  0  0  0  0
  1 11  1  0  0  0  0
  2 12  1  0  0  0  0
  4 13  1  0  0  0  0
  4 14  1  0  0  0  0
  5 15  1  0  0  0  0
  5 16  1  0  0  0  0
  6 17  1  0  0  0  0
  8 18  1  0  0  0  0
  8 19  1  0  0  0  0
  9 20  1  0  0  0  0
M  END
> <FRED Chemgauss4 score>
-4.914869

$$$$
C85542475	P133883331
  -OEChem-05182014473D

 27 28  0     1  0  0  0  0  0999 V2000
  123.6361  106.6533  105.7220 C   0  0  0  0  0  0  0  0  0  0  0  0
  124.7290  107.6543  105.7016 C   0  0  0  0  0  0  0  0  0  0  0  0
  124.1990  104.8691  109.2913 C   0  0  0  0  0  0  0  0  0  0  0  0
  122.8577  104.2600  108.9059 C   0  0  0  0  0  0  0  0  0  0  0  0
  125.2279  105.2750  106.9990 C   0  0  0  0  0  0  0  0  0  0  0  0
  123.0252  104.2887  106.3664 C   0  0  0  0  0  0  0  0  0  0  0  0
  125.1565  104.3555  108.2217 C   0  0  2  0  0  0  0  0  0  0  0  0
  123.1668  103.4575  107.6468 C   0  0  1  0  0  0  0  0  0  0  0  0
  123.9088  105.4658  106.3865 N   0  0  0  0  0  0  0  0  0  0  0  0
  125.6332  109.4889  106.8975 N   0  0  0  0  0  0  0  0  0  0  0  0
  124.6748  108.5016  106.7833 N   0  0  0  0  0  0  0  0  0  0  0  0
  122.6014  106.9825  105.1574 O   0  0  0  0  0  0  0  0  0  0  0  0
  125.5449  107.6581  104.7909 O   0  0  0  0  0  0  0  0  0  0  0  0
  124.5576  103.1198  107.7918 O   0  0  0  0  0  0  0  0  0  0  0  0
  124.1725  105.9612  109.3558 H   0  0  0  0  0  0  0  0  0  0  0  0
  124.4965  104.4886  110.2755 H   0  0  0  0  0  0  0  0  0  0  0  0
  122.5253  103.5887  109.7064 H   0  0  0  0  0  0  0  0  0  0  0  0
  122.0729  105.0081  108.7574 H   0  0  0  0  0  0  0  0  0  0  0  0
  125.6646  106.2447  107.2604 H   0  0  0  0  0  0  0  0  0  0  0  0
  125.8567  104.8172  106.2261 H   0  0  0  0  0  0  0  0  0  0  0  0
  123.3344  103.6936  105.4991 H   0  0  0  0  0  0  0  0  0  0  0  0
  121.9838  104.5899  106.2216 H   0  0  0  0  0  0  0  0  0  0  0  0
  126.1575  104.1631  108.6192 H   0  0  0  0  0  0  0  0  0  0  0  0
  122.5686  102.5436  107.5813 H   0  0  0  0  0  0  0  0  0  0  0  0
  125.1807  110.2910  107.3343 H   0  0  0  0  0  0  0  0  0  0  0  0
  125.8708  109.7810  105.9503 H   0  0  0  0  0  0  0  0  0  0  0  0
  123.9644  108.4419  107.5063 H   0  0  0  0  0  0  0  0  0  0  0  0
  1  2  1  0  0  0  0
  1  9  1  0  0  0  0
  1 12  2  0  0  0  0
  2 11  1  0  0  0  0
  2 13  2  0  0  0  0
  3  4  1  0  0  0  0
  3  7  1  0  0  0  0
  4  8  1  0  0  0  0
  5  7  1  0  0  0  0
  5  9  1  0  0  0  0
  6  8  1  0  0  0  0
  6  9  1  0  0  0  0
  7 14  1  0  0  0  0
  8 14  1  0  0  0  0
 10 11  1  0  0  0  0
  3 15  1  0  0  0  0
  3 16  1  0  0  0  0
  4 17  1  0  0  0  0
  4 18  1  0  0  0  0
  5 19  1  0  0  0  0
  5 20  1  0  0  0  0
  6 21  1  0  0  0  0
  6 22  1  0  0  0  0
  7 23  1  0  0  0  0
  8 24  1  0  0  0  0
 10 25  1  0  0  0  0
 10 26  1  0  0  0  0
 11 27  1  0  0  0  0
M  END
> <FRED Chemgauss4 score>
-4.912057

$$$$
C39113937	P59254497
  -OEChem-05182014473D

 22 22  0     1  0  0  0  0  0999 V2000
  124.6778  107.4660  106.1417 C   0  0  0  0  0  0  0  0  0  0  0  0
  124.9907  105.2009  107.8959 C   0  0  0  0  0  0  0  0  0  0  0  0
  123.5572  106.4514  106.3181 C   0  0  2  0  0  0  0  0  0  0  0  0
  125.3286  106.6083  108.3664 C   0  0  2  0  0  0  0  0  0  0  0  0
  123.7057  103.9367  106.1949 C   0  0  0  0  0  0  0  0  0  0  0  0
  126.7431  108.3387  107.1977 C   0  0  0  0  0  0  0  0  0  0  0  0
  124.1654  105.1960  106.7641 N   0  0  0  0  0  0  0  0  0  0  0  0
  125.6190  107.4129  107.1777 N   0  0  0  0  0  0  0  0  0  0  0  0
  124.6786  108.2837  105.2235 O   0  0  0  0  0  0  0  0  0  0  0  0
  125.3500  104.2023  108.5165 O   0  0  0  0  0  0  0  0  0  0  0  0
  122.8651  106.2930  105.0948 O   0  0  0  0  0  0  0  0  0  0  0  0
  126.4325  106.5602  109.2492 O   0  0  0  0  0  0  0  0  0  0  0  0
  122.8577  106.7966  107.0876 H   0  0  0  0  0  0  0  0  0  0  0  0
  124.4685  107.0454  108.8857 H   0  0  0  0  0  0  0  0  0  0  0  0
  122.7580  103.6413  106.6526 H   0  0  0  0  0  0  0  0  0  0  0  0
  124.4433  103.1496  106.3737 H   0  0  0  0  0  0  0  0  0  0  0  0
  123.5586  104.0407  105.1166 H   0  0  0  0  0  0  0  0  0  0  0  0
  126.4734  109.2453  107.7456 H   0  0  0  0  0  0  0  0  0  0  0  0
  127.0238  108.6144  106.1776 H   0  0  0  0  0  0  0  0  0  0  0  0
  127.6052  107.8760  107.6855 H   0  0  0  0  0  0  0  0  0  0  0  0
  122.5034  107.1637  104.8548 H   0  0  0  0  0  0  0  0  0  0  0  0
  126.1739  106.0009  110.0021 H   0  0  0  0  0  0  0  0  0  0  0  0
  1  3  1  0  0  0  0
  1  8  1  0  0  0  0
  1  9  2  0  0  0  0
  2  4  1  0  0  0  0
  2  7  1  0  0  0  0
  2 10  2  0  0  0  0
  3  7  1  0  0  0  0
  3 11  1  0  0  0  0
  4  8  1  0  0  0  0
  4 12  1  0  0  0  0
  5  7  1  0  0  0  0
  6  8  1  0  0  0  0
  3 13  1  0  0  0  0
  4 14  1  0  0  0  0
  5 15  1  0  0  0  0
  5 16  1  0  0  0  0
  5 17  1  0  0  0  0
  6 18  1  0  0  0  0
  6 19  1  0  0  0  0
  6 20  1  0  0  0  0
 11 21  1  0  0  0  0
 12 22  1  0  0  0  0
M  END
> <FRED Chemgauss4 score>
-4.893849

$$$$
C37440376	P55674866
  -OEChem-05182014473D

 38 39  0     1  0  0  0  0  0999 V2000
  119.1209  108.7402  107.8169 C   0  0  0  0  0  0  0  0  0  0  0  0
  117.8612  108.5035  107.2566 C   0  0  0  0  0  0  0  0  0  0  0  0
  118.8180  107.0900  105.5204 C   0  0  0  0  0  0  0  0  0  0  0  0
  120.0911  107.3171  106.0699 C   0  0  0  0  0  0  0  0  0  0  0  0
  120.2098  108.1291  107.1944 C   0  0  0  0  0  0  0  0  0  0  0  0
  117.7102  107.6934  106.1288 C   0  0  0  0  0  0  0  0  0  0  0  0
  122.1760  107.3636  106.5290 C   0  0  0  0  0  0  0  0  0  0  0  0
  121.6503  108.4414  109.9072 C   0  0  0  0  0  0  0  0  0  0  0  0
  123.7696  106.0673  108.8894 C   0  0  0  0  0  0  0  0  0  0  0  0
  125.7230  105.8180  107.3456 C   0  0  0  0  0  0  0  0  0  0  0  0
  123.6006  104.6151  106.8669 C   0  0  0  0  0  0  0  0  0  0  0  0
  122.1948  108.8513  108.5496 C   0  0  0  0  0  0  0  0  0  0  0  0
  123.6859  107.1486  106.5255 C   0  0  1  0  0  0  0  0  0  0  0  0
  124.1844  105.9420  107.4100 C   0  0  0  0  0  0  0  0  0  0  0  0
  121.3228  106.8507  105.6712 N   0  0  0  0  0  0  0  0  0  0  0  0
  121.5539  108.1411  107.4659 N   0  0  0  0  0  0  0  0  0  0  0  0
  124.1929  107.0855  105.1442 N   0  0  0  0  0  0  0  0  0  0  0  0
  116.1378  107.4296  105.4742 Cl  0  0  0  0  0  0  0  0  0  0  0  0
  119.2368  109.3686  108.6928 H   0  0  0  0  0  0  0  0  0  0  0  0
  116.9921  108.9659  107.7202 H   0  0  0  0  0  0  0  0  0  0  0  0
  118.7056  106.4594  104.6434 H   0  0  0  0  0  0  0  0  0  0  0  0
  120.5741  108.6323  109.9759 H   0  0  0  0  0  0  0  0  0  0  0  0
  122.1483  109.0055  110.7018 H   0  0  0  0  0  0  0  0  0  0  0  0
  121.8124  107.3744  110.0926 H   0  0  0  0  0  0  0  0  0  0  0  0
  122.6842  106.1589  109.0001 H   0  0  0  0  0  0  0  0  0  0  0  0
  124.0804  105.1826  109.4581 H   0  0  0  0  0  0  0  0  0  0  0  0
  124.2364  106.9315  109.3714 H   0  0  0  0  0  0  0  0  0  0  0  0
  126.0692  105.7259  106.3095 H   0  0  0  0  0  0  0  0  0  0  0  0
  126.0834  104.9329  107.8801 H   0  0  0  0  0  0  0  0  0  0  0  0
  126.2087  106.6998  107.7782 H   0  0  0  0  0  0  0  0  0  0  0  0
  123.8637  104.4698  105.8133 H   0  0  0  0  0  0  0  0  0  0  0  0
  123.9884  103.7546  107.4249 H   0  0  0  0  0  0  0  0  0  0  0  0
  122.5095  104.5826  106.9525 H   0  0  0  0  0  0  0  0  0  0  0  0
  123.2717  108.6567  108.4905 H   0  0  0  0  0  0  0  0  0  0  0  0
  122.0487  109.9245  108.3828 H   0  0  0  0  0  0  0  0  0  0  0  0
  124.1343  108.0580  106.9506 H   0  0  0  0  0  0  0  0  0  0  0  0
  125.0894  106.6865  105.0046 H   0  0  0  0  0  0  0  0  0  0  0  0
  123.7162  107.6190  104.4581 H   0  0  0  0  0  0  0  0  0  0  0  0
  1  2  2  0  0  0  0
  1  5  1  0  0  0  0
  2  6  1  0  0  0  0
  3  4  1  0  0  0  0
  3  6  2  0  0  0  0
  4  5  2  0  0  0  0
  4 15  1  0  0  0  0
  5 16  1  0  0  0  0
  6 18  1  0  0  0  0
  7 13  1  0  0  0  0
  7 15  2  0  0  0  0
  7 16  1  0  0  0  0
  8 12  1  0  0  0  0
  9 14  1  0  0  0  0
 10 14  1  0  0  0  0
 11 14  1  0  0  0  0
 12 16  1  0  0  0  0
 13 14  1  0  0  0  0
 13 17  1  0  0  0  0
  1 19  1  0  0  0  0
  2 20  1  0  0  0  0
  3 21  1  0  0  0  0
  8 22  1  0  0  0  0
  8 23  1  0  0  0  0
  8 24  1  0  0  0  0
  9 25  1  0  0  0  0
  9 26  1  0  0  0  0
  9 27  1  0  0  0  0
 10 28  1  0  0  0  0
 10 29  1  0  0  0  0
 10 30  1  0  0  0  0
 11 31  1  0  0  0  0
 11 32  1  0  0  0  0
 11 33  1  0  0  0  0
 12 34  1  0  0  0  0
 12 35  1  0  0  0  0
 13 36  1  0  0  0  0
 17 37  1  0  0  0  0
 17 38  1  0  0  0  0
M  END
> <FRED Chemgauss4 score>
-4.893117

$$$$
C36946826	P54931962
  -OEChem-05182014473D

 28 29  0     1  0  0  0  0  0999 V2000
  120.2720  107.3283  106.1459 C   0  0  0  0  0  0  0  0  0  0  0  0
  119.7156  106.4749  105.2225 C   0  0  0  0  0  0  0  0  0  0  0  0
  121.9130  106.5167  105.0600 C   0  0  0  0  0  0  0  0  0  0  0  0
  125.0147  104.4174  108.3084 C   0  0  0  0  0  0  0  0  0  0  0  0
  124.4696  104.6086  106.9153 C   0  0  0  0  0  0  0  0  0  0  0  0
  125.9760  105.5806  108.4306 C   0  0  0  0  0  0  0  0  0  0  0  0
  124.3639  106.1218  106.8369 C   0  0  2  0  0  0  0  0  0  0  0  0
  123.2806  106.1635  104.5263 C   0  0  0  0  0  0  0  0  0  0  0  0
  124.4366  106.6608  105.4215 C   0  0  1  0  0  0  0  0  0  0  0  0
  121.6402  107.3501  106.0393 N   0  0  0  0  0  0  0  0  0  0  0  0
  120.7791  105.9628  104.5340 N   0  0  0  0  0  0  0  0  0  0  0  0
  124.4038  108.1294  105.4713 N   0  0  0  0  0  0  0  0  0  0  0  0
  125.4568  106.6404  107.6135 O   0  0  0  0  0  0  0  0  0  0  0  0
  119.7570  107.9292  106.8809 H   0  0  0  0  0  0  0  0  0  0  0  0
  118.6967  106.1938  104.9996 H   0  0  0  0  0  0  0  0  0  0  0  0
  124.2063  104.5211  109.0418 H   0  0  0  0  0  0  0  0  0  0  0  0
  125.4952  103.4481  108.4644 H   0  0  0  0  0  0  0  0  0  0  0  0
  125.1903  104.2252  106.1828 H   0  0  0  0  0  0  0  0  0  0  0  0
  123.5125  104.1062  106.7505 H   0  0  0  0  0  0  0  0  0  0  0  0
  126.0844  105.9291  109.4615 H   0  0  0  0  0  0  0  0  0  0  0  0
  126.9666  105.3179  108.0445 H   0  0  0  0  0  0  0  0  0  0  0  0
  123.4374  106.4624  107.3147 H   0  0  0  0  0  0  0  0  0  0  0  0
  123.3559  105.0765  104.3883 H   0  0  0  0  0  0  0  0  0  0  0  0
  123.3633  106.5941  103.5187 H   0  0  0  0  0  0  0  0  0  0  0  0
  125.3995  106.3705  104.9753 H   0  0  0  0  0  0  0  0  0  0  0  0
  120.7341  105.2942  103.7763 H   0  0  0  0  0  0  0  0  0  0  0  0
  124.1243  108.6110  104.6497 H   0  0  0  0  0  0  0  0  0  0  0  0
  124.8496  108.5732  106.2392 H   0  0  0  0  0  0  0  0  0  0  0  0
  1  2  2  0  0  0  0
  1 10  1  0  0  0  0
  2 11  1  0  0  0  0
  3  8  1  0  0  0  0
  3 10  2  0  0  0  0
  3 11  1  0  0  0  0
  4  5  1  0  0  0  0
  4  6  1  0  0  0  0
  5  7  1  0  0  0  0
  6 13  1  0  0  0  0
  7  9  1  0  0  0  0
  7 13  1  0  0  0  0
  8  9  1  0  0  0  0
  9 12  1  0  0  0  0
  1 14  1  0  0  0  0
  2 15  1  0  0  0  0
  4 16  1  0  0  0  0
  4 17  1  0  0  0  0
  5 18  1  0  0  0  0
  5 19  1  0  0  0  0
  6 20  1  0  0  0  0
  6 21  1  0  0  0  0
  7 22  1  0  0  0  0
  8 23  1  0  0  0  0
  8 24  1  0  0  0  0
  9 25  1  0  0  0  0
 11 26  1  0  0  0  0
 12 27  1  0  0  0  0
 12 28  1  0  0  0  0
M  END
> <FRED Chemgauss4 score>
-4.882302

$$$$
C82510425	P128945533
  -OEChem-05182014473D

 24 25  0     1  0  0  0  0  0999 V2000
  121.6989  106.7182  106.2049 C   0  0  0  0  0  0  0  0  0  0  0  0
  122.2188  105.8172  107.1040 C   0  0  0  0  0  0  0  0  0  0  0  0
  123.8009  106.7293  105.8704 C   0  0  0  0  0  0  0  0  0  0  0  0
  124.3105  104.5156  109.0145 C   0  0  0  0  0  0  0  0  0  0  0  0
  125.3284  105.5917  108.8005 C   0  0  0  0  0  0  0  0  0  0  0  0
  124.5941  105.0099  107.6153 C   0  0  0  0  0  0  0  0  0  0  0  0
  125.5897  106.0784  104.2044 C   0  0  0  0  0  0  0  0  0  0  0  0
  125.1935  107.0098  105.3482 C   0  0  1  0  0  0  0  0  0  0  0  0
  122.6888  107.2823  105.4398 N   0  0  0  0  0  0  0  0  0  0  0  0
  123.5663  105.8349  106.8775 N   0  0  0  0  0  0  0  0  0  0  0  0
  125.3365  108.3881  104.9384 N   0  0  0  0  0  0  0  0  0  0  0  0
  120.6621  106.9905  106.0696 H   0  0  0  0  0  0  0  0  0  0  0  0
  121.7628  105.1902  107.8576 H   0  0  0  0  0  0  0  0  0  0  0  0
  124.6674  103.5286  109.2822 H   0  0  0  0  0  0  0  0  0  0  0  0
  123.3733  104.7952  109.4804 H   0  0  0  0  0  0  0  0  0  0  0  0
  125.0762  106.5946  109.1231 H   0  0  0  0  0  0  0  0  0  0  0  0
  126.3726  105.3307  108.9223 H   0  0  0  0  0  0  0  0  0  0  0  0
  125.1298  104.3702  106.9482 H   0  0  0  0  0  0  0  0  0  0  0  0
  124.8991  106.1752  103.3595 H   0  0  0  0  0  0  0  0  0  0  0  0
  126.5981  106.3162  103.8474 H   0  0  0  0  0  0  0  0  0  0  0  0
  125.5979  105.0277  104.5154 H   0  0  0  0  0  0  0  0  0  0  0  0
  125.9172  106.8691  106.1605 H   0  0  0  0  0  0  0  0  0  0  0  0
  126.0650  108.6275  104.2899 H   0  0  0  0  0  0  0  0  0  0  0  0
  124.8501  109.0996  105.4541 H   0  0  0  0  0  0  0  0  0  0  0  0
  1  2  2  0  0  0  0
  1  9  1  0  0  0  0
  2 10  1  0  0  0  0
  3  8  1  0  0  0  0
  3  9  2  0  0  0  0
  3 10  1  0  0  0  0
  4  5  1  0  0  0  0
  4  6  1  0  0  0  0
  5  6  1  0  0  0  0
  6 10  1  0  0  0  0
  7  8  1  0  0  0  0
  8 11  1  0  0  0  0
  1 12  1  0  0  0  0
  2 13  1  0  0  0  0
  4 14  1  0  0  0  0
  4 15  1  0  0  0  0
  5 16  1  0  0  0  0
  5 17  1  0  0  0  0
  6 18  1  0  0  0  0
  7 19  1  0  0  0  0
  7 20  1  0  0  0  0
  7 21  1  0  0  0  0
  8 22  1  0  0  0  0
 11 23  1  0  0  0  0
 11 24  1  0  0  0  0
M  END
> <FRED Chemgauss4 score>
-4.869052

$$$$
C93361256	P146174107
  -OEChem-05182014473D

 38 39  0     1  0  0  0  0  0999 V2000
  118.8038  107.7225  105.0149 C   0  0  0  0  0  0  0  0  0  0  0  0
  117.2349  106.4091  106.1175 C   0  0  0  0  0  0  0  0  0  0  0  0
  117.4688  107.6190  105.5020 C   0  0  0  0  0  0  0  0  0  0  0  0
  119.5395  106.5876  105.2769 C   0  0  0  0  0  0  0  0  0  0  0  0
  116.4567  108.6356  105.3844 C   0  0  0  0  0  0  0  0  0  0  0  0
  125.6208  107.2096  106.1093 C   0  0  0  0  0  0  0  0  0  0  0  0
  122.3746  108.6558  107.5212 C   0  0  0  0  0  0  0  0  0  0  0  0
  123.8320  108.2086  107.5011 C   0  0  0  0  0  0  0  0  0  0  0  0
  121.4603  107.6003  106.8978 C   0  0  0  0  0  0  0  0  0  0  0  0
  123.2642  106.7617  105.5110 C   0  0  0  0  0  0  0  0  0  0  0  0
  124.2408  107.7918  106.0896 C   0  0  2  0  0  0  0  0  0  0  0  0
  126.9854  105.3568  107.0515 C   0  0  0  0  0  0  0  0  0  0  0  0
  120.9716  106.3012  104.9288 C   0  0  0  0  0  0  0  0  0  0  0  0
  121.8858  107.2722  105.5300 N   0  0  1  0  0  0  0  0  0  0  0  0
  116.7911  109.8323  104.7417 N   0  0  0  0  0  0  0  0  0  0  0  0
  125.7430  106.0781  106.8931 N   0  0  0  0  0  0  0  0  0  0  0  0
  115.3058  108.4829  105.8516 O   0  0  0  0  0  0  0  0  0  0  0  0
  126.5118  107.7450  105.4603 O   0  0  0  0  0  0  0  0  0  0  0  0
  118.6213  105.4040  106.1066 S   0  0  0  0  0  0  0  0  0  0  0  0
  119.2053  108.5857  104.4983 H   0  0  0  0  0  0  0  0  0  0  0  0
  116.3192  106.0610  106.5759 H   0  0  0  0  0  0  0  0  0  0  0  0
  122.0631  108.8528  108.5531 H   0  0  0  0  0  0  0  0  0  0  0  0
  122.2741  109.6004  106.9716 H   0  0  0  0  0  0  0  0  0  0  0  0
  124.4769  109.0190  107.8615 H   0  0  0  0  0  0  0  0  0  0  0  0
  123.9674  107.3709  108.1980 H   0  0  0  0  0  0  0  0  0  0  0  0
  121.4504  106.7026  107.5300 H   0  0  0  0  0  0  0  0  0  0  0  0
  120.4389  107.9997  106.8832 H   0  0  0  0  0  0  0  0  0  0  0  0
  123.5630  106.5424  104.4775 H   0  0  0  0  0  0  0  0  0  0  0  0
  123.3362  105.8156  106.0659 H   0  0  0  0  0  0  0  0  0  0  0  0
  124.2680  108.6756  105.4398 H   0  0  0  0  0  0  0  0  0  0  0  0
  127.0713  104.5834  106.2838 H   0  0  0  0  0  0  0  0  0  0  0  0
  127.0239  104.8817  108.0355 H   0  0  0  0  0  0  0  0  0  0  0  0
  127.8337  106.0403  106.9589 H   0  0  0  0  0  0  0  0  0  0  0  0
  121.2618  105.3041  105.2774 H   0  0  0  0  0  0  0  0  0  0  0  0
  121.1247  106.3241  103.8447 H   0  0  0  0  0  0  0  0  0  0  0  0
  117.7310  109.9496  104.3790 H   0  0  0  0  0  0  0  0  0  0  0  0
  116.1218  110.5866  104.6274 H   0  0  0  0  0  0  0  0  0  0  0  0
  124.9203  105.7371  107.3813 H   0  0  0  0  0  0  0  0  0  0  0  0
  1  3  1  0  0  0  0
  1  4  2  0  0  0  0
  2  3  2  0  0  0  0
  2 19  1  0  0  0  0
  3  5  1  0  0  0  0
  4 13  1  0  0  0  0
  4 19  1  0  0  0  0
  5 15  1  0  0  0  0
  5 17  2  0  0  0  0
  6 11  1  0  0  0  0
  6 16  1  0  0  0  0
  6 18  2  0  0  0  0
  7  8  1  0  0  0  0
  7  9  1  0  0  0  0
  8 11  1  0  0  0  0
  9 14  1  0  0  0  0
 10 11  1  0  0  0  0
 10 14  1  0  0  0  0
 12 16  1  0  0  0  0
 13 14  1  0  0  0  0
  1 20  1  0  0  0  0
  2 21  1  0  0  0  0
  7 22  1  0  0  0  0
  7 23  1  0  0  0  0
  8 24  1  0  0  0  0
  8 25  1  0  0  0  0
  9 26  1  0  0  0  0
  9 27  1  0  0  0  0
 10 28  1  0  0  0  0
 10 29  1  0  0  0  0
 11 30  1  0  0  0  0
 12 31  1  0  0  0  0
 12 32  1  0  0  0  0
 12 33  1  0  0  0  0
 13 34  1  0  0  0  0
 13 35  1  0  0  0  0
 15 36  1  0  0  0  0
 15 37  1  0  0  0  0
 16 38  1  0  0  0  0
M  END
> <FRED Chemgauss4 score>
-4.866342

$$$$
C82987404	P129754672
  -OEChem-05182014473D

 33 33  0     1  0  0  0  0  0999 V2000
  121.1480  104.7350  107.0015 C   0  0  0  0  0  0  0  0  0  0  0  0
  122.3571  105.4553  106.4029 C   0  0  0  0  0  0  0  0  0  0  0  0
  121.2172  107.2433  105.1552 C   0  0  0  0  0  0  0  0  0  0  0  0
  120.0512  104.3653  106.0061 C   0  0  0  0  0  0  0  0  0  0  0  0
  119.8253  106.6332  105.2936 C   0  0  0  0  0  0  0  0  0  0  0  0
  123.2608  108.6255  108.4389 C   0  0  0  0  0  0  0  0  0  0  0  0
  124.2577  106.7966  105.0673 C   0  0  0  0  0  0  0  0  0  0  0  0
  123.4075  107.5940  106.0663 C   0  0  2  0  0  0  0  0  0  0  0  0
  124.1043  107.8475  107.4264 C   0  0  1  0  0  0  0  0  0  0  0  0
  122.1288  106.9012  106.2563 N   0  0  2  0  0  0  0  0  0  0  0  0
  125.3616  108.5725  107.2139 N   0  0  0  0  0  0  0  0  0  0  0  0
  119.8716  105.2635  104.9221 O   0  0  0  0  0  0  0  0  0  0  0  0
  125.2239  107.6573  104.4715 O   0  0  0  0  0  0  0  0  0  0  0  0
  121.4799  103.8155  107.5004 H   0  0  0  0  0  0  0  0  0  0  0  0
  120.7181  105.3549  107.7997 H   0  0  0  0  0  0  0  0  0  0  0  0
  123.1822  105.3041  107.1116 H   0  0  0  0  0  0  0  0  0  0  0  0
  122.6672  104.9926  105.4576 H   0  0  0  0  0  0  0  0  0  0  0  0
  121.6547  106.9419  104.1945 H   0  0  0  0  0  0  0  0  0  0  0  0
  121.0925  108.3332  105.1363 H   0  0  0  0  0  0  0  0  0  0  0  0
  120.2860  103.3913  105.5627 H   0  0  0  0  0  0  0  0  0  0  0  0
  119.0958  104.2449  106.5300 H   0  0  0  0  0  0  0  0  0  0  0  0
  119.3858  106.7813  106.2874 H   0  0  0  0  0  0  0  0  0  0  0  0
  119.1611  107.1273  104.5758 H   0  0  0  0  0  0  0  0  0  0  0  0
  122.9729  109.6065  108.0487 H   0  0  0  0  0  0  0  0  0  0  0  0
  123.8276  108.8015  109.3607 H   0  0  0  0  0  0  0  0  0  0  0  0
  122.3478  108.0860  108.7125 H   0  0  0  0  0  0  0  0  0  0  0  0
  124.8031  105.9912  105.5687 H   0  0  0  0  0  0  0  0  0  0  0  0
  123.6481  106.3584  104.2697 H   0  0  0  0  0  0  0  0  0  0  0  0
  123.1620  108.5627  105.6113 H   0  0  0  0  0  0  0  0  0  0  0  0
  124.3596  106.8783  107.8744 H   0  0  0  0  0  0  0  0  0  0  0  0
  125.8779  108.3711  106.3888 H   0  0  0  0  0  0  0  0  0  0  0  0
  125.7428  109.0727  107.9836 H   0  0  0  0  0  0  0  0  0  0  0  0
  125.7345  107.1134  103.8518 H   0  0  0  0  0  0  0  0  0  0  0  0
  1  2  1  0  0  0  0
  1  4  1  0  0  0  0
  2 10  1  0  0  0  0
  3  5  1  0  0  0  0
  3 10  1  0  0  0  0
  4 12  1  0  0  0  0
  5 12  1  0  0  0  0
  6  9  1  0  0  0  0
  7  8  1  0  0  0  0
  7 13  1  0  0  0  0
  8  9  1  0  0  0  0
  8 10  1  0  0  0  0
  9 11  1  0  0  0  0
  1 14  1  0  0  0  0
  1 15  1  0  0  0  0
  2 16  1  0  0  0  0
  2 17  1  0  0  0  0
  3 18  1  0  0  0  0
  3 19  1  0  0  0  0
  4 20  1  0  0  0  0
  4 21  1  0  0  0  0
  5 22  1  0  0  0  0
  5 23  1  0  0  0  0
  6 24  1  0  0  0  0
  6 25  1  0  0  0  0
  6 26  1  0  0  0  0
  7 27  1  0  0  0  0
  7 28  1  0  0  0  0
  8 29  1  0  0  0  0
  9 30  1  0  0  0  0
 11 31  1  0  0  0  0
 11 32  1  0  0  0  0
 13 33  1  0  0  0  0
M  END
> <FRED Chemgauss4 score>
-4.858070

$$$$
C37467081	P55708419
  -OEChem-05182014473D

 18 18  0     1  0  0  0  0  0999 V2000
  121.2483  105.1291  106.0204 C   0  0  0  0  0  0  0  0  0  0  0  0
  121.3815  106.0983  105.0507 C   0  0  0  0  0  0  0  0  0  0  0  0
  123.4338  105.4306  106.6222 C   0  0  0  0  0  0  0  0  0  0  0  0
  123.5674  106.3993  105.6520 C   0  0  0  0  0  0  0  0  0  0  0  0
  125.6988  107.2081  106.7450 C   0  0  0  0  0  0  0  0  0  0  0  0
  124.8668  107.0996  105.4574 C   0  0  2  0  0  0  0  0  0  0  0  0
  122.2720  104.7779  106.8237 N   0  0  0  0  0  0  0  0  0  0  0  0
  122.5435  106.7507  104.8490 N   0  0  0  0  0  0  0  0  0  0  0  0
  124.6965  108.4208  104.8746 N   0  0  0  0  0  0  0  0  0  0  0  0
  120.3143  104.6051  106.1817 H   0  0  0  0  0  0  0  0  0  0  0  0
  120.5585  106.3800  104.4057 H   0  0  0  0  0  0  0  0  0  0  0  0
  124.2523  105.1431  107.2717 H   0  0  0  0  0  0  0  0  0  0  0  0
  125.1393  107.7398  107.5225 H   0  0  0  0  0  0  0  0  0  0  0  0
  125.9631  106.2183  107.1340 H   0  0  0  0  0  0  0  0  0  0  0  0
  126.6372  107.7480  106.5750 H   0  0  0  0  0  0  0  0  0  0  0  0
  125.4899  106.5562  104.7239 H   0  0  0  0  0  0  0  0  0  0  0  0
  123.9763  108.5506  104.1933 H   0  0  0  0  0  0  0  0  0  0  0  0
  125.4190  109.0981  105.0133 H   0  0  0  0  0  0  0  0  0  0  0  0
  1  2  2  0  0  0  0
  1  7  1  0  0  0  0
  2  8  1  0  0  0  0
  3  4  1  0  0  0  0
  3  7  2  0  0  0  0
  4  6  1  0  0  0  0
  4  8  2  0  0  0  0
  5  6  1  0  0  0  0
  6  9  1  0  0  0  0
  1 10  1  0  0  0  0
  2 11  1  0  0  0  0
  3 12  1  0  0  0  0
  5 13  1  0  0  0  0
  5 14  1  0  0  0  0
  5 15  1  0  0  0  0
  6 16  1  0  0  0  0
  9 17  1  0  0  0  0
  9 18  1  0  0  0  0
M  END
> <FRED Chemgauss4 score>
-4.844673

$$$$
C01236370	P12545962
  -OEChem-05182014473D

 14 14  0     0  0  0  0  0  0999 V2000
  122.7481  105.0781  106.2847 C   0  0  0  0  0  0  0  0  0  0  0  0
  123.0834  106.2224  105.6745 C   0  0  0  0  0  0  0  0  0  0  0  0
  124.3611  106.8812  106.0886 C   0  0  0  0  0  0  0  0  0  0  0  0
  124.7092  105.0266  107.7044 C   0  0  0  0  0  0  0  0  0  0  0  0
  123.5123  104.4930  107.2561 N   0  0  0  0  0  0  0  0  0  0  0  0
  125.0749  106.2199  107.0799 N   0  0  0  0  0  0  0  0  0  0  0  0
  122.3571  106.8435  104.7032 N   0  0  0  0  0  0  0  0  0  0  0  0
  124.7355  107.9337  105.5763 O   0  0  0  0  0  0  0  0  0  0  0  0
  125.3938  104.4960  108.5796 O   0  0  0  0  0  0  0  0  0  0  0  0
  121.8376  104.5428  106.0390 H   0  0  0  0  0  0  0  0  0  0  0  0
  123.1861  103.6244  107.6693 H   0  0  0  0  0  0  0  0  0  0  0  0
  125.9475  106.6461  107.3792 H   0  0  0  0  0  0  0  0  0  0  0  0
  121.5001  106.4280  104.4066 H   0  0  0  0  0  0  0  0  0  0  0  0
  122.7035  107.6955  104.3170 H   0  0  0  0  0  0  0  0  0  0  0  0
  1  2  2  0  0  0  0
  1  5  1  0  0  0  0
  2  3  1  0  0  0  0
  2  7  1  0  0  0  0
  3  6  1  0  0  0  0
  3  8  2  0  0  0  0
  4  5  1  0  0  0  0
  4  6  1  0  0  0  0
  4  9  2  0  0  0  0
  1 10  1  0  0  0  0
  5 11  1  0  0  0  0
  6 12  1  0  0  0  0
  7 13  1  0  0  0  0
  7 14  1  0  0  0  0
M  END
> <FRED Chemgauss4 score>
-4.836904

$$$$
C82432959	P128823808
  -OEChem-05182014473D

 31 32  0     1  0  0  0  0  0999 V2000
  118.1829  105.8954  105.8991 C   0  0  0  0  0  0  0  0  0  0  0  0
  116.9338  105.4065  104.2464 C   0  0  0  0  0  0  0  0  0  0  0  0
  119.0390  105.5350  104.8854 C   0  0  0  0  0  0  0  0  0  0  0  0
  125.3917  106.3593  106.5284 C   0  0  0  0  0  0  0  0  0  0  0  0
  124.6348  105.0581  106.3481 C   0  0  0  0  0  0  0  0  0  0  0  0
  123.1233  105.1786  106.4771 C   0  0  0  0  0  0  0  0  0  0  0  0
  123.2578  107.6267  106.1324 C   0  0  0  0  0  0  0  0  0  0  0  0
  122.6224  106.3398  105.6233 C   0  0  2  0  0  0  0  0  0  0  0  0
  118.6335  104.7833  102.5209 C   0  0  0  0  0  0  0  0  0  0  0  0
  120.5373  105.4596  104.8243 C   0  0  0  0  0  0  0  0  0  0  0  0
  116.8738  105.8130  105.4951 N   0  0  0  0  0  0  0  0  0  0  0  0
  118.2243  105.2240  103.8334 N   0  0  0  0  0  0  0  0  0  0  0  0
  124.6984  107.5228  106.2797 N   0  0  0  0  0  0  0  0  0  0  0  0
  121.1679  106.4387  105.6973 N   0  0  0  0  0  0  0  0  0  0  0  0
  126.5927  106.3524  106.8050 O   0  0  0  0  0  0  0  0  0  0  0  0
  118.4401  106.2104  106.9002 H   0  0  0  0  0  0  0  0  0  0  0  0
  116.0859  105.2286  103.5991 H   0  0  0  0  0  0  0  0  0  0  0  0
  124.8912  104.6750  105.3530 H   0  0  0  0  0  0  0  0  0  0  0  0
  125.0054  104.3387  107.0869 H   0  0  0  0  0  0  0  0  0  0  0  0
  122.6569  104.2361  106.1656 H   0  0  0  0  0  0  0  0  0  0  0  0
  122.8561  105.3372  107.5303 H   0  0  0  0  0  0  0  0  0  0  0  0
  123.0565  108.4626  105.4535 H   0  0  0  0  0  0  0  0  0  0  0  0
  122.8674  107.9001  107.1204 H   0  0  0  0  0  0  0  0  0  0  0  0
  122.9135  106.1741  104.5783 H   0  0  0  0  0  0  0  0  0  0  0  0
  118.7664  105.6689  101.8939 H   0  0  0  0  0  0  0  0  0  0  0  0
  119.5714  104.2265  102.5997 H   0  0  0  0  0  0  0  0  0  0  0  0
  117.8631  104.1295  102.1027 H   0  0  0  0  0  0  0  0  0  0  0  0
  120.8864  104.4656  105.1245 H   0  0  0  0  0  0  0  0  0  0  0  0
  120.8985  105.6373  103.8059 H   0  0  0  0  0  0  0  0  0  0  0  0
  125.2389  108.3780  106.1921 H   0  0  0  0  0  0  0  0  0  0  0  0
  120.8837  107.3753  105.4152 H   0  0  0  0  0  0  0  0  0  0  0  0
  1  3  2  0  0  0  0
  1 11  1  0  0  0  0
  2 11  2  0  0  0  0
  2 12  1  0  0  0  0
  3 10  1  0  0  0  0
  3 12  1  0  0  0  0
  4  5  1  0  0  0  0
  4 13  1  0  0  0  0
  4 15  2  0  0  0  0
  5  6  1  0  0  0  0
  6  8  1  0  0  0  0
  7  8  1  0  0  0  0
  7 13  1  0  0  0  0
  8 14  1  0  0  0  0
  9 12  1  0  0  0  0
 10 14  1  0  0  0  0
  1 16  1  0  0  0  0
  2 17  1  0  0  0  0
  5 18  1  0  0  0  0
  5 19  1  0  0  0  0
  6 20  1  0  0  0  0
  6 21  1  0  0  0  0
  7 22  1  0  0  0  0
  7 23  1  0  0  0  0
  8 24  1  0  0  0  0
  9 25  1  0  0  0  0
  9 26  1  0  0  0  0
  9 27  1  0  0  0  0
 10 28  1  0  0  0  0
 10 29  1  0  0  0  0
 13 30  1  0  0  0  0
 14 31  1  0  0  0  0
M  END
> <FRED Chemgauss4 score>
-4.834321

$$$$
C83917955	P131300722
  -OEChem-05182014473D

 28 27  0     1  0  0  0  0  0999 V2000
  124.6236  105.0874  106.8584 C   0  0  0  0  0  0  0  0  0  0  0  0
  121.4278  105.7675  108.4780 C   0  0  0  0  0  0  0  0  0  0  0  0
  120.4005  105.5051  106.2542 C   0  0  0  0  0  0  0  0  0  0  0  0
  125.3245  107.5450  106.8515 C   0  0  0  0  0  0  0  0  0  0  0  0
  120.3472  104.0339  105.8849 C   0  0  0  0  0  0  0  0  0  0  0  0
  124.2408  106.5218  107.2080 C   0  0  1  0  0  0  0  0  0  0  0  0
  125.6387  107.5448  105.4274 N   0  0  0  0  0  0  0  0  0  0  0  0
  121.6471  105.7837  107.0100 N   0  0  1  0  0  0  0  0  0  0  0  0
  122.9303  106.7043  104.9562 O   0  0  0  0  0  0  0  0  0  0  0  0
  122.3404  108.2738  106.8315 O   0  0  0  0  0  0  0  0  0  0  0  0
  121.4532  103.7163  105.0495 O   0  0  0  0  0  0  0  0  0  0  0  0
  122.7302  106.9544  106.3711 S   0  0  0  0  0  0  0  0  0  0  0  0
  124.8651  104.9906  105.7943 H   0  0  0  0  0  0  0  0  0  0  0  0
  123.8159  104.3874  107.0928 H   0  0  0  0  0  0  0  0  0  0  0  0
  125.5065  104.7717  107.4252 H   0  0  0  0  0  0  0  0  0  0  0  0
  122.3652  105.9761  109.0002 H   0  0  0  0  0  0  0  0  0  0  0  0
  121.0592  104.7879  108.7943 H   0  0  0  0  0  0  0  0  0  0  0  0
  120.6922  106.5261  108.7587 H   0  0  0  0  0  0  0  0  0  0  0  0
  120.3917  106.1388  105.3617 H   0  0  0  0  0  0  0  0  0  0  0  0
  119.5499  105.7693  106.8896 H   0  0  0  0  0  0  0  0  0  0  0  0
  124.9860  108.5504  107.1279 H   0  0  0  0  0  0  0  0  0  0  0  0
  126.2377  107.3503  107.4263 H   0  0  0  0  0  0  0  0  0  0  0  0
  119.4302  103.8206  105.3269 H   0  0  0  0  0  0  0  0  0  0  0  0
  120.3816  103.3944  106.7729 H   0  0  0  0  0  0  0  0  0  0  0  0
  124.0060  106.5829  108.2774 H   0  0  0  0  0  0  0  0  0  0  0  0
  126.5379  107.8714  105.1434 H   0  0  0  0  0  0  0  0  0  0  0  0
  124.8902  107.4166  104.7800 H   0  0  0  0  0  0  0  0  0  0  0  0
  121.3813  102.7717  104.8378 H   0  0  0  0  0  0  0  0  0  0  0  0
  1  6  1  0  0  0  0
  2  8  1  0  0  0  0
  3  5  1  0  0  0  0
  3  8  1  0  0  0  0
  4  6  1  0  0  0  0
  4  7  1  0  0  0  0
  5 11  1  0  0  0  0
  6 12  1  0  0  0  0
  8 12  1  0  0  0  0
  9 12  2  0  0  0  0
 10 12  2  0  0  0  0
  1 13  1  0  0  0  0
  1 14  1  0  0  0  0
  1 15  1  0  0  0  0
  2 16  1  0  0  0  0
  2 17  1  0  0  0  0
  2 18  1  0  0  0  0
  3 19  1  0  0  0  0
  3 20  1  0  0  0  0
  4 21  1  0  0  0  0
  4 22  1  0  0  0  0
  5 23  1  0  0  0  0
  5 24  1  0  0  0  0
  6 25  1  0  0  0  0
  7 26  1  0  0  0  0
  7 27  1  0  0  0  0
 11 28  1  0  0  0  0
M  END
> <FRED Chemgauss4 score>
-4.833374

$$$$
C82471531	P128883666
  -OEChem-05182014473D

 23 23  0     1  0  0  0  0  0999 V2000
  125.9676  104.5827  109.0106 C   0  0  0  0  0  0  0  0  0  0  0  0
  126.6389  105.4713  108.2834 C   0  0  0  0  0  0  0  0  0  0  0  0
  124.5605  104.3945  108.6553 C   0  0  0  0  0  0  0  0  0  0  0  0
  125.9667  106.2068  107.1871 C   0  0  0  0  0  0  0  0  0  0  0  0
  123.3153  107.8780  106.4988 C   0  0  0  0  0  0  0  0  0  0  0  0
  122.7738  105.7006  105.3778 C   0  0  0  0  0  0  0  0  0  0  0  0
  123.8829  106.5867  105.9239 C   0  0  2  0  0  0  0  0  0  0  0  0
  123.9221  105.0033  107.7145 N   0  0  0  0  0  0  0  0  0  0  0  0
  124.6189  105.9207  106.9660 N   0  0  0  0  0  0  0  0  0  0  0  0
  123.2154  109.1638  108.5031 N   0  0  0  0  0  0  0  0  0  0  0  0
  123.6209  108.0225  107.8423 N   0  0  0  0  0  0  0  0  0  0  0  0
  126.6176  107.0215  106.5331 O   0  0  0  0  0  0  0  0  0  0  0  0
  122.6977  108.6973  105.8209 O   0  0  0  0  0  0  0  0  0  0  0  0
  126.4058  104.0178  109.8211 H   0  0  0  0  0  0  0  0  0  0  0  0
  127.6858  105.6784  108.4720 H   0  0  0  0  0  0  0  0  0  0  0  0
  124.0186  103.6552  109.2674 H   0  0  0  0  0  0  0  0  0  0  0  0
  122.0449  105.4520  106.1561 H   0  0  0  0  0  0  0  0  0  0  0  0
  122.2428  106.1999  104.5603 H   0  0  0  0  0  0  0  0  0  0  0  0
  123.1748  104.7583  104.9873 H   0  0  0  0  0  0  0  0  0  0  0  0
  124.6008  106.8239  105.1312 H   0  0  0  0  0  0  0  0  0  0  0  0
  123.0031  108.8903  109.4618 H   0  0  0  0  0  0  0  0  0  0  0  0
  122.3282  109.4461  108.0885 H   0  0  0  0  0  0  0  0  0  0  0  0
  124.1324  107.3202  108.3673 H   0  0  0  0  0  0  0  0  0  0  0  0
  1  2  2  0  0  0  0
  1  3  1  0  0  0  0
  2  4  1  0  0  0  0
  3  8  2  0  0  0  0
  4  9  1  0  0  0  0
  4 12  2  0  0  0  0
  5  7  1  0  0  0  0
  5 11  1  0  0  0  0
  5 13  2  0  0  0  0
  6  7  1  0  0  0  0
  7  9  1  0  0  0  0
  8  9  1  0  0  0  0
 10 11  1  0  0  0  0
  1 14  1  0  0  0  0
  2 15  1  0  0  0  0
  3 16  1  0  0  0  0
  6 17  1  0  0  0  0
  6 18  1  0  0  0  0
  6 19  1  0  0  0  0
  7 20  1  0  0  0  0
 10 21  1  0  0  0  0
 10 22  1  0  0  0  0
 11 23  1  0  0  0  0
M  END
> <FRED Chemgauss4 score>
-4.831386

$$$$
C70294142	P108366885
  -OEChem-05182014473D

 41 42  0     1  0  0  0  0  0999 V2000
  120.9478  106.2967  108.0836 C   0  0  0  0  0  0  0  0  0  0  0  0
  122.4696  108.1344  107.7044 C   0  0  0  0  0  0  0  0  0  0  0  0
  120.1457  107.1232  108.8704 C   0  0  0  0  0  0  0  0  0  0  0  0
  121.6675  108.9610  108.4912 C   0  0  0  0  0  0  0  0  0  0  0  0
  122.1098  106.8023  107.5006 C   0  0  0  0  0  0  0  0  0  0  0  0
  120.5055  108.4554  109.0741 C   0  0  0  0  0  0  0  0  0  0  0  0
  125.2910  106.4570  106.4122 C   0  0  0  0  0  0  0  0  0  0  0  0
  124.5542  107.1580  105.2937 C   0  0  0  0  0  0  0  0  0  0  0  0
  122.9831  105.9021  106.6465 C   0  0  1  0  0  0  0  0  0  0  0  0
  123.2401  106.3757  105.2038 C   0  0  1  0  0  0  0  0  0  0  0  0
  125.2744  105.8491  109.4057 C   0  0  0  0  0  0  0  0  0  0  0  0
  123.3352  104.3531  108.8675 C   0  0  0  0  0  0  0  0  0  0  0  0
  125.6117  103.8383  107.9505 C   0  0  0  0  0  0  0  0  0  0  0  0
  117.9413  109.4217  109.1390 C   0  0  0  0  0  0  0  0  0  0  0  0
  124.6373  104.9584  108.3329 C   0  0  0  0  0  0  0  0  0  0  0  0
  124.3418  105.7578  107.1598 N   0  0  0  0  0  0  0  0  0  0  0  0
  122.1705  107.1252  104.5645 N   0  0  0  0  0  0  0  0  0  0  0  0
  126.4934  106.5457  106.6122 O   0  0  0  0  0  0  0  0  0  0  0  0
  119.4809  109.5114  110.0792 S   0  0  0  0  0  0  0  0  0  0  0  0
  120.6598  105.2600  107.9304 H   0  0  0  0  0  0  0  0  0  0  0  0
  123.3734  108.5368  107.2546 H   0  0  0  0  0  0  0  0  0  0  0  0
  119.2440  106.7107  109.3169 H   0  0  0  0  0  0  0  0  0  0  0  0
  121.9646  109.9965  108.6386 H   0  0  0  0  0  0  0  0  0  0  0  0
  124.4037  108.2041  105.5820 H   0  0  0  0  0  0  0  0  0  0  0  0
  125.1228  107.1077  104.3611 H   0  0  0  0  0  0  0  0  0  0  0  0
  122.5029  104.8854  106.6249 H   0  0  0  0  0  0  0  0  0  0  0  0
  123.4330  105.4833  104.5923 H   0  0  0  0  0  0  0  0  0  0  0  0
  126.2094  106.2948  109.0466 H   0  0  0  0  0  0  0  0  0  0  0  0
  124.6033  106.6646  109.6971 H   0  0  0  0  0  0  0  0  0  0  0  0
  125.5155  105.2721  110.3061 H   0  0  0  0  0  0  0  0  0  0  0  0
  122.8602  103.7109  108.1166 H   0  0  0  0  0  0  0  0  0  0  0  0
  122.6129  105.1357  109.1275 H   0  0  0  0  0  0  0  0  0  0  0  0
  123.5145  103.7485  109.7635 H   0  0  0  0  0  0  0  0  0  0  0  0
  125.1807  103.1847  107.1832 H   0  0  0  0  0  0  0  0  0  0  0  0
  126.5517  104.2434  107.5598 H   0  0  0  0  0  0  0  0  0  0  0  0
  125.8503  103.2086  108.8155 H   0  0  0  0  0  0  0  0  0  0  0  0
  117.1736  110.0296  109.6240 H   0  0  0  0  0  0  0  0  0  0  0  0
  117.5968  108.3858  109.0891 H   0  0  0  0  0  0  0  0  0  0  0  0
  118.1037  109.7937  108.1245 H   0  0  0  0  0  0  0  0  0  0  0  0
  121.2251  106.8538  104.7456 H   0  0  0  0  0  0  0  0  0  0  0  0
  122.4059  107.7458  103.8161 H   0  0  0  0  0  0  0  0  0  0  0  0
  1  3  2  0  0  0  0
  1  5  1  0  0  0  0
  2  4  1  0  0  0  0
  2  5  2  0  0  0  0
  3  6  1  0  0  0  0
  4  6  2  0  0  0  0
  5  9  1  0  0  0  0
  6 19  1  0  0  0  0
  7  8  1  0  0  0  0
  7 16  1  0  0  0  0
  7 18  2  0  0  0  0
  8 10  1  0  0  0  0
  9 10  1  0  0  0  0
  9 16  1  0  0  0  0
 10 17  1  0  0  0  0
 11 15  1  0  0  0  0
 12 15  1  0  0  0  0
 13 15  1  0  0  0  0
 14 19  1  0  0  0  0
 15 16  1  0  0  0  0
  1 20  1  0  0  0  0
  2 21  1  0  0  0  0
  3 22  1  0  0  0  0
  4 23  1  0  0  0  0
  8 24  1  0  0  0  0
  8 25  1  0  0  0  0
  9 26  1  0  0  0  0
 10 27  1  0  0  0  0
 11 28  1  0  0  0  0
 11 29  1  0  0  0  0
 11 30  1  0  0  0  0
 12 31  1  0  0  0  0
 12 32  1  0  0  0  0
 12 33  1  0  0  0  0
 13 34  1  0  0  0  0
 13 35  1  0  0  0  0
 13 36  1  0  0  0  0
 14 37  1  0  0  0  0
 14 38  1  0  0  0  0
 14 39  1  0  0  0  0
 17 40  1  0  0  0  0
 17 41  1  0  0  0  0
M  END
> <FRED Chemgauss4 score>
-4.831160

$$$$
C37730086	P56098235
  -OEChem-05182014473D

 21 21  0     0  0  0  0  0  0999 V2000
  123.4145  105.6924  106.7066 C   0  0  0  0  0  0  0  0  0  0  0  0
  124.7016  107.1347  105.9191 C   0  0  0  0  0  0  0  0  0  0  0  0
  120.9212  105.6306  104.1614 C   0  0  0  0  0  0  0  0  0  0  0  0
  118.5225  105.8999  104.7364 C   0  0  0  0  0  0  0  0  0  0  0  0
  121.1507  106.2617  105.5217 C   0  0  0  0  0  0  0  0  0  0  0  0
  124.7089  106.1243  106.7572 N   0  0  0  0  0  0  0  0  0  0  0  0
  123.4545  107.2885  105.3986 N   0  0  0  0  0  0  0  0  0  0  0  0
  122.6067  106.3719  105.8898 N   0  0  0  0  0  0  0  0  0  0  0  0
  125.8117  107.8648  105.6652 N   0  0  0  0  0  0  0  0  0  0  0  0
  117.2793  105.6462  104.1832 N   0  0  0  0  0  0  0  0  0  0  0  0
  119.5580  105.5044  103.8845 N   0  0  0  0  0  0  0  0  0  0  0  0
  121.8306  105.2831  103.4128 O   0  0  0  0  0  0  0  0  0  0  0  0
  118.6695  106.4122  105.8444 O   0  0  0  0  0  0  0  0  0  0  0  0
  123.0679  104.8509  107.2931 H   0  0  0  0  0  0  0  0  0  0  0  0
  120.6914  107.2582  105.5283 H   0  0  0  0  0  0  0  0  0  0  0  0
  120.6227  105.6688  106.2794 H   0  0  0  0  0  0  0  0  0  0  0  0
  126.7016  107.6919  106.1526 H   0  0  0  0  0  0  0  0  0  0  0  0
  125.7943  108.6856  105.0443 H   0  0  0  0  0  0  0  0  0  0  0  0
  117.2256  105.2212  103.2637 H   0  0  0  0  0  0  0  0  0  0  0  0
  116.4206  105.8738  104.6728 H   0  0  0  0  0  0  0  0  0  0  0  0
  119.2981  105.0921  102.9922 H   0  0  0  0  0  0  0  0  0  0  0  0
  1  6  2  0  0  0  0
  1  8  1  0  0  0  0
  2  6  1  0  0  0  0
  2  7  2  0  0  0  0
  2  9  1  0  0  0  0
  3  5  1  0  0  0  0
  3 11  1  0  0  0  0
  3 12  2  0  0  0  0
  4 10  1  0  0  0  0
  4 11  1  0  0  0  0
  4 13  2  0  0  0  0
  5  8  1  0  0  0  0
  7  8  1  0  0  0  0
  1 14  1  0  0  0  0
  5 15  1  0  0  0  0
  5 16  1  0  0  0  0
  9 17  1  0  0  0  0
  9 18  1  0  0  0  0
 10 19  1  0  0  0  0
 10 20  1  0  0  0  0
 11 21  1  0  0  0  0
M  END
> <FRED Chemgauss4 score>
-4.819941

$$$$
C54404494	P81861931
  -OEChem-05182014473D

 17 17  0     0  0  0  0  0  0999 V2000
  122.5391  107.4829  106.1461 C   0  0  0  0  0  0  0  0  0  0  0  0
  124.4962  107.3535  105.4316 C   0  0  0  0  0  0  0  0  0  0  0  0
  125.2475  105.4790  106.9789 C   0  0  0  0  0  0  0  0  0  0  0  0
  125.8165  105.9246  108.3192 C   0  0  0  0  0  0  0  0  0  0  0  0
  123.3906  108.0323  105.2307 N   0  0  0  0  0  0  0  0  0  0  0  0
  123.0484  106.5070  106.9008 N   0  0  0  0  0  0  0  0  0  0  0  0
  124.3009  106.4440  106.4238 N   0  0  0  0  0  0  0  0  0  0  0  0
  125.6963  107.4498  104.8173 N   0  0  0  0  0  0  0  0  0  0  0  0
  126.4652  107.1809  108.1703 O   0  0  0  0  0  0  0  0  0  0  0  0
  121.5154  107.8038  106.2668 H   0  0  0  0  0  0  0  0  0  0  0  0
  124.7256  104.5193  107.0701 H   0  0  0  0  0  0  0  0  0  0  0  0
  126.0505  105.3563  106.2430 H   0  0  0  0  0  0  0  0  0  0  0  0
  125.0048  106.0502  109.0427 H   0  0  0  0  0  0  0  0  0  0  0  0
  126.5363  105.2020  108.7170 H   0  0  0  0  0  0  0  0  0  0  0  0
  125.8580  108.0957  104.0316 H   0  0  0  0  0  0  0  0  0  0  0  0
  126.4773  106.8171  105.0420 H   0  0  0  0  0  0  0  0  0  0  0  0
  126.8100  107.4231  109.0448 H   0  0  0  0  0  0  0  0  0  0  0  0
  1  5  1  0  0  0  0
  1  6  2  0  0  0  0
  2  5  2  0  0  0  0
  2  7  1  0  0  0  0
  2  8  1  0  0  0  0
  3  4  1  0  0  0  0
  3  7  1  0  0  0  0
  4  9  1  0  0  0  0
  6  7  1  0  0  0  0
  1 10  1  0  0  0  0
  3 11  1  0  0  0  0
  3 12  1  0  0  0  0
  4 13  1  0  0  0  0
  4 14  1  0  0  0  0
  8 15  1  0  0  0  0
  8 16  1  0  0  0  0
  9 17  1  0  0  0  0
M  END
> <FRED Chemgauss4 score>
-4.807038

$$$$
C86313331	P135162295
  -OEChem-05182014473D

 32 31  0     1  0  0  0  0  0999 V2000
  126.4592  105.8281  108.0613 C   0  0  0  0  0  0  0  0  0  0  0  0
  122.8800  106.8577  105.5796 C   0  0  0  0  0  0  0  0  0  0  0  0
  121.5398  104.7453  105.8478 C   0  0  0  0  0  0  0  0  0  0  0  0
  121.6661  104.9656  108.7537 C   0  0  0  0  0  0  0  0  0  0  0  0
  123.3745  107.3148  109.7018 C   0  0  0  0  0  0  0  0  0  0  0  0
  125.7889  105.4278  109.3074 C   0  0  0  0  0  0  0  0  0  0  0  0
  124.2985  105.1805  109.0989 C   0  0  0  0  0  0  0  0  0  0  0  0
  122.6403  105.6215  106.4540 C   0  0  2  0  0  0  0  0  0  0  0  0
  122.3832  106.0349  107.9266 C   0  0  2  0  0  0  0  0  0  0  0  0
  126.9901  106.1441  107.0791 N   0  0  0  0  0  0  0  0  0  0  0  0
  124.5829  108.3363  104.8101 N   0  0  0  0  0  0  0  0  0  0  0  0
  124.2106  107.2410  105.5620 N   0  0  0  0  0  0  0  0  0  0  0  0
  123.6347  106.3849  108.6051 N   0  0  1  0  0  0  0  0  0  0  0  0
  121.9749  107.4222  104.9675 O   0  0  0  0  0  0  0  0  0  0  0  0
  120.5821  105.2785  105.8555 H   0  0  0  0  0  0  0  0  0  0  0  0
  121.7508  104.4826  104.8063 H   0  0  0  0  0  0  0  0  0  0  0  0
  121.4034  103.8204  106.4159 H   0  0  0  0  0  0  0  0  0  0  0  0
  122.2429  104.0357  108.7828 H   0  0  0  0  0  0  0  0  0  0  0  0
  121.5386  105.3012  109.7896 H   0  0  0  0  0  0  0  0  0  0  0  0
  120.6706  104.7364  108.3593 H   0  0  0  0  0  0  0  0  0  0  0  0
  122.8781  108.2123  109.3237 H   0  0  0  0  0  0  0  0  0  0  0  0
  124.3132  107.6070  110.1803 H   0  0  0  0  0  0  0  0  0  0  0  0
  122.7307  106.8455  110.4506 H   0  0  0  0  0  0  0  0  0  0  0  0
  125.9161  106.2241  110.0500 H   0  0  0  0  0  0  0  0  0  0  0  0
  126.2704  104.5303  109.7132 H   0  0  0  0  0  0  0  0  0  0  0  0
  124.1590  104.3810  108.3640 H   0  0  0  0  0  0  0  0  0  0  0  0
  123.8216  104.8602  110.0319 H   0  0  0  0  0  0  0  0  0  0  0  0
  123.5706  105.0356  106.4185 H   0  0  0  0  0  0  0  0  0  0  0  0
  121.7537  106.9325  107.9403 H   0  0  0  0  0  0  0  0  0  0  0  0
  125.3449  108.7928  105.3098 H   0  0  0  0  0  0  0  0  0  0  0  0
  123.8009  108.9897  104.8318 H   0  0  0  0  0  0  0  0  0  0  0  0
  124.9300  106.7528  106.0860 H   0  0  0  0  0  0  0  0  0  0  0  0
  1  6  1  0  0  0  0
  1 10  3  0  0  0  0
  2  8  1  0  0  0  0
  2 12  1  0  0  0  0
  2 14  2  0  0  0  0
  3  8  1  0  0  0  0
  4  9  1  0  0  0  0
  5 13  1  0  0  0  0
  6  7  1  0  0  0  0
  7 13  1  0  0  0  0
  8  9  1  0  0  0  0
  9 13  1  0  0  0  0
 11 12  1  0  0  0  0
  3 15  1  0  0  0  0
  3 16  1  0  0  0  0
  3 17  1  0  0  0  0
  4 18  1  0  0  0  0
  4 19  1  0  0  0  0
  4 20  1  0  0  0  0
  5 21  1  0  0  0  0
  5 22  1  0  0  0  0
  5 23  1  0  0  0  0
  6 24  1  0  0  0  0
  6 25  1  0  0  0  0
  7 26  1  0  0  0  0
  7 27  1  0  0  0  0
  8 28  1  0  0  0  0
  9 29  1  0  0  0  0
 11 30  1  0  0  0  0
 11 31  1  0  0  0  0
 12 32  1  0  0  0  0
M  END
> <FRED Chemgauss4 score>
-4.806774

$$$$
C98178888	P156130704
  -OEChem-05182014473D

 17 18  0     1  0  0  0  0  0999 V2000
  124.8475  104.4897  107.5923 C   0  0  0  0  0  0  0  0  0  0  0  0
  123.6673  107.0597  105.3901 C   0  0  0  0  0  0  0  0  0  0  0  0
  121.8989  104.8584  105.6758 C   0  0  0  0  0  0  0  0  0  0  0  0
  123.7402  106.1112  106.5497 C   0  0  1  0  0  0  0  0  0  0  0  0
  123.3359  104.7444  105.9905 C   0  0  1  0  0  0  0  0  0  0  0  0
  122.5631  107.0040  104.6834 N   0  0  0  0  0  0  0  0  0  0  0  0
  124.9539  105.7716  107.2751 N   0  0  0  0  0  0  0  0  0  0  0  0
  121.6266  106.0340  104.9757 N   0  0  0  0  0  0  0  0  0  0  0  0
  123.8477  103.8466  107.0078 N   0  3  0  0  0  0  0  0  0  0  0  0
  124.6196  107.8473  105.2210 O   0  5  0  0  0  0  0  0  0  0  0  0
  121.0727  103.9937  105.9444 O   0  0  0  0  0  0  0  0  0  0  0  0
  125.5235  104.0065  108.2747 H   0  0  0  0  0  0  0  0  0  0  0  0
  123.0203  106.4676  107.3037 H   0  0  0  0  0  0  0  0  0  0  0  0
  123.8654  104.5080  105.0563 H   0  0  0  0  0  0  0  0  0  0  0  0
  125.6908  106.3554  107.6530 H   0  0  0  0  0  0  0  0  0  0  0  0
  120.7041  106.2081  104.5902 H   0  0  0  0  0  0  0  0  0  0  0  0
  123.6653  102.8666  107.1893 H   0  0  0  0  0  0  0  0  0  0  0  0
  1  7  1  0  0  0  0
  1  9  2  0  0  0  0
  2  4  1  0  0  0  0
  2  6  2  0  0  0  0
  2 10  1  0  0  0  0
  3  5  1  0  0  0  0
  3  8  1  0  0  0  0
  3 11  2  0  0  0  0
  4  5  1  0  0  0  0
  4  7  1  0  0  0  0
  5  9  1  0  0  0  0
  6  8  1  0  0  0  0
  1 12  1  0  0  0  0
  4 13  1  0  0  0  0
  5 14  1  0  0  0  0
  7 15  1  0  0  0  0
  8 16  1  0  0  0  0
  9 17  1  0  0  0  0
M  CHG  2   9   1  10  -1
M  END
> <FRED Chemgauss4 score>
-4.799494

$$$$
C87229336	P136499715
  -OEChem-05182014473D

 30 31  0     1  0  0  0  0  0999 V2000
  124.4972  106.1578  106.9897 C   0  0  0  0  0  0  0  0  0  0  0  0
  122.7889  107.3952  106.7712 C   0  0  0  0  0  0  0  0  0  0  0  0
  126.1690  103.8246  105.6218 C   0  0  0  0  0  0  0  0  0  0  0  0
  125.2687  103.7287  106.8302 C   0  0  0  0  0  0  0  0  0  0  0  0
  127.3433  104.5948  106.1775 C   0  0  0  0  0  0  0  0  0  0  0  0
  125.4683  105.0895  107.5094 C   0  0  2  0  0  0  0  0  0  0  0  0
  125.3979  104.9882  109.0350 C   0  0  0  0  0  0  0  0  0  0  0  0
  120.4258  107.0475  107.6005 C   0  0  0  0  0  0  0  0  0  0  0  0
  121.4748  107.9994  106.9798 C   0  0  1  0  0  0  0  0  0  0  0  0
  124.7544  106.9696  105.9454 N   0  5  0  0  0  0  0  0  0  0  0  0
  123.2896  106.4009  107.5165 N   0  0  0  0  0  0  0  0  0  0  0  0
  123.6491  107.7711  105.8045 N   0  0  0  0  0  0  0  0  0  0  0  0
  121.4855  109.2381  107.8528 N   0  3  0  0  0  0  0  0  0  0  0  0
  126.8189  105.4864  107.1712 O   0  0  0  0  0  0  0  0  0  0  0  0
  126.4547  102.8535  105.2090 H   0  0  0  0  0  0  0  0  0  0  0  0
  125.6782  104.4023  104.8301 H   0  0  0  0  0  0  0  0  0  0  0  0
  124.2281  103.5107  106.5689 H   0  0  0  0  0  0  0  0  0  0  0  0
  125.6288  102.9178  107.4762 H   0  0  0  0  0  0  0  0  0  0  0  0
  128.0581  103.9278  106.6711 H   0  0  0  0  0  0  0  0  0  0  0  0
  127.8725  105.1677  105.4109 H   0  0  0  0  0  0  0  0  0  0  0  0
  126.0919  104.2265  109.3911 H   0  0  0  0  0  0  0  0  0  0  0  0
  124.3881  104.7186  109.3451 H   0  0  0  0  0  0  0  0  0  0  0  0
  125.6622  105.9453  109.4853 H   0  0  0  0  0  0  0  0  0  0  0  0
  120.7827  106.6240  108.5459 H   0  0  0  0  0  0  0  0  0  0  0  0
  119.4712  107.5472  107.7999 H   0  0  0  0  0  0  0  0  0  0  0  0
  120.2292  106.2141  106.9167 H   0  0  0  0  0  0  0  0  0  0  0  0
  121.0298  108.3787  106.0312 H   0  0  0  0  0  0  0  0  0  0  0  0
  122.3934  109.6862  107.7875 H   0  0  0  0  0  0  0  0  0  0  0  0
  121.3051  108.9706  108.8150 H   0  0  0  0  0  0  0  0  0  0  0  0
  120.7649  109.8780  107.5352 H   0  0  0  0  0  0  0  0  0  0  0  0
  1  6  1  0  0  0  0
  1 10  1  0  0  0  0
  1 11  2  0  0  0  0
  2  9  1  0  0  0  0
  2 11  1  0  0  0  0
  2 12  2  0  0  0  0
  3  4  1  0  0  0  0
  3  5  1  0  0  0  0
  4  6  1  0  0  0  0
  5 14  1  0  0  0  0
  6  7  1  0  0  0  0
  6 14  1  0  0  0  0
  8  9  1  0  0  0  0
  9 13  1  0  0  0  0
 10 12  1  0  0  0  0
  3 15  1  0  0  0  0
  3 16  1  0  0  0  0
  4 17  1  0  0  0  0
  4 18  1  0  0  0  0
  5 19  1  0  0  0  0
  5 20  1  0  0  0  0
  7 21  1  0  0  0  0
  7 22  1  0  0  0  0
  7 23  1  0  0  0  0
  8 24  1  0  0  0  0
  8 25  1  0  0  0  0
  8 26  1  0  0  0  0
  9 27  1  0  0  0  0
 13 28  1  0  0  0  0
 13 29  1  0  0  0  0
 13 30  1  0  0  0  0
M  CHG  2  10  -1  13   1
M  END
> <FRED Chemgauss4 score>
-4.789202

$$$$
C91548579	P143269050
  -OEChem-05182014473D

 55 57  0     1  0  0  0  0  0999 V2000
  125.9983  104.5787  108.2479 C   0  0  0  0  0  0  0  0  0  0  0  0
  126.0859  105.5844  107.2668 C   0  0  0  0  0  0  0  0  0  0  0  0
  127.2737  104.0776  108.3408 C   0  0  0  0  0  0  0  0  0  0  0  0
  122.6665  106.6137  105.7462 C   0  0  0  0  0  0  0  0  0  0  0  0
  120.0514  106.4509  103.3151 C   0  0  0  0  0  0  0  0  0  0  0  0
  121.0365  104.1480  103.6952 C   0  0  0  0  0  0  0  0  0  0  0  0
  117.9377  104.5342  102.1628 C   0  0  0  0  0  0  0  0  0  0  0  0
  120.4048  106.8027  104.7608 C   0  0  0  0  0  0  0  0  0  0  0  0
  121.3149  104.5456  105.1419 C   0  0  0  0  0  0  0  0  0  0  0  0
  119.4080  104.3947  101.7207 C   0  0  2  0  0  0  0  0  0  0  0  0
  118.4261  104.3793  103.6233 C   0  0  1  0  0  0  0  0  0  0  0  0
  119.8275  104.9303  103.1443 C   0  0  0  0  0  0  0  0  0  0  0  0
  124.8097  104.1554  109.0085 C   0  0  0  0  0  0  0  0  0  0  0  0
  127.8605  103.0160  109.1760 C   0  0  0  0  0  0  0  0  0  0  0  0
  124.9807  106.4746  106.7525 C   0  0  0  0  0  0  0  0  0  0  0  0
  123.7760  105.7068  106.2152 C   0  0  0  0  0  0  0  0  0  0  0  0
  115.5580  105.5199  105.5896 C   0  0  0  0  0  0  0  0  0  0  0  0
  116.4955  104.5103  104.9572 C   0  0  0  0  0  0  0  0  0  0  0  0
  127.3195  105.7160  106.7719 N   0  0  0  0  0  0  0  0  0  0  0  0
  128.0188  104.7863  107.4448 N   0  0  0  0  0  0  0  0  0  0  0  0
  121.5256  105.9938  105.2390 N   0  0  0  0  0  0  0  0  0  0  0  0
  114.3015  104.8380  105.9904 N   0  3  0  0  0  0  0  0  0  0  0  0
  119.7411  105.2232  100.6396 O   0  5  0  0  0  0  0  0  0  0  0  0
  122.8124  107.8361  105.8271 O   0  0  0  0  0  0  0  0  0  0  0  0
  117.7097  105.1467  104.6052 O   0  0  0  0  0  0  0  0  0  0  0  0
  119.1672  107.0209  103.0076 H   0  0  0  0  0  0  0  0  0  0  0  0
  120.8825  106.7710  102.6733 H   0  0  0  0  0  0  0  0  0  0  0  0
  121.9208  104.3615  103.0809 H   0  0  0  0  0  0  0  0  0  0  0  0
  120.8622  103.0668  103.6435 H   0  0  0  0  0  0  0  0  0  0  0  0
  117.4563  105.4999  101.9618 H   0  0  0  0  0  0  0  0  0  0  0  0
  117.2704  103.7392  101.8148 H   0  0  0  0  0  0  0  0  0  0  0  0
  120.6426  107.8696  104.8251 H   0  0  0  0  0  0  0  0  0  0  0  0
  119.5652  106.6241  105.4385 H   0  0  0  0  0  0  0  0  0  0  0  0
  120.4632  104.2981  105.7858 H   0  0  0  0  0  0  0  0  0  0  0  0
  122.1731  103.9826  105.5127 H   0  0  0  0  0  0  0  0  0  0  0  0
  119.6981  103.3564  101.5189 H   0  0  0  0  0  0  0  0  0  0  0  0
  118.4594  103.3259  103.9288 H   0  0  0  0  0  0  0  0  0  0  0  0
  124.2670  103.3489  108.4866 H   0  0  0  0  0  0  0  0  0  0  0  0
  125.0701  103.7838  110.0155 H   0  0  0  0  0  0  0  0  0  0  0  0
  124.0992  104.9861  109.1674 H   0  0  0  0  0  0  0  0  0  0  0  0
  127.8007  102.0340  108.6762 H   0  0  0  0  0  0  0  0  0  0  0  0
  128.9236  103.2069  109.4073 H   0  0  0  0  0  0  0  0  0  0  0  0
  127.3512  102.9238  110.1520 H   0  0  0  0  0  0  0  0  0  0  0  0
  125.3732  107.1568  105.9872 H   0  0  0  0  0  0  0  0  0  0  0  0
  124.6459  107.1174  107.5771 H   0  0  0  0  0  0  0  0  0  0  0  0
  124.0607  105.0582  105.3850 H   0  0  0  0  0  0  0  0  0  0  0  0
  123.3651  105.0740  107.0039 H   0  0  0  0  0  0  0  0  0  0  0  0
  115.2703  106.3098  104.8900 H   0  0  0  0  0  0  0  0  0  0  0  0
  115.9836  105.9530  106.4986 H   0  0  0  0  0  0  0  0  0  0  0  0
  116.7259  103.7167  105.6749 H   0  0  0  0  0  0  0  0  0  0  0  0
  116.0580  104.0580  104.0612 H   0  0  0  0  0  0  0  0  0  0  0  0
  129.0054  104.6879  107.2390 H   0  0  0  0  0  0  0  0  0  0  0  0
  114.0561  104.1007  105.3218 H   0  0  0  0  0  0  0  0  0  0  0  0
  113.5218  105.5026  106.0297 H   0  0  0  0  0  0  0  0  0  0  0  0
  114.3982  104.4074  106.9159 H   0  0  0  0  0  0  0  0  0  0  0  0
  1  2  1  0  0  0  0
  1  3  2  0  0  0  0
  1 13  1  0  0  0  0
  2 15  1  0  0  0  0
  2 19  2  0  0  0  0
  3 14  1  0  0  0  0
  3 20  1  0  0  0  0
  4 16  1  0  0  0  0
  4 21  1  0  0  0  0
  4 24  2  0  0  0  0
  5  8  1  0  0  0  0
  5 12  1  0  0  0  0
  6  9  1  0  0  0  0
  6 12  1  0  0  0  0
  7 10  1  0  0  0  0
  7 11  1  0  0  0  0
  8 21  1  0  0  0  0
  9 21  1  0  0  0  0
 10 12  1  0  0  0  0
 10 23  1  0  0  0  0
 11 12  1  0  0  0  0
 11 25  1  0  0  0  0
 15 16  1  0  0  0  0
 17 18  1  0  0  0  0
 17 22  1  0  0  0  0
 18 25  1  0  0  0  0
 19 20  1  0  0  0  0
  5 26  1  0  0  0  0
  5 27  1  0  0  0  0
  6 28  1  0  0  0  0
  6 29  1  0  0  0  0
  7 30  1  0  0  0  0
  7 31  1  0  0  0  0
  8 32  1  0  0  0  0
  8 33  1  0  0  0  0
  9 34  1  0  0  0  0
  9 35  1  0  0  0  0
 10 36  1  0  0  0  0
 11 37  1  0  0  0  0
 13 38  1  0  0  0  0
 13 39  1  0  0  0  0
 13 40  1  0  0  0  0
 14 41  1  0  0  0  0
 14 42  1  0  0  0  0
 14 43  1  0  0  0  0
 15 44  1  0  0  0  0
 15 45  1  0  0  0  0
 16 46  1  0  0  0  0
 16 47  1  0  0  0  0
 17 48  1  0  0  0  0
 17 49  1  0  0  0  0
 18 50  1  0  0  0  0
 18 51  1  0  0  0  0
 20 52  1  0  0  0  0
 22 53  1  0  0  0  0
 22 54  1  0  0  0  0
 22 55  1  0  0  0  0
M  CHG  2  22   1  23  -1
M  END
> <FRED Chemgauss4 score>
-4.785349

$$$$
C82844521	P129492673
  -OEChem-05182014473D

 24 24  0     1  0  0  0  0  0999 V2000
  125.7306  105.1021  106.8105 C   0  0  0  0  0  0  0  0  0  0  0  0
  124.6481  104.5159  108.5469 C   0  0  0  0  0  0  0  0  0  0  0  0
  125.2021  106.2632  107.3236 C   0  0  0  0  0  0  0  0  0  0  0  0
  123.7681  106.7194  109.3375 C   0  0  0  0  0  0  0  0  0  0  0  0
  122.7549  106.5744  105.4960 C   0  0  0  0  0  0  0  0  0  0  0  0
  124.7769  107.8656  105.4273 C   0  0  0  0  0  0  0  0  0  0  0  0
  125.2919  107.6987  106.8592 C   0  0  2  0  0  0  0  0  0  0  0  0
  125.3818  104.0180  107.5765 N   0  0  0  0  0  0  0  0  0  0  0  0
  124.5109  105.8716  108.4354 N   0  0  0  0  0  0  0  0  0  0  0  0
  123.3321  107.9145  105.4301 N   0  0  0  0  0  0  0  0  0  0  0  0
  126.6566  108.1122  106.9338 O   0  0  0  0  0  0  0  0  0  0  0  0
  126.3447  104.9892  105.9287 H   0  0  0  0  0  0  0  0  0  0  0  0
  124.1944  103.9501  109.3492 H   0  0  0  0  0  0  0  0  0  0  0  0
  124.4489  107.0514  110.1258 H   0  0  0  0  0  0  0  0  0  0  0  0
  123.3723  107.5778  108.7876 H   0  0  0  0  0  0  0  0  0  0  0  0
  122.9358  106.1523  109.7635 H   0  0  0  0  0  0  0  0  0  0  0  0
  123.0961  106.0624  106.3995 H   0  0  0  0  0  0  0  0  0  0  0  0
  123.0582  105.9888  104.6239 H   0  0  0  0  0  0  0  0  0  0  0  0
  121.6633  106.6335  105.5160 H   0  0  0  0  0  0  0  0  0  0  0  0
  125.0958  107.0277  104.7978 H   0  0  0  0  0  0  0  0  0  0  0  0
  125.1538  108.7905  104.9771 H   0  0  0  0  0  0  0  0  0  0  0  0
  124.7280  108.3446  107.5435 H   0  0  0  0  0  0  0  0  0  0  0  0
  122.9993  108.3734  104.5781 H   0  0  0  0  0  0  0  0  0  0  0  0
  126.9191  108.0228  107.8623 H   0  0  0  0  0  0  0  0  0  0  0  0
  1  3  2  0  0  0  0
  1  8  1  0  0  0  0
  2  8  2  0  0  0  0
  2  9  1  0  0  0  0
  3  7  1  0  0  0  0
  3  9  1  0  0  0  0
  4  9  1  0  0  0  0
  5 10  1  0  0  0  0
  6  7  1  0  0  0  0
  6 10  1  0  0  0  0
  7 11  1  0  0  0  0
  1 12  1  0  0  0  0
  2 13  1  0  0  0  0
  4 14  1  0  0  0  0
  4 15  1  0  0  0  0
  4 16  1  0  0  0  0
  5 17  1  0  0  0  0
  5 18  1  0  0  0  0
  5 19  1  0  0  0  0
  6 20  1  0  0  0  0
  6 21  1  0  0  0  0
  7 22  1  0  0  0  0
 10 23  1  0  0  0  0
 11 24  1  0  0  0  0
M  END
> <FRED Chemgauss4 score>
-4.769636

$$$$
C31319449	P46145132
  -OEChem-05182014473D

 22 22  0     0  0  0  0  0  0999 V2000
  123.4025  106.7246  105.8855 C   0  0  0  0  0  0  0  0  0  0  0  0
  123.8403  104.8913  107.5472 C   0  0  0  0  0  0  0  0  0  0  0  0
  121.7346  104.9386  106.4714 C   0  0  0  0  0  0  0  0  0  0  0  0
  125.5678  106.6147  107.0999 C   0  0  0  0  0  0  0  0  0  0  0  0
  121.1471  106.7146  104.8420 C   0  0  0  0  0  0  0  0  0  0  0  0
  122.8799  104.1021  106.7925 N   0  0  0  0  0  0  0  0  0  0  0  0
  124.2648  106.0530  106.7723 N   0  0  0  0  0  0  0  0  0  0  0  0
  122.1552  106.1007  105.6948 N   0  0  0  0  0  0  0  0  0  0  0  0
  123.7224  107.7663  105.3052 O   0  0  0  0  0  0  0  0  0  0  0  0
  126.5747  105.6977  106.7174 O   0  0  0  0  0  0  0  0  0  0  0  0
  120.3566  105.6979  104.2569 O   0  0  0  0  0  0  0  0  0  0  0  0
  123.4233  105.2411  108.4985 H   0  0  0  0  0  0  0  0  0  0  0  0
  124.7161  104.2714  107.7665 H   0  0  0  0  0  0  0  0  0  0  0  0
  121.0232  104.3545  105.8780 H   0  0  0  0  0  0  0  0  0  0  0  0
  121.2201  105.2898  107.3733 H   0  0  0  0  0  0  0  0  0  0  0  0
  125.6130  106.7890  108.1777 H   0  0  0  0  0  0  0  0  0  0  0  0
  125.6903  107.5522  106.5523 H   0  0  0  0  0  0  0  0  0  0  0  0
  121.6517  107.2894  104.0616 H   0  0  0  0  0  0  0  0  0  0  0  0
  120.5211  107.3659  105.4567 H   0  0  0  0  0  0  0  0  0  0  0  0
  123.3155  103.7882  105.9258 H   0  0  0  0  0  0  0  0  0  0  0  0
  126.4874  105.5616  105.7586 H   0  0  0  0  0  0  0  0  0  0  0  0
  119.6956  106.1379  103.6956 H   0  0  0  0  0  0  0  0  0  0  0  0
  1  7  1  0  0  0  0
  1  8  1  0  0  0  0
  1  9  2  0  0  0  0
  2  6  1  0  0  0  0
  2  7  1  0  0  0  0
  3  6  1  0  0  0  0
  3  8  1  0  0  0  0
  4  7  1  0  0  0  0
  4 10  1  0  0  0  0
  5  8  1  0  0  0  0
  5 11  1  0  0  0  0
  2 12  1  0  0  0  0
  2 13  1  0  0  0  0
  3 14  1  0  0  0  0
  3 15  1  0  0  0  0
  4 16  1  0  0  0  0
  4 17  1  0  0  0  0
  5 18  1  0  0  0  0
  5 19  1  0  0  0  0
  6 20  1  0  0  0  0
 10 21  1  0  0  0  0
 11 22  1  0  0  0  0
M  END
> <FRED Chemgauss4 score>
-4.765483

$$$$
C59493440	P90563089
  -OEChem-05182014473D

 20 20  0     1  0  0  0  0  0999 V2000
  123.8395  105.8065  108.4271 C   0  0  0  0  0  0  0  0  0  0  0  0
  125.0745  104.1877  107.4607 C   0  0  0  0  0  0  0  0  0  0  0  0
  123.1718  105.3893  107.1371 C   0  0  1  0  0  0  0  0  0  0  0  0
  124.8582  106.9106  106.0351 C   0  0  0  0  0  0  0  0  0  0  0  0
  123.4323  106.3579  105.9897 C   0  0  2  0  0  0  0  0  0  0  0  0
  125.0746  107.8225  104.9346 N   0  0  0  0  0  0  0  0  0  0  0  0
  125.1854  105.3602  108.2711 O   0  0  0  0  0  0  0  0  0  0  0  0
  123.7863  104.1325  106.8396 O   0  0  0  0  0  0  0  0  0  0  0  0
  122.5222  107.4553  106.0917 O   0  0  0  0  0  0  0  0  0  0  0  0
  123.8574  106.8972  108.5548 H   0  0  0  0  0  0  0  0  0  0  0  0
  123.3858  105.3525  109.3152 H   0  0  0  0  0  0  0  0  0  0  0  0
  125.8455  104.2044  106.6841 H   0  0  0  0  0  0  0  0  0  0  0  0
  125.2161  103.3026  108.0886 H   0  0  0  0  0  0  0  0  0  0  0  0
  122.1085  105.2277  107.2689 H   0  0  0  0  0  0  0  0  0  0  0  0
  125.0355  107.4474  106.9733 H   0  0  0  0  0  0  0  0  0  0  0  0
  125.5871  106.0970  105.9619 H   0  0  0  0  0  0  0  0  0  0  0  0
  123.2490  105.8632  105.0254 H   0  0  0  0  0  0  0  0  0  0  0  0
  126.0118  107.9709  104.6062 H   0  0  0  0  0  0  0  0  0  0  0  0
  124.3277  108.4344  104.6592 H   0  0  0  0  0  0  0  0  0  0  0  0
  121.6323  107.0768  106.0362 H   0  0  0  0  0  0  0  0  0  0  0  0
  1  3  1  0  0  0  0
  1  7  1  0  0  0  0
  2  7  1  0  0  0  0
  2  8  1  0  0  0  0
  3  5  1  0  0  0  0
  3  8  1  0  0  0  0
  4  5  1  0  0  0  0
  4  6  1  0  0  0  0
  5  9  1  0  0  0  0
  1 10  1  0  0  0  0
  1 11  1  0  0  0  0
  2 12  1  0  0  0  0
  2 13  1  0  0  0  0
  3 14  1  0  0  0  0
  4 15  1  0  0  0  0
  4 16  1  0  0  0  0
  5 17  1  0  0  0  0
  6 18  1  0  0  0  0
  6 19  1  0  0  0  0
  9 20  1  0  0  0  0
M  END
> <FRED Chemgauss4 score>
-4.762777

$$$$
C95636640	P150389147
  -OEChem-05182014473D

 21 22  0     1  0  0  0  0  0999 V2000
  125.6820  104.7582  107.9861 C   0  0  0  0  0  0  0  0  0  0  0  0
  124.4956  104.0754  107.7123 C   0  0  0  0  0  0  0  0  0  0  0  0
  124.7718  106.8081  107.0387 C   0  0  0  0  0  0  0  0  0  0  0  0
  123.5989  106.1222  106.7771 C   0  0  0  0  0  0  0  0  0  0  0  0
  125.8187  106.1163  107.6535 C   0  0  0  0  0  0  0  0  0  0  0  0
  123.4698  104.7827  107.1162 C   0  0  0  0  0  0  0  0  0  0  0  0
  121.4405  105.4143  106.4749 C   0  0  0  0  0  0  0  0  0  0  0  0
  122.3636  106.5806  106.0984 C   0  0  2  0  0  0  0  0  0  0  0  0
  127.0289  106.7858  107.9378 N   0  0  0  0  0  0  0  0  0  0  0  0
  122.5420  106.6931  104.6748 N   0  0  0  0  0  0  0  0  0  0  0  0
  122.2504  104.2510  106.7810 O   0  0  0  0  0  0  0  0  0  0  0  0
  126.5034  104.2254  108.4597 H   0  0  0  0  0  0  0  0  0  0  0  0
  124.3876  103.0269  107.9658 H   0  0  0  0  0  0  0  0  0  0  0  0
  124.8735  107.8539  106.7662 H   0  0  0  0  0  0  0  0  0  0  0  0
  120.8588  105.6545  107.3752 H   0  0  0  0  0  0  0  0  0  0  0  0
  120.7256  105.1556  105.6855 H   0  0  0  0  0  0  0  0  0  0  0  0
  121.9835  107.5226  106.5172 H   0  0  0  0  0  0  0  0  0  0  0  0
  127.7559  106.2944  108.4156 H   0  0  0  0  0  0  0  0  0  0  0  0
  127.1016  107.7628  107.7414 H   0  0  0  0  0  0  0  0  0  0  0  0
  123.3871  107.1026  104.3360 H   0  0  0  0  0  0  0  0  0  0  0  0
  121.7475  106.5517  104.0871 H   0  0  0  0  0  0  0  0  0  0  0  0
  1  2  1  0  0  0  0
  1  5  2  0  0  0  0
  2  6  2  0  0  0  0
  3  4  2  0  0  0  0
  3  5  1  0  0  0  0
  4  6  1  0  0  0  0
  4  8  1  0  0  0  0
  5  9  1  0  0  0  0
  6 11  1  0  0  0  0
  7  8  1  0  0  0  0
  7 11  1  0  0  0  0
  8 10  1  0  0  0  0
  1 12  1  0  0  0  0
  2 13  1  0  0  0  0
  3 14  1  0  0  0  0
  7 15  1  0  0  0  0
  7 16  1  0  0  0  0
  8 17  1  0  0  0  0
  9 18  1  0  0  0  0
  9 19  1  0  0  0  0
 10 20  1  0  0  0  0
 10 21  1  0  0  0  0
M  END
> <FRED Chemgauss4 score>
-4.751766

$$$$
C85086716	P133135802
  -OEChem-05182014473D

 21 21  0     0  0  0  0  0  0999 V2000
  124.0829  106.1701  108.1506 C   0  0  0  0  0  0  0  0  0  0  0  0
  122.1061  106.8122  106.7875 C   0  0  0  0  0  0  0  0  0  0  0  0
  123.1820  105.2397  108.9241 C   0  0  0  0  0  0  0  0  0  0  0  0
  121.2896  105.8541  107.6198 C   0  0  0  0  0  0  0  0  0  0  0  0
  124.3080  107.8108  106.3557 C   0  0  0  0  0  0  0  0  0  0  0  0
  124.8404  107.0824  105.1352 C   0  0  0  0  0  0  0  0  0  0  0  0
  121.8370  105.7891  108.9647 N   0  0  0  0  0  0  0  0  0  0  0  0
  123.4628  106.9113  107.1320 N   0  0  0  0  0  0  0  0  0  0  0  0
  125.2918  106.1962  108.3920 O   0  0  0  0  0  0  0  0  0  0  0  0
  121.5807  107.3965  105.8375 O   0  0  0  0  0  0  0  0  0  0  0  0
  125.6349  107.9734  104.3628 O   0  0  0  0  0  0  0  0  0  0  0  0
  123.2091  104.2433  108.4694 H   0  0  0  0  0  0  0  0  0  0  0  0
  123.5666  105.1630  109.9465 H   0  0  0  0  0  0  0  0  0  0  0  0
  120.2639  106.2346  107.6710 H   0  0  0  0  0  0  0  0  0  0  0  0
  121.2700  104.8730  107.1326 H   0  0  0  0  0  0  0  0  0  0  0  0
  125.1236  108.1557  106.9992 H   0  0  0  0  0  0  0  0  0  0  0  0
  123.7030  108.6705  106.0523 H   0  0  0  0  0  0  0  0  0  0  0  0
  124.0093  106.7421  104.5097 H   0  0  0  0  0  0  0  0  0  0  0  0
  125.4521  106.2191  105.4167 H   0  0  0  0  0  0  0  0  0  0  0  0
  121.2471  105.1839  109.5354 H   0  0  0  0  0  0  0  0  0  0  0  0
  125.9539  107.4705  103.5962 H   0  0  0  0  0  0  0  0  0  0  0  0
  1  3  1  0  0  0  0
  1  8  1  0  0  0  0
  1  9  2  0  0  0  0
  2  4  1  0  0  0  0
  2  8  1  0  0  0  0
  2 10  2  0  0  0  0
  3  7  1  0  0  0  0
  4  7  1  0  0  0  0
  5  6  1  0  0  0  0
  5  8  1  0  0  0  0
  6 11  1  0  0  0  0
  3 12  1  0  0  0  0
  3 13  1  0  0  0  0
  4 14  1  0  0  0  0
  4 15  1  0  0  0  0
  5 16  1  0  0  0  0
  5 17  1  0  0  0  0
  6 18  1  0  0  0  0
  6 19  1  0  0  0  0
  7 20  1  0  0  0  0
 11 21  1  0  0  0  0
M  END
> <FRED Chemgauss4 score>
-4.751005

$$$$
C43423581	P65690109
  -OEChem-05182014473D

 43 45  0     1  0  0  0  0  0999 V2000
  123.0771  104.8184  109.6242 C   0  0  0  0  0  0  0  0  0  0  0  0
  122.8556  106.0255  108.9004 C   0  0  0  0  0  0  0  0  0  0  0  0
  123.8601  103.9296  108.9210 C   0  0  0  0  0  0  0  0  0  0  0  0
  123.4780  106.0135  107.6715 C   0  0  0  0  0  0  0  0  0  0  0  0
  119.2352  108.4041  107.3446 C   0  0  0  0  0  0  0  0  0  0  0  0
  120.7615  108.4309  107.1632 C   0  0  0  0  0  0  0  0  0  0  0  0
  118.7089  107.3086  106.4067 C   0  0  0  0  0  0  0  0  0  0  0  0
  122.3173  105.6410  105.0758 C   0  0  0  0  0  0  0  0  0  0  0  0
  121.0629  105.4505  104.2103 C   0  0  0  0  0  0  0  0  0  0  0  0
  121.0684  107.0957  106.4922 C   0  0  1  0  0  0  0  0  0  0  0  0
  119.8987  106.9803  105.5192 C   0  0  1  0  0  0  0  0  0  0  0  0
  124.3111  102.5802  109.3252 C   0  0  0  0  0  0  0  0  0  0  0  0
  126.0483  107.3728  106.6404 C   0  0  0  0  0  0  0  0  0  0  0  0
  123.4889  107.0994  106.6039 C   0  0  1  0  0  0  0  0  0  0  0  0
  124.8091  107.1012  105.7855 C   0  0  1  0  0  0  0  0  0  0  0  0
  122.3175  106.9607  105.7415 N   0  0  1  0  0  0  0  0  0  0  0  0
  124.7508  108.0955  104.7313 N   0  0  0  0  0  0  0  0  0  0  0  0
  119.8625  105.6759  104.9637 O   0  0  0  0  0  0  0  0  0  0  0  0
  124.3249  104.5512  107.3945 S   0  0  0  0  0  0  0  0  0  0  0  0
  122.6811  104.6168  110.6115 H   0  0  0  0  0  0  0  0  0  0  0  0
  122.2698  106.8588  109.2672 H   0  0  0  0  0  0  0  0  0  0  0  0
  118.9671  108.1732  108.3813 H   0  0  0  0  0  0  0  0  0  0  0  0
  118.8032  109.3805  107.1008 H   0  0  0  0  0  0  0  0  0  0  0  0
  121.0412  109.2707  106.5149 H   0  0  0  0  0  0  0  0  0  0  0  0
  121.2835  108.5543  108.1171 H   0  0  0  0  0  0  0  0  0  0  0  0
  118.3897  106.4285  106.9777 H   0  0  0  0  0  0  0  0  0  0  0  0
  117.8446  107.6434  105.8245 H   0  0  0  0  0  0  0  0  0  0  0  0
  122.3515  104.8423  105.8287 H   0  0  0  0  0  0  0  0  0  0  0  0
  123.2041  105.5394  104.4397 H   0  0  0  0  0  0  0  0  0  0  0  0
  121.0748  106.1240  103.3446 H   0  0  0  0  0  0  0  0  0  0  0  0
  121.0269  104.4248  103.8295 H   0  0  0  0  0  0  0  0  0  0  0  0
  121.0076  106.2939  107.2450 H   0  0  0  0  0  0  0  0  0  0  0  0
  119.9596  107.7233  104.7100 H   0  0  0  0  0  0  0  0  0  0  0  0
  123.5878  101.8119  109.0101 H   0  0  0  0  0  0  0  0  0  0  0  0
  125.2886  102.3247  108.8846 H   0  0  0  0  0  0  0  0  0  0  0  0
  124.4359  102.4990  110.4175 H   0  0  0  0  0  0  0  0  0  0  0  0
  125.9624  108.3288  107.1688 H   0  0  0  0  0  0  0  0  0  0  0  0
  126.9607  107.3912  106.0368 H   0  0  0  0  0  0  0  0  0  0  0  0
  126.1747  106.5908  107.3979 H   0  0  0  0  0  0  0  0  0  0  0  0
  123.4030  108.0739  107.1037 H   0  0  0  0  0  0  0  0  0  0  0  0
  124.9464  106.1372  105.2810 H   0  0  0  0  0  0  0  0  0  0  0  0
  123.8770  108.2506  104.2668 H   0  0  0  0  0  0  0  0  0  0  0  0
  125.6107  108.4495  104.3587 H   0  0  0  0  0  0  0  0  0  0  0  0
  1  2  1  0  0  0  0
  1  3  2  0  0  0  0
  2  4  2  0  0  0  0
  3 12  1  0  0  0  0
  3 19  1  0  0  0  0
  4 14  1  0  0  0  0
  4 19  1  0  0  0  0
  5  6  1  0  0  0  0
  5  7  1  0  0  0  0
  6 10  1  0  0  0  0
  7 11  1  0  0  0  0
  8  9  1  0  0  0  0
  8 16  1  0  0  0  0
  9 18  1  0  0  0  0
 10 11  1  0  0  0  0
 10 16  1  0  0  0  0
 11 18  1  0  0  0  0
 13 15  1  0  0  0  0
 14 15  1  0  0  0  0
 14 16  1  0  0  0  0
 15 17  1  0  0  0  0
  1 20  1  0  0  0  0
  2 21  1  0  0  0  0
  5 22  1  0  0  0  0
  5 23  1  0  0  0  0
  6 24  1  0  0  0  0
  6 25  1  0  0  0  0
  7 26  1  0  0  0  0
  7 27  1  0  0  0  0
  8 28  1  0  0  0  0
  8 29  1  0  0  0  0
  9 30  1  0  0  0  0
  9 31  1  0  0  0  0
 10 32  1  0  0  0  0
 11 33  1  0  0  0  0
 12 34  1  0  0  0  0
 12 35  1  0  0  0  0
 12 36  1  0  0  0  0
 13 37  1  0  0  0  0
 13 38  1  0  0  0  0
 13 39  1  0  0  0  0
 14 40  1  0  0  0  0
 15 41  1  0  0  0  0
 17 42  1  0  0  0  0
 17 43  1  0  0  0  0
M  END
> <FRED Chemgauss4 score>
-4.743698

$$$$
C73658704	P114715255
  -OEChem-05182014473D

 15 15  0     0  0  0  0  0  0999 V2000
  124.6897  107.2522  105.5856 C   0  0  0  0  0  0  0  0  0  0  0  0
  125.6686  106.7608  106.6063 C   0  0  0  0  0  0  0  0  0  0  0  0
  122.9163  105.9438  106.4045 C   0  0  0  0  0  0  0  0  0  0  0  0
  123.9875  105.1525  107.1397 C   0  0  0  0  0  0  0  0  0  0  0  0
  123.4642  106.8974  105.4363 N   0  0  0  0  0  0  0  0  0  0  0  0
  124.9615  106.0869  107.6878 N   0  0  0  0  0  0  0  0  0  0  0  0
  125.2532  108.1326  104.7284 O   0  0  0  0  0  0  0  0  0  0  0  0
  126.3699  106.0772  106.1149 H   0  0  0  0  0  0  0  0  0  0  0  0
  126.2321  107.6076  107.0101 H   0  0  0  0  0  0  0  0  0  0  0  0
  122.2577  105.2470  105.8742 H   0  0  0  0  0  0  0  0  0  0  0  0
  122.2913  106.4938  107.1185 H   0  0  0  0  0  0  0  0  0  0  0  0
  123.5253  104.5819  107.9523 H   0  0  0  0  0  0  0  0  0  0  0  0
  124.4733  104.4310  106.4713 H   0  0  0  0  0  0  0  0  0  0  0  0
  125.6330  105.5865  108.2689 H   0  0  0  0  0  0  0  0  0  0  0  0
  124.6109  108.4466  104.0692 H   0  0  0  0  0  0  0  0  0  0  0  0
  1  2  1  0  0  0  0
  1  5  2  0  0  0  0
  1  7  1  0  0  0  0
  2  6  1  0  0  0  0
  3  4  1  0  0  0  0
  3  5  1  0  0  0  0
  4  6  1  0  0  0  0
  2  8  1  0  0  0  0
  2  9  1  0  0  0  0
  3 10  1  0  0  0  0
  3 11  1  0  0  0  0
  4 12  1  0  0  0  0
  4 13  1  0  0  0  0
  6 14  1  0  0  0  0
  7 15  1  0  0  0  0
M  END
> <FRED Chemgauss4 score>
-4.742446

$$$$
C34874693	P90744606
  -OEChem-05182014473D

 15 14  0     1  0  0  0  0  0999 V2000
  124.6716  104.9555  107.9670 C   0  0  0  0  0  0  0  0  0  0  0  0
  124.7011  107.1157  105.8304 C   0  0  0  0  0  0  0  0  0  0  0  0
  125.1494  106.3791  108.1967 C   0  0  2  0  0  0  0  0  0  0  0  0
  125.7427  106.9980  106.9254 C   0  0  1  0  0  0  0  0  0  0  0  0
  126.1488  106.3560  109.2634 N   0  0  0  0  0  0  0  0  0  0  0  0
  123.5222  104.5592  108.1340 O   0  0  0  0  0  0  0  0  0  0  0  0
  124.3513  108.1774  105.3246 O   0  0  0  0  0  0  0  0  0  0  0  0
  126.8661  106.2782  106.4512 O   0  0  0  0  0  0  0  0  0  0  0  0
  125.4405  104.2598  107.5876 H   0  0  0  0  0  0  0  0  0  0  0  0
  124.2307  106.1663  105.5205 H   0  0  0  0  0  0  0  0  0  0  0  0
  124.2825  106.9602  108.5317 H   0  0  0  0  0  0  0  0  0  0  0  0
  126.0751  108.0225  107.1315 H   0  0  0  0  0  0  0  0  0  0  0  0
  126.0447  105.6793  109.9870 H   0  0  0  0  0  0  0  0  0  0  0  0
  126.7686  107.1323  109.3400 H   0  0  0  0  0  0  0  0  0  0  0  0
  127.2240  106.7737  105.6949 H   0  0  0  0  0  0  0  0  0  0  0  0
  1  3  1  0  0  0  0
  1  6  2  0  0  0  0
  2  4  1  0  0  0  0
  2  7  2  0  0  0  0
  3  4  1  0  0  0  0
  3  5  1  0  0  0  0
  4  8  1  0  0  0  0
  1  9  1  0  0  0  0
  2 10  1  0  0  0  0
  3 11  1  0  0  0  0
  4 12  1  0  0  0  0
  5 13  1  0  0  0  0
  5 14  1  0  0  0  0
  8 15  1  0  0  0  0
M  END
> <FRED Chemgauss4 score>
-4.740604

$$$$
C33505934	P90697611
  -OEChem-05182014473D

 16 15  0     0  0  0  0  0  0999 V2000
  123.6800  108.5902  106.8945 C   0  0  0  0  0  0  0  0  0  0  0  0
  124.6136  106.9362  105.3758 C   0  0  0  0  0  0  0  0  0  0  0  0
  122.3671  106.6691  106.2267 C   0  0  0  0  0  0  0  0  0  0  0  0
  123.3974  107.6308  105.8213 N   0  0  0  0  0  0  0  0  0  0  0  0
  124.2728  107.9819  108.0403 O   0  0  0  0  0  0  0  0  0  0  0  0
  125.6427  107.8025  104.9057 O   0  0  0  0  0  0  0  0  0  0  0  0
  121.1174  107.2904  106.5206 O   0  0  0  0  0  0  0  0  0  0  0  0
  124.3919  109.3487  106.5514 H   0  0  0  0  0  0  0  0  0  0  0  0
  122.7758  109.1150  107.2232 H   0  0  0  0  0  0  0  0  0  0  0  0
  124.3725  106.2275  104.5755 H   0  0  0  0  0  0  0  0  0  0  0  0
  125.0219  106.3410  106.2009 H   0  0  0  0  0  0  0  0  0  0  0  0
  122.6699  106.0923  107.1081 H   0  0  0  0  0  0  0  0  0  0  0  0
  122.1718  105.9579  105.4162 H   0  0  0  0  0  0  0  0  0  0  0  0
  124.4195  108.6926  108.6872 H   0  0  0  0  0  0  0  0  0  0  0  0
  126.3898  107.2393  104.6408 H   0  0  0  0  0  0  0  0  0  0  0  0
  120.5069  106.5784  106.7766 H   0  0  0  0  0  0  0  0  0  0  0  0
  1  4  1  0  0  0  0
  1  5  1  0  0  0  0
  2  4  1  0  0  0  0
  2  6  1  0  0  0  0
  3  4  1  0  0  0  0
  3  7  1  0  0  0  0
  1  8  1  0  0  0  0
  1  9  1  0  0  0  0
  2 10  1  0  0  0  0
  2 11  1  0  0  0  0
  3 12  1  0  0  0  0
  3 13  1  0  0  0  0
  5 14  1  0  0  0  0
  6 15  1  0  0  0  0
  7 16  1  0  0  0  0
M  END
> <FRED Chemgauss4 score>
-4.727871

$$$$
C04218922	P10279791
  -OEChem-05182014473D

 23 23  0     1  0  0  0  0  0999 V2000
  121.7625  105.9400  105.7286 C   0  0  0  0  0  0  0  0  0  0  0  0
  120.0240  104.4789  105.7277 C   0  0  0  0  0  0  0  0  0  0  0  0
  121.6738  105.4007  107.1487 C   0  0  2  0  0  0  0  0  0  0  0  0
  125.4986  103.2264  107.1524 C   0  0  0  0  0  0  0  0  0  0  0  0
  122.9437  104.6854  107.5606 C   0  0  0  0  0  0  0  0  0  0  0  0
  124.1435  105.6211  107.5490 C   0  0  0  0  0  0  0  0  0  0  0  0
  120.7742  105.3545  104.9756 N   0  0  0  0  0  0  0  0  0  0  0  0
  120.5548  104.4990  107.0182 N   0  0  0  0  0  0  0  0  0  0  0  0
  122.5883  106.7561  105.3436 O   0  0  0  0  0  0  0  0  0  0  0  0
  119.0718  103.8132  105.3450 O   0  0  0  0  0  0  0  0  0  0  0  0
  126.7525  105.5015  107.4427 O   0  0  0  0  0  0  0  0  0  0  0  0
  125.5667  104.5007  109.4336 O   0  0  0  0  0  0  0  0  0  0  0  0
  125.6251  104.7800  108.0086 S   0  0  0  0  0  0  0  0  0  0  0  0
  121.3995  106.2018  107.8407 H   0  0  0  0  0  0  0  0  0  0  0  0
  126.3852  102.6334  107.3823 H   0  0  0  0  0  0  0  0  0  0  0  0
  124.5976  102.7162  107.4960 H   0  0  0  0  0  0  0  0  0  0  0  0
  125.4399  103.4273  106.0816 H   0  0  0  0  0  0  0  0  0  0  0  0
  123.1266  103.8404  106.8837 H   0  0  0  0  0  0  0  0  0  0  0  0
  122.8171  104.2582  108.5642 H   0  0  0  0  0  0  0  0  0  0  0  0
  124.3114  106.0387  106.5518 H   0  0  0  0  0  0  0  0  0  0  0  0
  124.0119  106.4438  108.2582 H   0  0  0  0  0  0  0  0  0  0  0  0
  120.6160  105.5439  103.9926 H   0  0  0  0  0  0  0  0  0  0  0  0
  120.1679  103.9632  107.7889 H   0  0  0  0  0  0  0  0  0  0  0  0
  1  3  1  0  0  0  0
  1  7  1  0  0  0  0
  1  9  2  0  0  0  0
  2  7  1  0  0  0  0
  2  8  1  0  0  0  0
  2 10  2  0  0  0  0
  3  5  1  0  0  0  0
  3  8  1  0  0  0  0
  4 13  1  0  0  0  0
  5  6  1  0  0  0  0
  6 13  1  0  0  0  0
 11 13  2  0  0  0  0
 12 13  2  0  0  0  0
  3 14  1  0  0  0  0
  4 15  1  0  0  0  0
  4 16  1  0  0  0  0
  4 17  1  0  0  0  0
  5 18  1  0  0  0  0
  5 19  1  0  0  0  0
  6 20  1  0  0  0  0
  6 21  1  0  0  0  0
  7 22  1  0  0  0  0
  8 23  1  0  0  0  0
M  END
> <FRED Chemgauss4 score>
-4.700671

$$$$
C39065565	P59186052
  -OEChem-05182014473D

 20 20  0     1  0  0  0  0  0999 V2000
  125.4285  105.3076  107.1973 C   0  0  0  0  0  0  0  0  0  0  0  0
  123.9440  106.9684  105.9901 C   0  0  0  0  0  0  0  0  0  0  0  0
  123.8457  104.3666  108.8403 C   0  0  0  0  0  0  0  0  0  0  0  0
  122.7641  105.1054  108.0845 C   0  0  0  0  0  0  0  0  0  0  0  0
  124.2351  105.5234  106.2682 C   0  0  2  0  0  0  0  0  0  0  0  0
  125.1544  104.8485  108.4604 N   0  0  0  0  0  0  0  0  0  0  0  0
  124.7013  109.1762  106.4539 N   0  0  0  0  0  0  0  0  0  0  0  0
  124.8242  107.8142  106.6373 N   0  0  0  0  0  0  0  0  0  0  0  0
  123.0307  107.3101  105.2421 O   0  0  0  0  0  0  0  0  0  0  0  0
  123.0044  104.9571  106.6861 O   0  0  0  0  0  0  0  0  0  0  0  0
  126.9964  105.6487  106.7130 S   0  0  0  0  0  0  0  0  0  0  0  0
  123.7346  104.4886  109.9213 H   0  0  0  0  0  0  0  0  0  0  0  0
  123.8250  103.2984  108.5989 H   0  0  0  0  0  0  0  0  0  0  0  0
  121.7832  104.6745  108.3074 H   0  0  0  0  0  0  0  0  0  0  0  0
  122.7319  106.1683  108.3498 H   0  0  0  0  0  0  0  0  0  0  0  0
  124.4706  105.0681  105.2983 H   0  0  0  0  0  0  0  0  0  0  0  0
  125.9284  104.7038  109.1015 H   0  0  0  0  0  0  0  0  0  0  0  0
  124.9742  109.6185  107.3305 H   0  0  0  0  0  0  0  0  0  0  0  0
  123.7075  109.3707  106.3385 H   0  0  0  0  0  0  0  0  0  0  0  0
  125.5508  107.4391  107.2389 H   0  0  0  0  0  0  0  0  0  0  0  0
  1  5  1  0  0  0  0
  1  6  1  0  0  0  0
  1 11  2  0  0  0  0
  2  5  1  0  0  0  0
  2  8  1  0  0  0  0
  2  9  2  0  0  0  0
  3  4  1  0  0  0  0
  3  6  1  0  0  0  0
  4 10  1  0  0  0  0
  5 10  1  0  0  0  0
  7  8  1  0  0  0  0
  3 12  1  0  0  0  0
  3 13  1  0  0  0  0
  4 14  1  0  0  0  0
  4 15  1  0  0  0  0
  5 16  1  0  0  0  0
  6 17  1  0  0  0  0
  7 18  1  0  0  0  0
  7 19  1  0  0  0  0
  8 20  1  0  0  0  0
M  END
> <FRED Chemgauss4 score>
-4.696015

$$$$
C86106023	P134821924
  -OEChem-05182014473D

 41 42  0     1  0  0  0  0  0999 V2000
  124.5179  104.7946  107.9190 C   0  0  0  0  0  0  0  0  0  0  0  0
  126.8851  104.9831  107.7863 C   0  0  0  0  0  0  0  0  0  0  0  0
  124.4254  105.4952  106.7216 C   0  0  0  0  0  0  0  0  0  0  0  0
  125.7675  104.5295  108.4682 C   0  0  0  0  0  0  0  0  0  0  0  0
  125.6031  105.9057  106.1179 C   0  0  0  0  0  0  0  0  0  0  0  0
  123.0861  105.7728  106.1417 C   0  0  0  0  0  0  0  0  0  0  0  0
  118.4336  104.3779  106.3668 C   0  0  0  0  0  0  0  0  0  0  0  0
  119.8521  103.8018  106.3392 C   0  0  0  0  0  0  0  0  0  0  0  0
  118.5684  105.8498  105.9546 C   0  0  2  0  0  0  0  0  0  0  0  0
  120.0110  106.2248  106.3452 C   0  0  2  0  0  0  0  0  0  0  0  0
  120.7617  104.9544  105.9097 C   0  0  1  0  0  0  0  0  0  0  0  0
  120.1864  106.5654  107.8288 C   0  0  0  0  0  0  0  0  0  0  0  0
  116.1136  106.2794  106.0889 C   0  0  0  0  0  0  0  0  0  0  0  0
  117.4688  106.7298  106.5281 C   0  0  0  0  0  0  0  0  0  0  0  0
  126.8349  105.6668  106.6211 N   0  0  0  0  0  0  0  0  0  0  0  0
  126.5809  107.3346  104.4077 N   0  0  0  0  0  0  0  0  0  0  0  0
  125.5172  106.6199  104.8967 N   0  0  0  0  0  0  0  0  0  0  0  0
  122.0981  104.8383  106.4185 N   0  0  0  0  0  0  0  0  0  0  0  0
  122.9281  106.7749  105.4492 O   0  0  0  0  0  0  0  0  0  0  0  0
  125.9359  103.5845  110.0886 Br  0  0  0  0  0  0  0  0  0  0  0  0
  123.6140  104.4570  108.4211 H   0  0  0  0  0  0  0  0  0  0  0  0
  127.8895  104.8091  108.1609 H   0  0  0  0  0  0  0  0  0  0  0  0
  117.7718  103.8240  105.6935 H   0  0  0  0  0  0  0  0  0  0  0  0
  118.0227  104.2831  107.3790 H   0  0  0  0  0  0  0  0  0  0  0  0
  120.1322  103.3689  107.3115 H   0  0  0  0  0  0  0  0  0  0  0  0
  119.9003  102.9910  105.5942 H   0  0  0  0  0  0  0  0  0  0  0  0
  118.4964  105.9140  104.8568 H   0  0  0  0  0  0  0  0  0  0  0  0
  120.3232  107.0283  105.7566 H   0  0  0  0  0  0  0  0  0  0  0  0
  120.8755  104.9507  104.7885 H   0  0  0  0  0  0  0  0  0  0  0  0
  119.8609  105.7273  108.4457 H   0  0  0  0  0  0  0  0  0  0  0  0
  119.5918  107.4430  108.0836 H   0  0  0  0  0  0  0  0  0  0  0  0
  121.2349  106.7749  108.0427 H   0  0  0  0  0  0  0  0  0  0  0  0
  116.0549  106.2998  104.9943 H   0  0  0  0  0  0  0  0  0  0  0  0
  115.3354  106.9416  106.4830 H   0  0  0  0  0  0  0  0  0  0  0  0
  115.9168  105.2544  106.4206 H   0  0  0  0  0  0  0  0  0  0  0  0
  117.5251  106.7087  107.6202 H   0  0  0  0  0  0  0  0  0  0  0  0
  117.6322  107.7628  106.2082 H   0  0  0  0  0  0  0  0  0  0  0  0
  126.2314  108.2307  104.0716 H   0  0  0  0  0  0  0  0  0  0  0  0
  126.9472  106.8507  103.5889 H   0  0  0  0  0  0  0  0  0  0  0  0
  124.7369  106.4210  104.2923 H   0  0  0  0  0  0  0  0  0  0  0  0
  122.3232  104.0006  106.9486 H   0  0  0  0  0  0  0  0  0  0  0  0
  1  3  1  0  0  0  0
  1  4  2  0  0  0  0
  2  4  1  0  0  0  0
  2 15  2  0  0  0  0
  3  5  2  0  0  0  0
  3  6  1  0  0  0  0
  4 20  1  0  0  0  0
  5 15  1  0  0  0  0
  5 17  1  0  0  0  0
  6 18  1  0  0  0  0
  6 19  2  0  0  0  0
  7  8  1  0  0  0  0
  7  9  1  0  0  0  0
  8 11  1  0  0  0  0
  9 10  1  0  0  0  0
  9 14  1  0  0  0  0
 10 11  1  0  0  0  0
 10 12  1  0  0  0  0
 11 18  1  0  0  0  0
 13 14  1  0  0  0  0
 16 17  1  0  0  0  0
  1 21  1  0  0  0  0
  2 22  1  0  0  0  0
  7 23  1  0  0  0  0
  7 24  1  0  0  0  0
  8 25  1  0  0  0  0
  8 26  1  0  0  0  0
  9 27  1  0  0  0  0
 10 28  1  0  0  0  0
 11 29  1  0  0  0  0
 12 30  1  0  0  0  0
 12 31  1  0  0  0  0
 12 32  1  0  0  0  0
 13 33  1  0  0  0  0
 13 34  1  0  0  0  0
 13 35  1  0  0  0  0
 14 36  1  0  0  0  0
 14 37  1  0  0  0  0
 16 38  1  0  0  0  0
 16 39  1  0  0  0  0
 17 40  1  0  0  0  0
 18 41  1  0  0  0  0
M  END
> <FRED Chemgauss4 score>
-4.695007

$$$$
C70533423	P108804873
  -OEChem-05182014473D

 25 25  0     1  0  0  0  0  0999 V2000
  125.1916  105.3131  108.5587 C   0  0  0  0  0  0  0  0  0  0  0  0
  125.1712  104.8559  107.1022 C   0  0  0  0  0  0  0  0  0  0  0  0
  123.9289  104.8689  109.2848 C   0  0  0  0  0  0  0  0  0  0  0  0
  122.6704  104.7623  107.2817 C   0  0  0  0  0  0  0  0  0  0  0  0
  123.8482  105.2045  106.4076 C   0  0  1  0  0  0  0  0  0  0  0  0
  124.8611  107.1223  105.1214 C   0  0  0  0  0  0  0  0  0  0  0  0
  123.7635  106.7012  106.0941 C   0  0  1  0  0  0  0  0  0  0  0  0
  124.7552  108.5375  104.8467 N   0  0  0  0  0  0  0  0  0  0  0  0
  122.7616  105.3149  108.5955 O   0  0  0  0  0  0  0  0  0  0  0  0
  122.4965  106.9692  105.4978 O   0  0  0  0  0  0  0  0  0  0  0  0
  126.0655  104.8687  109.0519 H   0  0  0  0  0  0  0  0  0  0  0  0
  125.3000  106.4019  108.6135 H   0  0  0  0  0  0  0  0  0  0  0  0
  126.0107  105.3300  106.5652 H   0  0  0  0  0  0  0  0  0  0  0  0
  125.3509  103.7694  107.0535 H   0  0  0  0  0  0  0  0  0  0  0  0
  123.8916  103.7752  109.3312 H   0  0  0  0  0  0  0  0  0  0  0  0
  123.9091  105.2431  110.3159 H   0  0  0  0  0  0  0  0  0  0  0  0
  121.7060  105.0466  106.8365 H   0  0  0  0  0  0  0  0  0  0  0  0
  122.6682  103.6699  107.3858 H   0  0  0  0  0  0  0  0  0  0  0  0
  123.8061  104.6471  105.4669 H   0  0  0  0  0  0  0  0  0  0  0  0
  125.8523  106.9214  105.5420 H   0  0  0  0  0  0  0  0  0  0  0  0
  124.7719  106.5763  104.1765 H   0  0  0  0  0  0  0  0  0  0  0  0
  123.8296  107.2773  107.0235 H   0  0  0  0  0  0  0  0  0  0  0  0
  125.1299  108.8926  103.9856 H   0  0  0  0  0  0  0  0  0  0  0  0
  124.5009  109.1576  105.5943 H   0  0  0  0  0  0  0  0  0  0  0  0
  122.4543  106.4364  104.6888 H   0  0  0  0  0  0  0  0  0  0  0  0
  1  2  1  0  0  0  0
  1  3  1  0  0  0  0
  2  5  1  0  0  0  0
  3  9  1  0  0  0  0
  4  5  1  0  0  0  0
  4  9  1  0  0  0  0
  5  7  1  0  0  0  0
  6  7  1  0  0  0  0
  6  8  1  0  0  0  0
  7 10  1  0  0  0  0
  1 11  1  0  0  0  0
  1 12  1  0  0  0  0
  2 13  1  0  0  0  0
  2 14  1  0  0  0  0
  3 15  1  0  0  0  0
  3 16  1  0  0  0  0
  4 17  1  0  0  0  0
  4 18  1  0  0  0  0
  5 19  1  0  0  0  0
  6 20  1  0  0  0  0
  6 21  1  0  0  0  0
  7 22  1  0  0  0  0
  8 23  1  0  0  0  0
  8 24  1  0  0  0  0
 10 25  1  0  0  0  0
M  END
> <FRED Chemgauss4 score>
-4.693427

$$$$
C82055066	P127998912
  -OEChem-05182014473D

 18 18  0     0  0  0  0  0  0999 V2000
  125.2932  106.6889  108.6983 C   0  0  0  0  0  0  0  0  0  0  0  0
  127.1413  105.5660  108.2741 C   0  0  0  0  0  0  0  0  0  0  0  0
  125.6485  106.7871  107.3737 C   0  0  0  0  0  0  0  0  0  0  0  0
  123.7281  108.2348  106.7089 C   0  0  0  0  0  0  0  0  0  0  0  0
  122.5280  107.3188  106.5519 C   0  0  0  0  0  0  0  0  0  0  0  0
  126.7996  106.0857  107.1160 N   0  0  0  0  0  0  0  0  0  0  0  0
  126.2586  105.9033  109.2622 N   0  0  0  0  0  0  0  0  0  0  0  0
  124.9690  107.4823  106.4147 N   0  0  0  0  0  0  0  0  0  0  0  0
  122.4591  106.8568  105.2089 O   0  0  0  0  0  0  0  0  0  0  0  0
  124.4723  107.0900  109.2760 H   0  0  0  0  0  0  0  0  0  0  0  0
  128.0043  104.9441  108.4631 H   0  0  0  0  0  0  0  0  0  0  0  0
  123.6712  109.0847  106.0215 H   0  0  0  0  0  0  0  0  0  0  0  0
  123.7906  108.6079  107.7356 H   0  0  0  0  0  0  0  0  0  0  0  0
  121.6065  107.8682  106.7679 H   0  0  0  0  0  0  0  0  0  0  0  0
  122.5923  106.4532  107.2192 H   0  0  0  0  0  0  0  0  0  0  0  0
  126.3117  105.6237  110.2327 H   0  0  0  0  0  0  0  0  0  0  0  0
  125.2862  107.5083  105.4698 H   0  0  0  0  0  0  0  0  0  0  0  0
  121.6822  106.2776  105.1521 H   0  0  0  0  0  0  0  0  0  0  0  0
  1  3  2  0  0  0  0
  1  7  1  0  0  0  0
  2  6  2  0  0  0  0
  2  7  1  0  0  0  0
  3  6  1  0  0  0  0
  3  8  1  0  0  0  0
  4  5  1  0  0  0  0
  4  8  1  0  0  0  0
  5  9  1  0  0  0  0
  1 10  1  0  0  0  0
  2 11  1  0  0  0  0
  4 12  1  0  0  0  0
  4 13  1  0  0  0  0
  5 14  1  0  0  0  0
  5 15  1  0  0  0  0
  7 16  1  0  0  0  0
  8 17  1  0  0  0  0
  9 18  1  0  0  0  0
M  END
> <FRED Chemgauss4 score>
-4.687239

$$$$
C34321792	P151021124
  -OEChem-05182014473D

 24 24  0     1  0  0  0  0  0999 V2000
  124.0434  107.8997  106.5675 C   0  0  0  0  0  0  0  0  0  0  0  0
  126.0024  105.6586  107.6396 C   0  0  0  0  0  0  0  0  0  0  0  0
  122.7110  106.5877  109.0903 C   0  0  0  0  0  0  0  0  0  0  0  0
  123.4338  107.9268  108.9738 C   0  0  0  0  0  0  0  0  0  0  0  0
  123.8422  105.5779  108.9683 C   0  0  0  0  0  0  0  0  0  0  0  0
  124.5235  107.6518  107.9360 C   0  0  1  0  0  0  0  0  0  0  0  0
  126.2231  104.2171  108.0233 C   0  0  0  0  0  0  0  0  0  0  0  0
  123.6648  108.0951  105.4882 N   0  0  0  0  0  0  0  0  0  0  0  0
  124.8402  106.2357  108.1274 N   0  0  0  0  0  0  0  0  0  0  0  0
  125.8173  102.0265  107.3140 N   0  0  0  0  0  0  0  0  0  0  0  0
  125.6138  103.4142  107.0069 N   0  0  0  0  0  0  0  0  0  0  0  0
  126.8217  106.2466  106.9316 O   0  0  0  0  0  0  0  0  0  0  0  0
  122.1543  106.4832  110.0256 H   0  0  0  0  0  0  0  0  0  0  0  0
  122.0066  106.4691  108.2583 H   0  0  0  0  0  0  0  0  0  0  0  0
  122.7593  108.7463  108.7066 H   0  0  0  0  0  0  0  0  0  0  0  0
  123.8962  108.1673  109.9396 H   0  0  0  0  0  0  0  0  0  0  0  0
  124.3031  105.3763  109.9414 H   0  0  0  0  0  0  0  0  0  0  0  0
  123.5173  104.6334  108.5236 H   0  0  0  0  0  0  0  0  0  0  0  0
  125.4174  108.2557  108.1262 H   0  0  0  0  0  0  0  0  0  0  0  0
  125.7578  104.0488  108.9900 H   0  0  0  0  0  0  0  0  0  0  0  0
  127.2933  104.0405  108.0763 H   0  0  0  0  0  0  0  0  0  0  0  0
  126.3334  101.9505  108.1901 H   0  0  0  0  0  0  0  0  0  0  0  0
  124.9185  101.5756  107.4804 H   0  0  0  0  0  0  0  0  0  0  0  0
  126.0368  103.6029  106.0892 H   0  0  0  0  0  0  0  0  0  0  0  0
  1  6  1  0  0  0  0
  1  8  3  0  0  0  0
  2  7  1  0  0  0  0
  2  9  1  0  0  0  0
  2 12  2  0  0  0  0
  3  4  1  0  0  0  0
  3  5  1  0  0  0  0
  4  6  1  0  0  0  0
  5  9  1  0  0  0  0
  6  9  1  0  0  0  0
  7 11  1  0  0  0  0
 10 11  1  0  0  0  0
  3 13  1  0  0  0  0
  3 14  1  0  0  0  0
  4 15  1  0  0  0  0
  4 16  1  0  0  0  0
  5 17  1  0  0  0  0
  5 18  1  0  0  0  0
  6 19  1  0  0  0  0
  7 20  1  0  0  0  0
  7 21  1  0  0  0  0
 10 22  1  0  0  0  0
 10 23  1  0  0  0  0
 11 24  1  0  0  0  0
M  END
> <FRED Chemgauss4 score>
-4.684278

$$$$
C43232489	P65406561
  -OEChem-05182014473D

 27 28  0     1  0  0  0  0  0999 V2000
  126.7563  106.5865  107.7504 C   0  0  0  0  0  0  0  0  0  0  0  0
  122.4075  106.3040  105.2820 C   0  0  0  0  0  0  0  0  0  0  0  0
  125.5942  106.1976  108.3740 C   0  0  0  0  0  0  0  0  0  0  0  0
  121.2387  106.7209  107.0973 C   0  0  0  0  0  0  0  0  0  0  0  0
  125.4600  105.9449  106.1889 C   0  0  0  0  0  0  0  0  0  0  0  0
  122.3670  106.0652  106.6688 C   0  0  0  0  0  0  0  0  0  0  0  0
  119.4903  108.0861  105.9320 C   0  0  0  0  0  0  0  0  0  0  0  0
  122.9182  105.1058  108.9877 C   0  0  0  0  0  0  0  0  0  0  0  0
  123.3521  105.2576  107.5090 C   0  0  2  0  0  0  0  0  0  0  0  0
  126.6662  106.4270  106.3903 N   0  0  0  0  0  0  0  0  0  0  0  0
  121.3860  107.0527  104.8577 N   0  0  0  0  0  0  0  0  0  0  0  0
  124.7732  105.7895  107.3608 N   0  0  0  0  0  0  0  0  0  0  0  0
  120.6930  107.2901  105.9845 N   0  0  0  0  0  0  0  0  0  0  0  0
  121.6273  104.4281  109.1005 N   0  0  0  0  0  0  0  0  0  0  0  0
  127.6532  106.9733  108.2118 H   0  0  0  0  0  0  0  0  0  0  0  0
  123.1371  105.9640  104.5608 H   0  0  0  0  0  0  0  0  0  0  0  0
  125.2924  106.1771  109.4118 H   0  0  0  0  0  0  0  0  0  0  0  0
  120.7882  106.8272  108.0749 H   0  0  0  0  0  0  0  0  0  0  0  0
  125.0332  105.6923  105.2278 H   0  0  0  0  0  0  0  0  0  0  0  0
  119.7710  109.1317  106.0839 H   0  0  0  0  0  0  0  0  0  0  0  0
  119.0103  107.9568  104.9580 H   0  0  0  0  0  0  0  0  0  0  0  0
  118.8037  107.7556  106.7164 H   0  0  0  0  0  0  0  0  0  0  0  0
  123.6664  104.5178  109.5334 H   0  0  0  0  0  0  0  0  0  0  0  0
  122.8429  106.0733  109.4947 H   0  0  0  0  0  0  0  0  0  0  0  0
  123.3364  104.2360  107.0980 H   0  0  0  0  0  0  0  0  0  0  0  0
  121.0845  104.5905  109.9197 H   0  0  0  0  0  0  0  0  0  0  0  0
  121.4330  103.6851  108.4662 H   0  0  0  0  0  0  0  0  0  0  0  0
  1  3  2  0  0  0  0
  1 10  1  0  0  0  0
  2  6  1  0  0  0  0
  2 11  2  0  0  0  0
  3 12  1  0  0  0  0
  4  6  2  0  0  0  0
  4 13  1  0  0  0  0
  5 10  2  0  0  0  0
  5 12  1  0  0  0  0
  6  9  1  0  0  0  0
  7 13  1  0  0  0  0
  8  9  1  0  0  0  0
  8 14  1  0  0  0  0
  9 12  1  0  0  0  0
 11 13  1  0  0  0  0
  1 15  1  0  0  0  0
  2 16  1  0  0  0  0
  3 17  1  0  0  0  0
  4 18  1  0  0  0  0
  5 19  1  0  0  0  0
  7 20  1  0  0  0  0
  7 21  1  0  0  0  0
  7 22  1  0  0  0  0
  8 23  1  0  0  0  0
  8 24  1  0  0  0  0
  9 25  1  0  0  0  0
 14 26  1  0  0  0  0
 14 27  1  0  0  0  0
M  END
> <FRED Chemgauss4 score>
-4.671261

$$$$
C87588531	P137003168
  -OEChem-05182014473D

 25 26  0     1  0  0  0  0  0999 V2000
  123.4034  106.8293  106.0412 C   0  0  0  0  0  0  0  0  0  0  0  0
  125.1932  107.8729  106.6867 C   0  0  0  0  0  0  0  0  0  0  0  0
  122.7347  104.3892  105.8694 C   0  0  0  0  0  0  0  0  0  0  0  0
  122.0351  103.5767  106.6686 C   0  0  0  0  0  0  0  0  0  0  0  0
  121.4386  105.7794  107.2808 C   0  0  0  0  0  0  0  0  0  0  0  0
  122.2838  105.8152  105.9930 C   0  0  1  0  0  0  0  0  0  0  0  0
  121.0103  104.3146  107.4721 C   0  0  1  0  0  0  0  0  0  0  0  0
  123.5876  107.8404  105.2226 N   0  0  0  0  0  0  0  0  0  0  0  0
  124.7263  108.5044  105.6334 N   0  0  0  0  0  0  0  0  0  0  0  0
  124.3911  106.8116  106.9787 N   0  0  0  0  0  0  0  0  0  0  0  0
  126.2844  108.1426  107.4388 N   0  0  0  0  0  0  0  0  0  0  0  0
  119.6625  104.0689  106.9725 N   0  0  0  0  0  0  0  0  0  0  0  0
  124.5428  105.8797  108.0313 N   0  0  0  0  0  0  0  0  0  0  0  0
  123.5316  104.0643  105.2215 H   0  0  0  0  0  0  0  0  0  0  0  0
  122.2237  102.5141  106.7586 H   0  0  0  0  0  0  0  0  0  0  0  0
  121.9614  106.1641  108.1645 H   0  0  0  0  0  0  0  0  0  0  0  0
  120.5573  106.4204  107.1344 H   0  0  0  0  0  0  0  0  0  0  0  0
  121.6342  106.0771  105.1326 H   0  0  0  0  0  0  0  0  0  0  0  0
  121.0761  104.0094  108.5038 H   0  0  0  0  0  0  0  0  0  0  0  0
  126.9301  108.9104  107.2080 H   0  0  0  0  0  0  0  0  0  0  0  0
  126.5720  107.5368  108.2199 H   0  0  0  0  0  0  0  0  0  0  0  0
  118.9574  104.7534  107.1543 H   0  0  0  0  0  0  0  0  0  0  0  0
  119.4368  103.1505  106.6496 H   0  0  0  0  0  0  0  0  0  0  0  0
  123.6506  105.5105  108.3759 H   0  0  0  0  0  0  0  0  0  0  0  0
  124.9938  106.2838  108.8588 H   0  0  0  0  0  0  0  0  0  0  0  0
  1  6  1  0  0  0  0
  1  8  2  0  0  0  0
  1 10  1  0  0  0  0
  2  9  2  0  0  0  0
  2 10  1  0  0  0  0
  2 11  1  0  0  0  0
  3  4  2  0  0  0  0
  3  6  1  0  0  0  0
  4  7  1  0  0  0  0
  5  6  1  0  0  0  0
  5  7  1  0  0  0  0
  7 12  1  0  0  0  0
  8  9  1  0  0  0  0
 10 13  1  0  0  0  0
  3 14  1  0  0  0  0
  4 15  1  0  0  0  0
  5 16  1  0  0  0  0
  5 17  1  0  0  0  0
  6 18  1  0  0  0  0
  7 19  1  0  0  0  0
 11 20  1  0  0  0  0
 11 21  1  0  0  0  0
 12 22  1  0  0  0  0
 12 23  1  0  0  0  0
 13 24  1  0  0  0  0
 13 25  1  0  0  0  0
M  END
> <FRED Chemgauss4 score>
-4.671069

$$$$
C85085338	P133149953
  -OEChem-05182014473D

 25 25  0     1  0  0  0  0  0999 V2000
  122.8450  108.2165  107.4039 C   0  0  0  0  0  0  0  0  0  0  0  0
  124.7970  107.5611  106.0340 C   0  0  0  0  0  0  0  0  0  0  0  0
  122.0299  107.1747  106.6758 C   0  0  0  0  0  0  0  0  0  0  0  0
  123.9249  106.5388  105.3454 C   0  0  0  0  0  0  0  0  0  0  0  0
  121.3398  104.9019  105.4287 C   0  0  0  0  0  0  0  0  0  0  0  0
  120.4777  106.8390  104.0113 C   0  0  0  0  0  0  0  0  0  0  0  0
  121.7018  106.0993  104.5557 C   0  0  1  0  0  0  0  0  0  0  0  0
  124.1742  108.3086  107.0213 N   0  0  0  0  0  0  0  0  0  0  0  0
  122.5449  107.0241  105.3145 N   0  0  0  0  0  0  0  0  0  0  0  0
  119.4364  106.9562  105.0065 N   0  0  0  0  0  0  0  0  0  0  0  0
  122.3618  108.8896  108.3140 O   0  0  0  0  0  0  0  0  0  0  0  0
  125.9933  107.6700  105.7657 O   0  0  0  0  0  0  0  0  0  0  0  0
  122.0634  106.2376  107.2444 H   0  0  0  0  0  0  0  0  0  0  0  0
  120.9938  107.5324  106.6487 H   0  0  0  0  0  0  0  0  0  0  0  0
  124.3054  106.4216  104.3238 H   0  0  0  0  0  0  0  0  0  0  0  0
  124.0225  105.5809  105.8701 H   0  0  0  0  0  0  0  0  0  0  0  0
  120.7518  105.1968  106.3046 H   0  0  0  0  0  0  0  0  0  0  0  0
  120.7378  104.1820  104.8629 H   0  0  0  0  0  0  0  0  0  0  0  0
  122.2410  104.3873  105.7776 H   0  0  0  0  0  0  0  0  0  0  0  0
  120.0728  106.3072  103.1430 H   0  0  0  0  0  0  0  0  0  0  0  0
  120.7636  107.8417  103.6753 H   0  0  0  0  0  0  0  0  0  0  0  0
  122.2859  105.7334  103.7031 H   0  0  0  0  0  0  0  0  0  0  0  0
  124.7471  108.9895  107.5118 H   0  0  0  0  0  0  0  0  0  0  0  0
  119.2713  106.1848  105.6279 H   0  0  0  0  0  0  0  0  0  0  0  0
  118.7737  107.7067  104.9278 H   0  0  0  0  0  0  0  0  0  0  0  0
  1  3  1  0  0  0  0
  1  8  1  0  0  0  0
  1 11  2  0  0  0  0
  2  4  1  0  0  0  0
  2  8  1  0  0  0  0
  2 12  2  0  0  0  0
  3  9  1  0  0  0  0
  4  9  1  0  0  0  0
  5  7  1  0  0  0  0
  6  7  1  0  0  0  0
  6 10  1  0  0  0  0
  7  9  1  0  0  0  0
  3 13  1  0  0  0  0
  3 14  1  0  0  0  0
  4 15  1  0  0  0  0
  4 16  1  0  0  0  0
  5 17  1  0  0  0  0
  5 18  1  0  0  0  0
  5 19  1  0  0  0  0
  6 20  1  0  0  0  0
  6 21  1  0  0  0  0
  7 22  1  0  0  0  0
  8 23  1  0  0  0  0
 10 24  1  0  0  0  0
 10 25  1  0  0  0  0
M  END
> <FRED Chemgauss4 score>
-4.666442

$$$$
C84249743	P131855991
  -OEChem-05182014473D

 21 21  0     1  0  0  0  0  0999 V2000
  123.5304  106.5621  106.4257 C   0  0  0  0  0  0  0  0  0  0  0  0
  122.5694  105.6165  107.1028 C   0  0  0  0  0  0  0  0  0  0  0  0
  123.3189  105.2098  108.3701 C   0  0  0  0  0  0  0  0  0  0  0  0
  124.7978  105.2932  107.9757 C   0  0  2  0  0  0  0  0  0  0  0  0
  125.2848  103.9833  107.3459 C   0  0  0  0  0  0  0  0  0  0  0  0
  125.6781  105.6660  109.1671 C   0  0  0  0  0  0  0  0  0  0  0  0
  124.7863  106.3494  106.9843 N   0  0  0  0  0  0  0  0  0  0  0  0
  126.9265  106.1711  108.7044 N   0  0  0  0  0  0  0  0  0  0  0  0
  123.2431  107.3373  105.5267 O   0  0  0  0  0  0  0  0  0  0  0  0
  121.6255  106.1165  107.3332 H   0  0  0  0  0  0  0  0  0  0  0  0
  122.3897  104.7601  106.4460 H   0  0  0  0  0  0  0  0  0  0  0  0
  123.0865  105.9348  109.1614 H   0  0  0  0  0  0  0  0  0  0  0  0
  123.0177  104.2215  108.7318 H   0  0  0  0  0  0  0  0  0  0  0  0
  126.3342  104.0765  107.0787 H   0  0  0  0  0  0  0  0  0  0  0  0
  124.7025  103.7708  106.4531 H   0  0  0  0  0  0  0  0  0  0  0  0
  125.1641  103.1709  108.0578 H   0  0  0  0  0  0  0  0  0  0  0  0
  125.8482  104.7794  109.7634 H   0  0  0  0  0  0  0  0  0  0  0  0
  125.1770  106.4270  109.7497 H   0  0  0  0  0  0  0  0  0  0  0  0
  125.6114  106.8806  106.7236 H   0  0  0  0  0  0  0  0  0  0  0  0
  127.3529  105.7790  107.8715 H   0  0  0  0  0  0  0  0  0  0  0  0
  127.4838  106.7688  109.3056 H   0  0  0  0  0  0  0  0  0  0  0  0
  1  2  1  0  0  0  0
  1  7  1  0  0  0  0
  1  9  2  0  0  0  0
  2  3  1  0  0  0  0
  3  4  1  0  0  0  0
  4  5  1  0  0  0  0
  4  6  1  0  0  0  0
  4  7  1  0  0  0  0
  6  8  1  0  0  0  0
  2 10  1  0  0  0  0
  2 11  1  0  0  0  0
  3 12  1  0  0  0  0
  3 13  1  0  0  0  0
  5 14  1  0  0  0  0
  5 15  1  0  0  0  0
  5 16  1  0  0  0  0
  6 17  1  0  0  0  0
  6 18  1  0  0  0  0
  7 19  1  0  0  0  0
  8 20  1  0  0  0  0
  8 21  1  0  0  0  0
M  END
> <FRED Chemgauss4 score>
-4.663086

$$$$
C13542855	P133974200
  -OEChem-05182014473D

 13 13  0     1  0  0  0  0  0999 V2000
  124.7417  107.5128  105.6362 C   0  0  0  0  0  0  0  0  0  0  0  0
  122.8045  106.6309  106.1112 C   0  0  0  0  0  0  0  0  0  0  0  0
  125.0622  106.3487  106.5733 C   0  0  2  0  0  0  0  0  0  0  0  0
  123.4577  107.6288  105.4263 N   0  0  0  0  0  0  0  0  0  0  0  0
  123.7355  105.8617  106.7707 N   0  0  0  0  0  0  0  0  0  0  0  0
  125.6432  106.8006  107.8554 N   0  3  0  0  0  0  0  0  0  0  0  0
  125.6729  108.2018  105.1754 O   0  5  0  0  0  0  0  0  0  0  0  0
  121.5935  106.4490  106.1280 O   0  0  0  0  0  0  0  0  0  0  0  0
  125.7042  105.5849  106.1261 H   0  0  0  0  0  0  0  0  0  0  0  0
  123.5006  105.0542  107.3393 H   0  0  0  0  0  0  0  0  0  0  0  0
  126.6524  106.9713  107.7670 H   0  0  0  0  0  0  0  0  0  0  0  0
  125.5093  106.0972  108.5924 H   0  0  0  0  0  0  0  0  0  0  0  0
  125.2059  107.6740  108.1746 H   0  0  0  0  0  0  0  0  0  0  0  0
  1  3  1  0  0  0  0
  1  4  2  0  0  0  0
  1  7  1  0  0  0  0
  2  4  1  0  0  0  0
  2  5  1  0  0  0  0
  2  8  2  0  0  0  0
  3  5  1  0  0  0  0
  3  6  1  0  0  0  0
  3  9  1  0  0  0  0
  5 10  1  0  0  0  0
  6 11  1  0  0  0  0
  6 12  1  0  0  0  0
  6 13  1  0  0  0  0
M  CHG  2   6   1   7  -1
M  END
> <FRED Chemgauss4 score>
-4.662045

$$$$
C85082709	P133149090
  -OEChem-05182014473D

 33 33  0     1  0  0  0  0  0999 V2000
  121.3558  106.8686  105.2787 C   0  0  0  0  0  0  0  0  0  0  0  0
  125.6019  106.4943  106.5320 C   0  0  0  0  0  0  0  0  0  0  0  0
  123.8316  108.1604  106.4771 C   0  0  0  0  0  0  0  0  0  0  0  0
  125.3105  107.9436  106.1630 C   0  0  2  0  0  0  0  0  0  0  0  0
  124.3719  106.0577  107.3237 C   0  0  2  0  0  0  0  0  0  0  0  0
  125.4807  102.5221  107.6547 C   0  0  0  0  0  0  0  0  0  0  0  0
  125.3286  104.1018  109.4585 C   0  0  0  0  0  0  0  0  0  0  0  0
  122.7109  106.2482  105.5062 C   0  0  0  0  0  0  0  0  0  0  0  0
  124.2104  104.5425  107.3781 C   0  0  0  0  0  0  0  0  0  0  0  0
  123.2566  106.8261  106.7345 N   0  0  2  0  0  0  0  0  0  0  0  0
  120.4397  106.6503  106.2737 N   0  0  0  0  0  0  0  0  0  0  0  0
  125.3550  103.9537  107.9904 N   0  0  0  0  0  0  0  0  0  0  0  0
  125.5717  108.1443  104.7821 O   0  0  0  0  0  0  0  0  0  0  0  0
  120.9972  107.7719  103.9194 S   0  0  0  0  0  0  0  0  0  0  0  0
  125.7523  105.8819  105.6362 H   0  0  0  0  0  0  0  0  0  0  0  0
  126.5045  106.4171  107.1450 H   0  0  0  0  0  0  0  0  0  0  0  0
  123.7443  108.7970  107.3779 H   0  0  0  0  0  0  0  0  0  0  0  0
  123.2916  108.6663  105.6569 H   0  0  0  0  0  0  0  0  0  0  0  0
  125.9433  108.6341  106.7355 H   0  0  0  0  0  0  0  0  0  0  0  0
  124.5286  106.4151  108.3990 H   0  0  0  0  0  0  0  0  0  0  0  0
  125.5020  102.3911  106.5697 H   0  0  0  0  0  0  0  0  0  0  0  0
  124.6330  101.9630  108.0601 H   0  0  0  0  0  0  0  0  0  0  0  0
  126.4033  102.1145  108.0766 H   0  0  0  0  0  0  0  0  0  0  0  0
  125.2358  105.1571  109.7281 H   0  0  0  0  0  0  0  0  0  0  0  0
  126.2501  103.7069  109.8949 H   0  0  0  0  0  0  0  0  0  0  0  0
  124.4798  103.5554  109.8784 H   0  0  0  0  0  0  0  0  0  0  0  0
  123.4080  106.4479  104.6883 H   0  0  0  0  0  0  0  0  0  0  0  0
  122.6210  105.1684  105.6570 H   0  0  0  0  0  0  0  0  0  0  0  0
  124.1119  104.1637  106.3682 H   0  0  0  0  0  0  0  0  0  0  0  0
  123.3305  104.2997  107.9607 H   0  0  0  0  0  0  0  0  0  0  0  0
  120.6610  106.1095  107.1037 H   0  0  0  0  0  0  0  0  0  0  0  0
  119.4999  107.0276  106.2124 H   0  0  0  0  0  0  0  0  0  0  0  0
  126.5093  107.9352  104.6405 H   0  0  0  0  0  0  0  0  0  0  0  0
  1  8  1  0  0  0  0
  1 11  1  0  0  0  0
  1 14  2  0  0  0  0
  2  4  1  0  0  0  0
  2  5  1  0  0  0  0
  3  4  1  0  0  0  0
  3 10  1  0  0  0  0
  4 13  1  0  0  0  0
  5  9  1  0  0  0  0
  5 10  1  0  0  0  0
  6 12  1  0  0  0  0
  7 12  1  0  0  0  0
  8 10  1  0  0  0  0
  9 12  1  0  0  0  0
  2 15  1  0  0  0  0
  2 16  1  0  0  0  0
  3 17  1  0  0  0  0
  3 18  1  0  0  0  0
  4 19  1  0  0  0  0
  5 20  1  0  0  0  0
  6 21  1  0  0  0  0
  6 22  1  0  0  0  0
  6 23  1  0  0  0  0
  7 24  1  0  0  0  0
  7 25  1  0  0  0  0
  7 26  1  0  0  0  0
  8 27  1  0  0  0  0
  8 28  1  0  0  0  0
  9 29  1  0  0  0  0
  9 30  1  0  0  0  0
 11 31  1  0  0  0  0
 11 32  1  0  0  0  0
 13 33  1  0  0  0  0
M  END
> <FRED Chemgauss4 score>
-4.656471

$$$$
C85134048	P133209822
  -OEChem-05182014473D

 37 38  0     1  0  0  0  0  0999 V2000
  125.7053  106.0421  106.4799 C   0  0  0  0  0  0  0  0  0  0  0  0
  125.1426  107.1514  105.6136 C   0  0  0  0  0  0  0  0  0  0  0  0
  123.8653  107.7906  106.1410 C   0  0  0  0  0  0  0  0  0  0  0  0
  119.2823  105.4113  103.5411 C   0  0  0  0  0  0  0  0  0  0  0  0
  120.4539  104.4363  103.5646 C   0  0  0  0  0  0  0  0  0  0  0  0
  119.5584  106.6485  104.3921 C   0  0  0  0  0  0  0  0  0  0  0  0
  120.8585  104.0624  104.9897 C   0  0  0  0  0  0  0  0  0  0  0  0
  123.5145  105.9034  107.7087 C   0  0  0  0  0  0  0  0  0  0  0  0
  119.9634  106.3097  105.8369 C   0  0  2  0  0  0  0  0  0  0  0  0
  122.8562  106.7517  106.6266 C   0  0  2  0  0  0  0  0  0  0  0  0
  121.1164  105.2861  105.8782 C   0  0  2  0  0  0  0  0  0  0  0  0
  118.7589  105.8200  106.6491 C   0  0  0  0  0  0  0  0  0  0  0  0
  124.8357  105.4211  107.3478 N   0  0  0  0  0  0  0  0  0  0  0  0
  122.3690  105.9203  105.5243 N   0  0  0  0  0  0  0  0  0  0  0  0
  126.8736  105.6740  106.3424 O   0  0  0  0  0  0  0  0  0  0  0  0
  117.7950  106.7504  106.6379 F   0  0  0  0  0  0  0  0  0  0  0  0
  118.2820  104.6872  106.1162 F   0  0  0  0  0  0  0  0  0  0  0  0
  119.1296  105.5873  107.9154 F   0  0  0  0  0  0  0  0  0  0  0  0
  125.9264  107.9141  105.5224 H   0  0  0  0  0  0  0  0  0  0  0  0
  124.9573  106.7461  104.6117 H   0  0  0  0  0  0  0  0  0  0  0  0
  124.1239  108.4918  106.9580 H   0  0  0  0  0  0  0  0  0  0  0  0
  123.4129  108.4150  105.3446 H   0  0  0  0  0  0  0  0  0  0  0  0
  119.0805  105.7176  102.5060 H   0  0  0  0  0  0  0  0  0  0  0  0
  118.3781  104.9086  103.9060 H   0  0  0  0  0  0  0  0  0  0  0  0
  120.1851  103.5256  103.0108 H   0  0  0  0  0  0  0  0  0  0  0  0
  121.3128  104.8796  103.0433 H   0  0  0  0  0  0  0  0  0  0  0  0
  120.3522  107.2414  103.9114 H   0  0  0  0  0  0  0  0  0  0  0  0
  118.6601  107.2871  104.3989 H   0  0  0  0  0  0  0  0  0  0  0  0
  120.0681  103.4347  105.4293 H   0  0  0  0  0  0  0  0  0  0  0  0
  121.7616  103.4324  104.9469 H   0  0  0  0  0  0  0  0  0  0  0  0
  123.6167  106.4689  108.6455 H   0  0  0  0  0  0  0  0  0  0  0  0
  122.9135  105.0095  107.9338 H   0  0  0  0  0  0  0  0  0  0  0  0
  120.3194  107.2427  106.3148 H   0  0  0  0  0  0  0  0  0  0  0  0
  121.9863  107.2834  107.0668 H   0  0  0  0  0  0  0  0  0  0  0  0
  121.2117  104.9298  106.9289 H   0  0  0  0  0  0  0  0  0  0  0  0
  125.1449  104.5501  107.7726 H   0  0  0  0  0  0  0  0  0  0  0  0
  122.2221  106.4983  104.7005 H   0  0  0  0  0  0  0  0  0  0  0  0
  1  2  1  0  0  0  0
  1 13  1  0  0  0  0
  1 15  2  0  0  0  0
  2  3  1  0  0  0  0
  3 10  1  0  0  0  0
  4  5  1  0  0  0  0
  4  6  1  0  0  0  0
  5  7  1  0  0  0  0
  6  9  1  0  0  0  0
  7 11  1  0  0  0  0
  8 10  1  0  0  0  0
  8 13  1  0  0  0  0
  9 11  1  0  0  0  0
  9 12  1  0  0  0  0
 10 14  1  0  0  0  0
 11 14  1  0  0  0  0
 12 16  1  0  0  0  0
 12 17  1  0  0  0  0
 12 18  1  0  0  0  0
  2 19  1  0  0  0  0
  2 20  1  0  0  0  0
  3 21  1  0  0  0  0
  3 22  1  0  0  0  0
  4 23  1  0  0  0  0
  4 24  1  0  0  0  0
  5 25  1  0  0  0  0
  5 26  1  0  0  0  0
  6 27  1  0  0  0  0
  6 28  1  0  0  0  0
  7 29  1  0  0  0  0
  7 30  1  0  0  0  0
  8 31  1  0  0  0  0
  8 32  1  0  0  0  0
  9 33  1  0  0  0  0
 10 34  1  0  0  0  0
 11 35  1  0  0  0  0
 13 36  1  0  0  0  0
 14 37  1  0  0  0  0
M  END
> <FRED Chemgauss4 score>
-4.646575

$$$$
C95046220	P149005380
  -OEChem-05182014473D

 43 44  0     0  0  0  0  0  0999 V2000
  123.4900  106.4478  105.7660 C   0  0  0  0  0  0  0  0  0  0  0  0
  125.2199  105.9528  106.8884 C   0  0  0  0  0  0  0  0  0  0  0  0
  122.0720  106.6057  105.3519 C   0  0  0  0  0  0  0  0  0  0  0  0
  119.9283  108.9919  109.7388 C   0  0  0  0  0  0  0  0  0  0  0  0
  117.7813  109.3371  108.4613 C   0  0  0  0  0  0  0  0  0  0  0  0
  119.7693  110.3683  110.3629 C   0  0  0  0  0  0  0  0  0  0  0  0
  117.6354  110.7111  109.0939 C   0  0  0  0  0  0  0  0  0  0  0  0
  119.2466  108.9093  108.3737 C   0  0  0  0  0  0  0  0  0  0  0  0
  127.1072  104.3849  107.4661 C   0  0  0  0  0  0  0  0  0  0  0  0
  125.3210  104.8898  109.1718 C   0  0  0  0  0  0  0  0  0  0  0  0
  119.7066  106.1908  105.9757 C   0  0  0  0  0  0  0  0  0  0  0  0
  119.1430  107.5006  106.4955 C   0  0  0  0  0  0  0  0  0  0  0  0
  126.0926  105.4557  107.9495 C   0  0  0  0  0  0  0  0  0  0  0  0
  125.6625  106.5290  105.7536 N   0  5  0  0  0  0  0  0  0  0  0  0
  123.8820  105.8908  106.9197 N   0  0  0  0  0  0  0  0  0  0  0  0
  124.5428  106.8501  105.0274 N   0  0  0  0  0  0  0  0  0  0  0  0
  121.1600  106.1306  106.2528 N   0  0  0  0  0  0  0  0  0  0  0  0
  118.3170  110.7147  110.4235 N   0  3  0  0  0  0  0  0  0  0  0  0
  121.8179  107.1128  104.2625 O   0  0  0  0  0  0  0  0  0  0  0  0
  119.3294  107.5692  107.9021 O   0  0  0  0  0  0  0  0  0  0  0  0
  120.9920  108.7456  109.6372 H   0  0  0  0  0  0  0  0  0  0  0  0
  119.5106  108.2267  110.4064 H   0  0  0  0  0  0  0  0  0  0  0  0
  117.2151  108.5946  109.0390 H   0  0  0  0  0  0  0  0  0  0  0  0
  117.3336  109.3356  107.4603 H   0  0  0  0  0  0  0  0  0  0  0  0
  120.1464  110.3908  111.3894 H   0  0  0  0  0  0  0  0  0  0  0  0
  120.2663  111.1477  109.7761 H   0  0  0  0  0  0  0  0  0  0  0  0
  118.0987  111.4963  108.4875 H   0  0  0  0  0  0  0  0  0  0  0  0
  116.5858  110.9626  109.2720 H   0  0  0  0  0  0  0  0  0  0  0  0
  119.7798  109.5489  107.6603 H   0  0  0  0  0  0  0  0  0  0  0  0
  126.5929  103.5225  107.0281 H   0  0  0  0  0  0  0  0  0  0  0  0
  127.7443  104.0152  108.2768 H   0  0  0  0  0  0  0  0  0  0  0  0
  127.7590  104.8115  106.6954 H   0  0  0  0  0  0  0  0  0  0  0  0
  124.6659  104.0718  108.8517 H   0  0  0  0  0  0  0  0  0  0  0  0
  124.6977  105.6466  109.6606 H   0  0  0  0  0  0  0  0  0  0  0  0
  126.0102  104.4910  109.9242 H   0  0  0  0  0  0  0  0  0  0  0  0
  119.2293  105.3332  106.4604 H   0  0  0  0  0  0  0  0  0  0  0  0
  119.5623  106.1168  104.8936 H   0  0  0  0  0  0  0  0  0  0  0  0
  118.0685  107.5524  106.2942 H   0  0  0  0  0  0  0  0  0  0  0  0
  119.6349  108.3624  106.0327 H   0  0  0  0  0  0  0  0  0  0  0  0
  126.7259  106.2743  108.3706 H   0  0  0  0  0  0  0  0  0  0  0  0
  121.4132  105.6673  107.1010 H   0  0  0  0  0  0  0  0  0  0  0  0
  117.8355  110.0605  111.0565 H   0  0  0  0  0  0  0  0  0  0  0  0
  118.2106  111.6438  110.8534 H   0  0  0  0  0  0  0  0  0  0  0  0
  1  3  1  0  0  0  0
  1 15  1  0  0  0  0
  1 16  2  0  0  0  0
  2 13  1  0  0  0  0
  2 14  1  0  0  0  0
  2 15  2  0  0  0  0
  3 17  1  0  0  0  0
  3 19  2  0  0  0  0
  4  6  1  0  0  0  0
  4  8  1  0  0  0  0
  5  7  1  0  0  0  0
  5  8  1  0  0  0  0
  6 18  1  0  0  0  0
  7 18  1  0  0  0  0
  8 20  1  0  0  0  0
  9 13  1  0  0  0  0
 10 13  1  0  0  0  0
 11 12  1  0  0  0  0
 11 17  1  0  0  0  0
 12 20  1  0  0  0  0
 14 16  1  0  0  0  0
  4 21  1  0  0  0  0
  4 22  1  0  0  0  0
  5 23  1  0  0  0  0
  5 24  1  0  0  0  0
  6 25  1  0  0  0  0
  6 26  1  0  0  0  0
  7 27  1  0  0  0  0
  7 28  1  0  0  0  0
  8 29  1  0  0  0  0
  9 30  1  0  0  0  0
  9 31  1  0  0  0  0
  9 32  1  0  0  0  0
 10 33  1  0  0  0  0
 10 34  1  0  0  0  0
 10 35  1  0  0  0  0
 11 36  1  0  0  0  0
 11 37  1  0  0  0  0
 12 38  1  0  0  0  0
 12 39  1  0  0  0  0
 13 40  1  0  0  0  0
 17 41  1  0  0  0  0
 18 42  1  0  0  0  0
 18 43  1  0  0  0  0
M  CHG  2  14  -1  18   1
M  END
> <FRED Chemgauss4 score>
-4.645566

$$$$
C61843867	P94755243
  -OEChem-05182014473D

 20 20  0     0  0  0  0  0  0999 V2000
  124.3550  105.6375  106.5153 C   0  0  0  0  0  0  0  0  0  0  0  0
  122.6943  106.9453  106.3447 C   0  0  0  0  0  0  0  0  0  0  0  0
  126.2843  105.5170  108.8153 C   0  0  0  0  0  0  0  0  0  0  0  0
  125.2490  104.5166  106.9578 C   0  0  0  0  0  0  0  0  0  0  0  0
  121.3885  107.5676  106.5521 C   0  0  0  0  0  0  0  0  0  0  0  0
  124.6864  106.5420  105.5731 N   0  5  0  0  0  0  0  0  0  0  0  0
  123.1297  105.8650  107.0069 N   0  0  0  0  0  0  0  0  0  0  0  0
  123.6119  107.3890  105.4632 N   0  0  0  0  0  0  0  0  0  0  0  0
  120.2377  106.8099  105.9559 N   0  3  0  0  0  0  0  0  0  0  0  0
  126.4532  105.0620  107.4795 O   0  0  0  0  0  0  0  0  0  0  0  0
  127.2275  105.9287  109.1828 H   0  0  0  0  0  0  0  0  0  0  0  0
  125.9670  104.6840  109.4476 H   0  0  0  0  0  0  0  0  0  0  0  0
  125.5185  106.2962  108.8312 H   0  0  0  0  0  0  0  0  0  0  0  0
  124.7653  103.9124  107.7330 H   0  0  0  0  0  0  0  0  0  0  0  0
  125.4882  103.8564  106.1171 H   0  0  0  0  0  0  0  0  0  0  0  0
  121.1276  107.6841  107.6247 H   0  0  0  0  0  0  0  0  0  0  0  0
  121.3174  108.5849  106.1138 H   0  0  0  0  0  0  0  0  0  0  0  0
  120.3641  105.8094  106.1042 H   0  0  0  0  0  0  0  0  0  0  0  0
  120.1827  106.9911  104.9541 H   0  0  0  0  0  0  0  0  0  0  0  0
  119.3640  107.1012  106.3931 H   0  0  0  0  0  0  0  0  0  0  0  0
  1  4  1  0  0  0  0
  1  6  1  0  0  0  0
  1  7  2  0  0  0  0
  2  5  1  0  0  0  0
  2  7  1  0  0  0  0
  2  8  2  0  0  0  0
  3 10  1  0  0  0  0
  4 10  1  0  0  0  0
  5  9  1  0  0  0  0
  6  8  1  0  0  0  0
  3 11  1  0  0  0  0
  3 12  1  0  0  0  0
  3 13  1  0  0  0  0
  4 14  1  0  0  0  0
  4 15  1  0  0  0  0
  5 16  1  0  0  0  0
  5 17  1  0  0  0  0
  9 18  1  0  0  0  0
  9 19  1  0  0  0  0
  9 20  1  0  0  0  0
M  CHG  2   6  -1   9   1
M  END
> <FRED Chemgauss4 score>
-4.641667

$$$$
C96034658	P151250495
  -OEChem-05182014473D

 17 17  0     1  0  0  0  0  0999 V2000
  125.1466  106.2174  107.9403 C   0  0  0  0  0  0  0  0  0  0  0  0
  124.5167  107.5985  107.6631 C   0  0  0  0  0  0  0  0  0  0  0  0
  124.4255  105.5662  106.7291 C   0  0  1  0  0  0  0  0  0  0  0  0
  123.1134  104.8641  107.0392 C   0  0  0  0  0  0  0  0  0  0  0  0
  123.2172  104.1424  108.2674 N   0  0  0  0  0  0  0  0  0  0  0  0
  122.9851  107.4625  105.4852 O   0  0  0  0  0  0  0  0  0  0  0  0
  125.5125  107.4697  105.1933 O   0  0  0  0  0  0  0  0  0  0  0  0
  124.3208  107.1693  105.9588 S   0  0  0  0  0  0  0  0  0  0  0  0
  126.2425  106.1942  107.8907 H   0  0  0  0  0  0  0  0  0  0  0  0
  124.8549  105.7980  108.9149 H   0  0  0  0  0  0  0  0  0  0  0  0
  123.5755  107.7967  108.1852 H   0  0  0  0  0  0  0  0  0  0  0  0
  125.1961  108.4475  107.8024 H   0  0  0  0  0  0  0  0  0  0  0  0
  125.0842  104.9107  106.1495 H   0  0  0  0  0  0  0  0  0  0  0  0
  122.8822  104.1656  106.2406 H   0  0  0  0  0  0  0  0  0  0  0  0
  122.3201  105.5995  107.1312 H   0  0  0  0  0  0  0  0  0  0  0  0
  124.0867  103.6820  108.5061 H   0  0  0  0  0  0  0  0  0  0  0  0
  122.3793  103.9215  108.7910 H   0  0  0  0  0  0  0  0  0  0  0  0
  1  2  1  0  0  0  0
  1  3  1  0  0  0  0
  2  8  1  0  0  0  0
  3  4  1  0  0  0  0
  3  8  1  0  0  0  0
  4  5  1  0  0  0  0
  6  8  2  0  0  0  0
  7  8  2  0  0  0  0
  1  9  1  0  0  0  0
  1 10  1  0  0  0  0
  2 11  1  0  0  0  0
  2 12  1  0  0  0  0
  3 13  1  0  0  0  0
  4 14  1  0  0  0  0
  4 15  1  0  0  0  0
  5 16  1  0  0  0  0
  5 17  1  0  0  0  0
M  END
> <FRED Chemgauss4 score>
-4.639244

$$$$
C80937149	P126379197
  -OEChem-05182014473D

 37 37  0     1  0  0  0  0  0999 V2000
  125.1135  106.9553  107.1559 C   0  0  0  0  0  0  0  0  0  0  0  0
  122.5898  106.0523  104.0538 C   0  0  0  0  0  0  0  0  0  0  0  0
  121.0268  107.1438  105.5307 C   0  0  0  0  0  0  0  0  0  0  0  0
  123.7503  106.5100  104.9440 C   0  0  0  0  0  0  0  0  0  0  0  0
  122.1875  107.6003  106.4213 C   0  0  0  0  0  0  0  0  0  0  0  0
  125.5775  108.9344  105.6703 C   0  0  0  0  0  0  0  0  0  0  0  0
  119.1717  104.7674  104.8111 C   0  0  0  0  0  0  0  0  0  0  0  0
  120.2531  105.4598  103.9876 C   0  0  0  0  0  0  0  0  0  0  0  0
  124.5234  108.1959  106.4853 C   0  0  1  0  0  0  0  0  0  0  0  0
  118.0174  104.2507  103.9754 C   0  0  0  0  0  0  0  0  0  0  0  0
  126.0993  106.3834  106.5271 N   0  0  0  0  0  0  0  0  0  0  0  0
  121.3597  105.8926  104.8388 N   0  0  0  0  0  0  0  0  0  0  0  0
  123.4167  107.7615  105.6352 N   0  0  0  0  0  0  0  0  0  0  0  0
  124.5502  106.5521  108.3470 N   0  0  0  0  0  0  0  0  0  0  0  0
  126.5421  105.2650  107.2395 O   0  0  0  0  0  0  0  0  0  0  0  0
  117.0797  103.6593  104.7457 F   0  0  0  0  0  0  0  0  0  0  0  0
  117.4213  105.2699  103.3166 F   0  0  0  0  0  0  0  0  0  0  0  0
  118.4263  103.3552  103.0529 F   0  0  0  0  0  0  0  0  0  0  0  0
  122.4434  106.7738  103.2385 H   0  0  0  0  0  0  0  0  0  0  0  0
  122.8640  105.0942  103.5957 H   0  0  0  0  0  0  0  0  0  0  0  0
  120.1446  106.9931  106.1648 H   0  0  0  0  0  0  0  0  0  0  0  0
  120.7800  107.9361  104.8109 H   0  0  0  0  0  0  0  0  0  0  0  0
  123.9976  105.7183  105.6643 H   0  0  0  0  0  0  0  0  0  0  0  0
  124.6324  106.6608  104.3099 H   0  0  0  0  0  0  0  0  0  0  0  0
  121.9133  108.5578  106.8806 H   0  0  0  0  0  0  0  0  0  0  0  0
  122.3346  106.8777  107.2356 H   0  0  0  0  0  0  0  0  0  0  0  0
  125.9894  108.2890  104.8869 H   0  0  0  0  0  0  0  0  0  0  0  0
  126.4105  109.2813  106.2921 H   0  0  0  0  0  0  0  0  0  0  0  0
  125.1422  109.8162  105.1873 H   0  0  0  0  0  0  0  0  0  0  0  0
  119.6231  103.9189  105.3383 H   0  0  0  0  0  0  0  0  0  0  0  0
  118.7850  105.4514  105.5757 H   0  0  0  0  0  0  0  0  0  0  0  0
  119.8424  106.3214  103.4509 H   0  0  0  0  0  0  0  0  0  0  0  0
  120.6417  104.7622  103.2384 H   0  0  0  0  0  0  0  0  0  0  0  0
  124.1344  108.8704  107.2574 H   0  0  0  0  0  0  0  0  0  0  0  0
  123.7711  107.0588  108.7531 H   0  0  0  0  0  0  0  0  0  0  0  0
  124.8833  105.7347  108.8469 H   0  0  0  0  0  0  0  0  0  0  0  0
  127.2615  104.9435  106.6700 H   0  0  0  0  0  0  0  0  0  0  0  0
  1  9  1  0  0  0  0
  1 11  2  0  0  0  0
  1 14  1  0  0  0  0
  2  4  1  0  0  0  0
  2 12  1  0  0  0  0
  3  5  1  0  0  0  0
  3 12  1  0  0  0  0
  4 13  1  0  0  0  0
  5 13  1  0  0  0  0
  6  9  1  0  0  0  0
  7  8  1  0  0  0  0
  7 10  1  0  0  0  0
  8 12  1  0  0  0  0
  9 13  1  0  0  0  0
 10 16  1  0  0  0  0
 10 17  1  0  0  0  0
 10 18  1  0  0  0  0
 11 15  1  0  0  0  0
  2 19  1  0  0  0  0
  2 20  1  0  0  0  0
  3 21  1  0  0  0  0
  3 22  1  0  0  0  0
  4 23  1  0  0  0  0
  4 24  1  0  0  0  0
  5 25  1  0  0  0  0
  5 26  1  0  0  0  0
  6 27  1  0  0  0  0
  6 28  1  0  0  0  0
  6 29  1  0  0  0  0
  7 30  1  0  0  0  0
  7 31  1  0  0  0  0
  8 32  1  0  0  0  0
  8 33  1  0  0  0  0
  9 34  1  0  0  0  0
 14 35  1  0  0  0  0
 14 36  1  0  0  0  0
 15 37  1  0  0  0  0
M  END
> <FRED Chemgauss4 score>
-4.627727

$$$$
C39134860	P154331472
  -OEChem-05182014473D

 14 14  0     0  0  0  0  0  0999 V2000
  121.4914  107.8455  107.4372 C   0  0  0  0  0  0  0  0  0  0  0  0
  121.8855  107.3508  108.6628 C   0  0  0  0  0  0  0  0  0  0  0  0
  123.6482  107.7147  107.0619 C   0  0  0  0  0  0  0  0  0  0  0  0
  124.8923  107.8091  106.3756 C   0  0  0  0  0  0  0  0  0  0  0  0
  122.5008  108.0551  106.5181 N   0  0  0  0  0  0  0  0  0  0  0  0
  125.0344  107.1022  105.2520 N   0  0  0  0  0  0  0  0  0  0  0  0
  125.9746  108.6046  106.8204 N   0  0  0  0  0  0  0  0  0  0  0  0
  123.8968  106.3585  104.9224 O   0  0  0  0  0  0  0  0  0  0  0  0
  123.5867  107.1338  108.6756 S   0  0  0  0  0  0  0  0  0  0  0  0
  120.4709  108.0746  107.1602 H   0  0  0  0  0  0  0  0  0  0  0  0
  121.2747  107.1140  109.5220 H   0  0  0  0  0  0  0  0  0  0  0  0
  125.8960  109.1692  107.6585 H   0  0  0  0  0  0  0  0  0  0  0  0
  126.8457  108.6745  106.3051 H   0  0  0  0  0  0  0  0  0  0  0  0
  124.1802  105.9232  104.1007 H   0  0  0  0  0  0  0  0  0  0  0  0
  1  2  2  0  0  0  0
  1  5  1  0  0  0  0
  2  9  1  0  0  0  0
  3  4  1  0  0  0  0
  3  5  2  0  0  0  0
  3  9  1  0  0  0  0
  4  6  2  0  0  0  0
  4  7  1  0  0  0  0
  6  8  1  0  0  0  0
  1 10  1  0  0  0  0
  2 11  1  0  0  0  0
  7 12  1  0  0  0  0
  7 13  1  0  0  0  0
  8 14  1  0  0  0  0
M  END
> <FRED Chemgauss4 score>
-4.616014

$$$$
C43515613	P65814635
  -OEChem-05182014473D

 20 20  0     0  0  0  0  0  0999 V2000
  121.8195  104.7398  108.5142 C   0  0  0  0  0  0  0  0  0  0  0  0
  123.0904  105.2641  108.4963 C   0  0  0  0  0  0  0  0  0  0  0  0
  122.2502  105.1177  106.4643 C   0  0  0  0  0  0  0  0  0  0  0  0
  124.6012  106.0684  106.6185 C   0  0  0  0  0  0  0  0  0  0  0  0
  124.5993  107.2290  105.9054 C   0  0  0  0  0  0  0  0  0  0  0  0
  125.8139  105.2267  106.9312 C   0  0  0  0  0  0  0  0  0  0  0  0
  121.3021  104.6510  107.2461 N   0  0  0  0  0  0  0  0  0  0  0  0
  123.3527  105.5007  107.1763 N   0  0  0  0  0  0  0  0  0  0  0  0
  123.4340  107.9277  105.6713 N   0  0  0  0  0  0  0  0  0  0  0  0
  125.7609  107.7433  105.3758 N   0  0  0  0  0  0  0  0  0  0  0  0
  121.2512  104.4218  109.3761 H   0  0  0  0  0  0  0  0  0  0  0  0
  123.8005  105.4787  109.2836 H   0  0  0  0  0  0  0  0  0  0  0  0
  122.1919  105.1983  105.3867 H   0  0  0  0  0  0  0  0  0  0  0  0
  126.2662  105.5466  107.8762 H   0  0  0  0  0  0  0  0  0  0  0  0
  126.5673  105.3251  106.1407 H   0  0  0  0  0  0  0  0  0  0  0  0
  125.5941  104.1593  107.0093 H   0  0  0  0  0  0  0  0  0  0  0  0
  122.5678  107.5656  106.0498 H   0  0  0  0  0  0  0  0  0  0  0  0
  123.4338  108.7943  105.1501 H   0  0  0  0  0  0  0  0  0  0  0  0
  126.6472  107.2693  105.4758 H   0  0  0  0  0  0  0  0  0  0  0  0
  125.7077  108.5973  104.8347 H   0  0  0  0  0  0  0  0  0  0  0  0
  1  2  2  0  0  0  0
  1  7  1  0  0  0  0
  2  8  1  0  0  0  0
  3  7  2  0  0  0  0
  3  8  1  0  0  0  0
  4  5  2  0  0  0  0
  4  6  1  0  0  0  0
  4  8  1  0  0  0  0
  5  9  1  0  0  0  0
  5 10  1  0  0  0  0
  1 11  1  0  0  0  0
  2 12  1  0  0  0  0
  3 13  1  0  0  0  0
  6 14  1  0  0  0  0
  6 15  1  0  0  0  0
  6 16  1  0  0  0  0
  9 17  1  0  0  0  0
  9 18  1  0  0  0  0
 10 19  1  0  0  0  0
 10 20  1  0  0  0  0
M  END
> <FRED Chemgauss4 score>
-4.614470

$$$$
C40228782	P61083036
  -OEChem-05182014473D

 20 19  0     0  0  0  0  0  0999 V2000
  121.3062  105.7436  107.2307 C   0  0  0  0  0  0  0  0  0  0  0  0
  121.8517  107.0063  106.5891 C   0  0  0  0  0  0  0  0  0  0  0  0
  124.8116  107.5658  106.3140 C   0  0  0  0  0  0  0  0  0  0  0  0
  124.0234  106.3009  106.0332 C   0  0  0  0  0  0  0  0  0  0  0  0
  120.0786  103.7866  106.8673 N   0  0  0  0  0  0  0  0  0  0  0  0
  120.5471  104.9642  106.2262 N   0  0  0  0  0  0  0  0  0  0  0  0
  124.9650  108.2955  105.1027 O   0  0  0  0  0  0  0  0  0  0  0  0
  122.7402  106.6550  105.5361 O   0  0  0  0  0  0  0  0  0  0  0  0
  122.1140  105.1129  107.6152 H   0  0  0  0  0  0  0  0  0  0  0  0
  120.6273  105.9958  108.0509 H   0  0  0  0  0  0  0  0  0  0  0  0
  122.4144  107.5880  107.3260 H   0  0  0  0  0  0  0  0  0  0  0  0
  121.0494  107.6289  106.1800 H   0  0  0  0  0  0  0  0  0  0  0  0
  125.8086  107.3319  106.6996 H   0  0  0  0  0  0  0  0  0  0  0  0
  124.2783  108.1982  107.0298 H   0  0  0  0  0  0  0  0  0  0  0  0
  123.8849  105.7116  106.9451 H   0  0  0  0  0  0  0  0  0  0  0  0
  124.5291  105.6948  105.2759 H   0  0  0  0  0  0  0  0  0  0  0  0
  120.2813  103.8326  107.8656 H   0  0  0  0  0  0  0  0  0  0  0  0
  119.0624  103.7719  106.7899 H   0  0  0  0  0  0  0  0  0  0  0  0
  121.1755  104.7252  105.4705 H   0  0  0  0  0  0  0  0  0  0  0  0
  125.4716  109.0943  105.3204 H   0  0  0  0  0  0  0  0  0  0  0  0
  1  2  1  0  0  0  0
  1  6  1  0  0  0  0
  2  8  1  0  0  0  0
  3  4  1  0  0  0  0
  3  7  1  0  0  0  0
  4  8  1  0  0  0  0
  5  6  1  0  0  0  0
  1  9  1  0  0  0  0
  1 10  1  0  0  0  0
  2 11  1  0  0  0  0
  2 12  1  0  0  0  0
  3 13  1  0  0  0  0
  3 14  1  0  0  0  0
  4 15  1  0  0  0  0
  4 16  1  0  0  0  0
  5 17  1  0  0  0  0
  5 18  1  0  0  0  0
  6 19  1  0  0  0  0
  7 20  1  0  0  0  0
M  END
> <FRED Chemgauss4 score>
-4.612890

$$$$
C19476287	P28820268
  -OEChem-05182014473D

 18 18  0     0  0  0  0  0  0999 V2000
  121.9920  106.7521  106.3212 C   0  0  0  0  0  0  0  0  0  0  0  0
  123.8256  107.7445  106.2208 C   0  0  0  0  0  0  0  0  0  0  0  0
  125.8060  104.8681  107.5574 C   0  0  0  0  0  0  0  0  0  0  0  0
  125.1752  105.5425  108.7594 C   0  0  0  0  0  0  0  0  0  0  0  0
  124.7174  106.9732  108.4629 C   0  0  0  0  0  0  0  0  0  0  0  0
  122.7312  107.5713  105.5167 N   0  0  0  0  0  0  0  0  0  0  0  0
  122.5601  106.4076  107.4787 N   0  0  0  0  0  0  0  0  0  0  0  0
  123.7317  107.0554  107.3896 N   0  0  0  0  0  0  0  0  0  0  0  0
  125.5727  103.5229  107.4510 N   0  0  0  0  0  0  0  0  0  0  0  0
  126.7264  105.7017  106.4385 S   0  0  0  0  0  0  0  0  0  0  0  0
  121.0090  106.3934  106.0550 H   0  0  0  0  0  0  0  0  0  0  0  0
  124.6866  108.3349  105.9409 H   0  0  0  0  0  0  0  0  0  0  0  0
  125.8592  105.5244  109.6161 H   0  0  0  0  0  0  0  0  0  0  0  0
  124.2928  104.9536  109.0413 H   0  0  0  0  0  0  0  0  0  0  0  0
  125.5745  107.5833  108.1530 H   0  0  0  0  0  0  0  0  0  0  0  0
  124.2909  107.4517  109.3519 H   0  0  0  0  0  0  0  0  0  0  0  0
  125.0173  103.0136  108.1307 H   0  0  0  0  0  0  0  0  0  0  0  0
  125.9549  102.9849  106.6804 H   0  0  0  0  0  0  0  0  0  0  0  0
  1  6  1  0  0  0  0
  1  7  2  0  0  0  0
  2  6  2  0  0  0  0
  2  8  1  0  0  0  0
  3  4  1  0  0  0  0
  3  9  1  0  0  0  0
  3 10  2  0  0  0  0
  4  5  1  0  0  0  0
  5  8  1  0  0  0  0
  7  8  1  0  0  0  0
  1 11  1  0  0  0  0
  2 12  1  0  0  0  0
  4 13  1  0  0  0  0
  4 14  1  0  0  0  0
  5 15  1  0  0  0  0
  5 16  1  0  0  0  0
  9 17  1  0  0  0  0
  9 18  1  0  0  0  0
M  END
> <FRED Chemgauss4 score>
-4.599799

$$$$
TFB-TBOA
  -OEChem-05182014473D

 47 48  0     1  0  0  0  0  0999 V2000
  121.3165  109.5329  110.4512 C   0  0  0  0  0  0  0  0  0  0  0  0
  117.4700  107.3677  104.6086 C   0  0  0  0  0  0  0  0  0  0  0  0
  116.7067  107.1314  106.8886 C   0  0  0  0  0  0  0  0  0  0  0  0
  122.5814  109.3810  109.8834 C   0  0  0  0  0  0  0  0  0  0  0  0
  116.1771  107.1161  104.1496 C   0  0  0  0  0  0  0  0  0  0  0  0
  115.4137  106.8799  106.4296 C   0  0  0  0  0  0  0  0  0  0  0  0
  120.1816  109.1412  109.7412 C   0  0  0  0  0  0  0  0  0  0  0  0
  121.5766  108.4457  107.8953 C   0  0  0  0  0  0  0  0  0  0  0  0
  117.7348  107.3753  105.9781 C   0  0  0  0  0  0  0  0  0  0  0  0
  115.1489  106.8723  105.0601 C   0  0  0  0  0  0  0  0  0  0  0  0
  122.7115  108.8374  108.6054 C   0  0  0  0  0  0  0  0  0  0  0  0
  120.3116  108.5976  108.4632 C   0  0  0  0  0  0  0  0  0  0  0  0
  119.0997  107.6413  106.4639 C   0  0  0  0  0  0  0  0  0  0  0  0
  125.3397  104.5217  107.6052 C   0  0  0  0  0  0  0  0  0  0  0  0
  124.8329  106.8547  105.7306 C   0  0  0  0  0  0  0  0  0  0  0  0
  124.0724  108.6742  107.9950 C   0  0  0  0  0  0  0  0  0  0  0  0
  126.2333  105.7518  107.5345 C   0  0  2  0  0  0  0  0  0  0  0  0
  125.4643  107.0060  107.0992 C   0  0  2  0  0  0  0  0  0  0  0  0
  113.7663  106.6044  104.5689 C   0  0  0  0  0  0  0  0  0  0  0  0
  127.2966  105.4688  106.5649 N   0  0  0  0  0  0  0  0  0  0  0  0
  119.1763  108.2053  107.7534 N   0  0  0  0  0  0  0  0  0  0  0  0
  120.0789  107.4091  105.7581 O   0  0  0  0  0  0  0  0  0  0  0  0
  125.0765  103.7840  106.6639 O   0  0  0  0  0  0  0  0  0  0  0  0
  123.7240  106.3899  105.5088 O   0  0  0  0  0  0  0  0  0  0  0  0
  124.8342  104.3277  108.8514 O   0  0  0  0  0  0  0  0  0  0  0  0
  125.6779  107.2787  104.7571 O   0  0  0  0  0  0  0  0  0  0  0  0
  124.4380  107.3014  108.0367 O   0  0  0  0  0  0  0  0  0  0  0  0
  113.6547  106.6291  103.2077 F   0  0  0  0  0  0  0  0  0  0  0  0
  113.2797  105.3846  104.9440 F   0  0  0  0  0  0  0  0  0  0  0  0
  112.8605  107.5168  105.0270 F   0  0  0  0  0  0  0  0  0  0  0  0
  121.2152  109.9558  111.4465 H   0  0  0  0  0  0  0  0  0  0  0  0
  118.2641  107.5566  103.8908 H   0  0  0  0  0  0  0  0  0  0  0  0
  116.9013  107.1348  107.9579 H   0  0  0  0  0  0  0  0  0  0  0  0
  123.4594  109.6896  110.4440 H   0  0  0  0  0  0  0  0  0  0  0  0
  115.9797  107.1124  103.0809 H   0  0  0  0  0  0  0  0  0  0  0  0
  114.6185  106.6914  107.1462 H   0  0  0  0  0  0  0  0  0  0  0  0
  119.2008  109.2644  110.1935 H   0  0  0  0  0  0  0  0  0  0  0  0
  121.6805  108.0228  106.8984 H   0  0  0  0  0  0  0  0  0  0  0  0
  124.0781  109.0138  106.9536 H   0  0  0  0  0  0  0  0  0  0  0  0
  124.8166  109.2610  108.5442 H   0  0  0  0  0  0  0  0  0  0  0  0
  126.7178  105.8957  108.5064 H   0  0  0  0  0  0  0  0  0  0  0  0
  126.1322  107.8756  107.0570 H   0  0  0  0  0  0  0  0  0  0  0  0
  127.6254  104.5331  106.4985 H   0  0  0  0  0  0  0  0  0  0  0  0
  127.7794  106.2422  106.1686 H   0  0  0  0  0  0  0  0  0  0  0  0
  118.2796  108.3458  108.2330 H   0  0  0  0  0  0  0  0  0  0  0  0
  124.2406  103.5530  108.9486 H   0  0  0  0  0  0  0  0  0  0  0  0
  125.2913  107.1666  103.8626 H   0  0  0  0  0  0  0  0  0  0  0  0
  1  4  2  0  0  0  0
  1  7  1  0  0  0  0
  2  5  1  0  0  0  0
  2  9  2  0  0  0  0
  3  6  2  0  0  0  0
  3  9  1  0  0  0  0
  4 11  1  0  0  0  0
  5 10  2  0  0  0  0
  6 10  1  0  0  0  0
  7 12  2  0  0  0  0
  8 11  2  0  0  0  0
  8 12  1  0  0  0  0
  9 13  1  0  0  0  0
 10 19  1  0  0  0  0
 11 16  1  0  0  0  0
 12 21  1  0  0  0  0
 13 21  1  0  0  0  0
 13 22  2  0  0  0  0
 14 17  1  0  0  0  0
 14 23  2  0  0  0  0
 14 25  1  0  0  0  0
 15 18  1  0  0  0  0
 15 24  2  0  0  0  0
 15 26  1  0  0  0  0
 16 27  1  0  0  0  0
 17 18  1  0  0  0  0
 17 20  1  0  0  0  0
 18 27  1  0  0  0  0
 19 28  1  0  0  0  0
 19 29  1  0  0  0  0
 19 30  1  0  0  0  0
  1 31  1  0  0  0  0
  2 32  1  0  0  0  0
  3 33  1  0  0  0  0
  4 34  1  0  0  0  0
  5 35  1  0  0  0  0
  6 36  1  0  0  0  0
  7 37  1  0  0  0  0
  8 38  1  0  0  0  0
 16 39  1  0  0  0  0
 16 40  1  0  0  0  0
 17 41  1  0  0  0  0
 18 42  1  0  0  0  0
 20 43  1  0  0  0  0
 20 44  1  0  0  0  0
 21 45  1  0  0  0  0
 25 46  1  0  0  0  0
 26 47  1  0  0  0  0
M  END
> <FRED Chemgauss4 score>
-4.598977

$$$$
C82476675	P128888917
  -OEChem-05182014473D

 28 28  0     1  0  0  0  0  0999 V2000
  121.8942  107.5348  106.6638 C   0  0  0  0  0  0  0  0  0  0  0  0
  125.9334  105.1866  107.5876 C   0  0  0  0  0  0  0  0  0  0  0  0
  122.9177  108.0080  108.8443 C   0  0  0  0  0  0  0  0  0  0  0  0
  124.0068  106.9769  108.5487 C   0  0  0  0  0  0  0  0  0  0  0  0
  122.3526  106.1013  106.9669 C   0  0  1  0  0  0  0  0  0  0  0  0
  120.6226  105.2501  105.3792 C   0  0  0  0  0  0  0  0  0  0  0  0
  124.4625  104.9046  107.4159 C   0  0  0  0  0  0  0  0  0  0  0  0
  122.0642  105.2070  105.7566 C   0  0  0  0  0  0  0  0  0  0  0  0
  122.2559  108.4454  107.6405 N   0  0  0  0  0  0  0  0  0  0  0  0
  123.7784  106.1919  107.3216 N   0  0  2  0  0  0  0  0  0  0  0  0
  126.4882  104.7074  108.7450 N   0  0  0  0  0  0  0  0  0  0  0  0
  121.2473  107.8481  105.6669 O   0  0  0  0  0  0  0  0  0  0  0  0
  126.8305  106.0104  106.4436 S   0  0  0  0  0  0  0  0  0  0  0  0
  122.1650  107.5910  109.5143 H   0  0  0  0  0  0  0  0  0  0  0  0
  123.3483  108.8942  109.3154 H   0  0  0  0  0  0  0  0  0  0  0  0
  124.9782  107.5286  108.4870 H   0  0  0  0  0  0  0  0  0  0  0  0
  124.1311  106.2948  109.4299 H   0  0  0  0  0  0  0  0  0  0  0  0
  121.7696  105.7722  107.8198 H   0  0  0  0  0  0  0  0  0  0  0  0
  120.0153  104.9114  106.2268 H   0  0  0  0  0  0  0  0  0  0  0  0
  120.4186  104.5894  104.5299 H   0  0  0  0  0  0  0  0  0  0  0  0
  120.3132  106.2695  105.1254 H   0  0  0  0  0  0  0  0  0  0  0  0
  124.0398  104.3470  108.2558 H   0  0  0  0  0  0  0  0  0  0  0  0
  124.2795  104.3608  106.4845 H   0  0  0  0  0  0  0  0  0  0  0  0
  122.6781  105.5423  104.9198 H   0  0  0  0  0  0  0  0  0  0  0  0
  122.3545  104.1844  106.0004 H   0  0  0  0  0  0  0  0  0  0  0  0
  122.0571  109.4068  107.5092 H   0  0  0  0  0  0  0  0  0  0  0  0
  125.9449  104.1988  109.4352 H   0  0  0  0  0  0  0  0  0  0  0  0
  127.4718  104.8465  108.9512 H   0  0  0  0  0  0  0  0  0  0  0  0
  1  5  1  0  0  0  0
  1  9  1  0  0  0  0
  1 12  2  0  0  0  0
  2  7  1  0  0  0  0
  2 11  1  0  0  0  0
  2 13  2  0  0  0  0
  3  4  1  0  0  0  0
  3  9  1  0  0  0  0
  4 10  1  0  0  0  0
  5  8  1  0  0  0  0
  5 10  1  0  0  0  0
  6  8  1  0  0  0  0
  7 10  1  0  0  0  0
  3 14  1  0  0  0  0
  3 15  1  0  0  0  0
  4 16  1  0  0  0  0
  4 17  1  0  0  0  0
  5 18  1  0  0  0  0
  6 19  1  0  0  0  0
  6 20  1  0  0  0  0
  6 21  1  0  0  0  0
  7 22  1  0  0  0  0
  7 23  1  0  0  0  0
  8 24  1  0  0  0  0
  8 25  1  0  0  0  0
  9 26  1  0  0  0  0
 11 27  1  0  0  0  0
 11 28  1  0  0  0  0
M  END
> <FRED Chemgauss4 score>
-4.591267

$$$$
C69049229	P106086117
  -OEChem-05182014473D

 22 22  0     1  0  0  0  0  0999 V2000
  122.0152  104.5733  106.0333 C   0  0  0  0  0  0  0  0  0  0  0  0
  121.8119  105.7190  105.2960 C   0  0  0  0  0  0  0  0  0  0  0  0
  123.9187  105.4805  106.9182 C   0  0  0  0  0  0  0  0  0  0  0  0
  123.7159  106.6260  106.1804 C   0  0  0  0  0  0  0  0  0  0  0  0
  127.6679  106.0588  107.6161 C   0  0  0  0  0  0  0  0  0  0  0  0
  125.8480  107.4950  107.2312 C   0  0  0  0  0  0  0  0  0  0  0  0
  124.6885  107.7819  106.2736 C   0  0  1  0  0  0  0  0  0  0  0  0
  123.0722  104.4335  106.8577 N   0  0  0  0  0  0  0  0  0  0  0  0
  122.6586  106.7659  105.3563 N   0  0  0  0  0  0  0  0  0  0  0  0
  125.1854  108.1415  104.9627 N   0  0  0  0  0  0  0  0  0  0  0  0
  126.5845  106.3737  106.7536 O   0  0  0  0  0  0  0  0  0  0  0  0
  121.3344  103.7325  105.9841 H   0  0  0  0  0  0  0  0  0  0  0  0
  120.9622  105.8307  104.6339 H   0  0  0  0  0  0  0  0  0  0  0  0
  124.7661  105.3610  107.5830 H   0  0  0  0  0  0  0  0  0  0  0  0
  128.2102  105.1962  107.2211 H   0  0  0  0  0  0  0  0  0  0  0  0
  127.2863  105.8362  108.6157 H   0  0  0  0  0  0  0  0  0  0  0  0
  128.3418  106.9172  107.6683 H   0  0  0  0  0  0  0  0  0  0  0  0
  126.5355  108.3466  107.2795 H   0  0  0  0  0  0  0  0  0  0  0  0
  125.4968  107.2695  108.2441 H   0  0  0  0  0  0  0  0  0  0  0  0
  124.1600  108.6758  106.6284 H   0  0  0  0  0  0  0  0  0  0  0  0
  126.0485  108.6484  104.8967 H   0  0  0  0  0  0  0  0  0  0  0  0
  124.5695  108.0606  104.1749 H   0  0  0  0  0  0  0  0  0  0  0  0
  1  2  2  0  0  0  0
  1  8  1  0  0  0  0
  2  9  1  0  0  0  0
  3  4  1  0  0  0  0
  3  8  2  0  0  0  0
  4  7  1  0  0  0  0
  4  9  2  0  0  0  0
  5 11  1  0  0  0  0
  6  7  1  0  0  0  0
  6 11  1  0  0  0  0
  7 10  1  0  0  0  0
  1 12  1  0  0  0  0
  2 13  1  0  0  0  0
  3 14  1  0  0  0  0
  5 15  1  0  0  0  0
  5 16  1  0  0  0  0
  5 17  1  0  0  0  0
  6 18  1  0  0  0  0
  6 19  1  0  0  0  0
  7 20  1  0  0  0  0
 10 21  1  0  0  0  0
 10 22  1  0  0  0  0
M  END
> <FRED Chemgauss4 score>
-4.588240

$$$$
C85798269	P134352633
  -OEChem-05182014473D

 28 28  0     1  0  0  0  0  0999 V2000
  122.7337  107.6624  107.2129 C   0  0  0  0  0  0  0  0  0  0  0  0
  121.5235  107.2960  106.5939 C   0  0  0  0  0  0  0  0  0  0  0  0
  123.7076  107.2233  106.3497 C   0  0  0  0  0  0  0  0  0  0  0  0
  123.6370  106.0303  104.1391 C   0  0  0  0  0  0  0  0  0  0  0  0
  126.1382  105.4912  108.7818 C   0  0  0  0  0  0  0  0  0  0  0  0
  125.7078  103.6841  107.2581 C   0  0  0  0  0  0  0  0  0  0  0  0
  125.9077  105.9311  106.4311 C   0  0  0  0  0  0  0  0  0  0  0  0
  125.2221  107.3064  106.4284 C   0  0  1  0  0  0  0  0  0  0  0  0
  121.7092  106.6723  105.4275 N   0  0  0  0  0  0  0  0  0  0  0  0
  123.0473  106.6435  105.3066 N   0  0  0  0  0  0  0  0  0  0  0  0
  125.7583  108.1210  105.3313 N   0  0  0  0  0  0  0  0  0  0  0  0
  125.4622  105.0966  107.5465 N   0  0  0  0  0  0  0  0  0  0  0  0
  122.8766  108.1734  108.1538 H   0  0  0  0  0  0  0  0  0  0  0  0
  120.5142  107.4575  106.9443 H   0  0  0  0  0  0  0  0  0  0  0  0
  123.7993  104.9719  104.3596 H   0  0  0  0  0  0  0  0  0  0  0  0
  122.9607  106.1440  103.2872 H   0  0  0  0  0  0  0  0  0  0  0  0
  124.5857  106.5244  103.9116 H   0  0  0  0  0  0  0  0  0  0  0  0
  125.9508  106.5474  108.9918 H   0  0  0  0  0  0  0  0  0  0  0  0
  127.2166  105.3369  108.6884 H   0  0  0  0  0  0  0  0  0  0  0  0
  125.7703  104.8949  109.6211 H   0  0  0  0  0  0  0  0  0  0  0  0
  125.2002  103.3955  106.3340 H   0  0  0  0  0  0  0  0  0  0  0  0
  125.3334  103.0609  108.0747 H   0  0  0  0  0  0  0  0  0  0  0  0
  126.7798  103.5029  107.1420 H   0  0  0  0  0  0  0  0  0  0  0  0
  125.6660  105.3786  105.5160 H   0  0  0  0  0  0  0  0  0  0  0  0
  126.9985  106.0065  106.4944 H   0  0  0  0  0  0  0  0  0  0  0  0
  125.4908  107.8171  107.3624 H   0  0  0  0  0  0  0  0  0  0  0  0
  126.7124  107.9937  105.0856 H   0  0  0  0  0  0  0  0  0  0  0  0
  125.2163  108.8946  105.0234 H   0  0  0  0  0  0  0  0  0  0  0  0
  1  2  1  0  0  0  0
  1  3  2  0  0  0  0
  2  9  2  0  0  0  0
  3  8  1  0  0  0  0
  3 10  1  0  0  0  0
  4 10  1  0  0  0  0
  5 12  1  0  0  0  0
  6 12  1  0  0  0  0
  7  8  1  0  0  0  0
  7 12  1  0  0  0  0
  8 11  1  0  0  0  0
  9 10  1  0  0  0  0
  1 13  1  0  0  0  0
  2 14  1  0  0  0  0
  4 15  1  0  0  0  0
  4 16  1  0  0  0  0
  4 17  1  0  0  0  0
  5 18  1  0  0  0  0
  5 19  1  0  0  0  0
  5 20  1  0  0  0  0
  6 21  1  0  0  0  0
  6 22  1  0  0  0  0
  6 23  1  0  0  0  0
  7 24  1  0  0  0  0
  7 25  1  0  0  0  0
  8 26  1  0  0  0  0
 11 27  1  0  0  0  0
 11 28  1  0  0  0  0
M  END
> <FRED Chemgauss4 score>
-4.586339

$$$$
C36437531	P130761431
  -OEChem-05182014473D

 22 22  0     1  0  0  0  0  0999 V2000
  122.9435  104.7673  107.1648 C   0  0  0  0  0  0  0  0  0  0  0  0
  124.1997  104.3457  107.8863 C   0  0  0  0  0  0  0  0  0  0  0  0
  122.8781  106.2461  107.5084 C   0  0  2  0  0  0  0  0  0  0  0  0
  125.1003  105.5479  107.6553 C   0  0  2  0  0  0  0  0  0  0  0  0
  122.1390  107.0746  106.4755 C   0  0  0  0  0  0  0  0  0  0  0  0
  126.1515  105.7313  108.7328 C   0  0  0  0  0  0  0  0  0  0  0  0
  122.7886  106.9759  105.2079 N   0  0  0  0  0  0  0  0  0  0  0  0
  124.2391  106.6992  107.6136 O   0  0  0  0  0  0  0  0  0  0  0  0
  126.9402  106.8676  108.4170 O   0  0  0  0  0  0  0  0  0  0  0  0
  123.0695  104.6177  106.0857 H   0  0  0  0  0  0  0  0  0  0  0  0
  122.0538  104.2177  107.4847 H   0  0  0  0  0  0  0  0  0  0  0  0
  123.9851  104.2126  108.9538 H   0  0  0  0  0  0  0  0  0  0  0  0
  124.6283  103.4147  107.5050 H   0  0  0  0  0  0  0  0  0  0  0  0
  122.4158  106.3852  108.4928 H   0  0  0  0  0  0  0  0  0  0  0  0
  125.5856  105.4737  106.6746 H   0  0  0  0  0  0  0  0  0  0  0  0
  122.1335  108.1142  106.7878 H   0  0  0  0  0  0  0  0  0  0  0  0
  121.1218  106.7093  106.3782 H   0  0  0  0  0  0  0  0  0  0  0  0
  126.8005  104.8532  108.7855 H   0  0  0  0  0  0  0  0  0  0  0  0
  125.6775  105.8882  109.7052 H   0  0  0  0  0  0  0  0  0  0  0  0
  123.7991  106.9260  105.1647 H   0  0  0  0  0  0  0  0  0  0  0  0
  122.2653  107.1596  104.3606 H   0  0  0  0  0  0  0  0  0  0  0  0
  127.6015  106.9578  109.1231 H   0  0  0  0  0  0  0  0  0  0  0  0
  1  2  1  0  0  0  0
  1  3  1  0  0  0  0
  2  4  1  0  0  0  0
  3  5  1  0  0  0  0
  3  8  1  0  0  0  0
  4  6  1  0  0  0  0
  4  8  1  0  0  0  0
  5  7  1  0  0  0  0
  6  9  1  0  0  0  0
  1 10  1  0  0  0  0
  1 11  1  0  0  0  0
  2 12  1  0  0  0  0
  2 13  1  0  0  0  0
  3 14  1  0  0  0  0
  4 15  1  0  0  0  0
  5 16  1  0  0  0  0
  5 17  1  0  0  0  0
  6 18  1  0  0  0  0
  6 19  1  0  0  0  0
  7 20  1  0  0  0  0
  7 21  1  0  0  0  0
  9 22  1  0  0  0  0
M  END
> <FRED Chemgauss4 score>
-4.585805

$$$$
C17014094	P25603870
  -OEChem-05182014473D

 18 17  0     0  0  0  0  0  0999 V2000
  124.8254  106.5441  106.6085 C   0  0  0  0  0  0  0  0  0  0  0  0
  123.6126  107.0356  106.8914 C   0  0  0  0  0  0  0  0  0  0  0  0
  126.0117  107.0120  107.3792 C   0  0  0  0  0  0  0  0  0  0  0  0
  122.4264  106.5671  106.1214 C   0  0  0  0  0  0  0  0  0  0  0  0
  127.2990  106.5298  109.3210 N   0  0  0  0  0  0  0  0  0  0  0  0
  120.7210  104.8926  106.1323 N   0  0  0  0  0  0  0  0  0  0  0  0
  126.2334  106.2288  108.4959 N   0  0  0  0  0  0  0  0  0  0  0  0
  121.8382  105.4639  106.7136 N   0  0  0  0  0  0  0  0  0  0  0  0
  126.6842  107.9781  107.0325 O   0  0  0  0  0  0  0  0  0  0  0  0
  122.0474  107.1169  105.0920 O   0  0  0  0  0  0  0  0  0  0  0  0
  124.9801  105.8071  105.8274 H   0  0  0  0  0  0  0  0  0  0  0  0
  123.4583  107.7730  107.6723 H   0  0  0  0  0  0  0  0  0  0  0  0
  127.0136  106.2925  110.2702 H   0  0  0  0  0  0  0  0  0  0  0  0
  127.4083  107.5430  109.3052 H   0  0  0  0  0  0  0  0  0  0  0  0
  120.1386  104.5276  106.8849 H   0  0  0  0  0  0  0  0  0  0  0  0
  120.1884  105.6422  105.6929 H   0  0  0  0  0  0  0  0  0  0  0  0
  125.6229  105.4451  108.7063 H   0  0  0  0  0  0  0  0  0  0  0  0
  122.2241  105.0763  107.5689 H   0  0  0  0  0  0  0  0  0  0  0  0
  1  2  2  0  0  0  0
  1  3  1  0  0  0  0
  2  4  1  0  0  0  0
  3  7  1  0  0  0  0
  3  9  2  0  0  0  0
  4  8  1  0  0  0  0
  4 10  2  0  0  0  0
  5  7  1  0  0  0  0
  6  8  1  0  0  0  0
  1 11  1  0  0  0  0
  2 12  1  0  0  0  0
  5 13  1  0  0  0  0
  5 14  1  0  0  0  0
  6 15  1  0  0  0  0
  6 16  1  0  0  0  0
  7 17  1  0  0  0  0
  8 18  1  0  0  0  0
M  END
> <FRED Chemgauss4 score>
-4.575426

$$$$
C85085297	P133149947
  -OEChem-05182014473D

 22 22  0     0  0  0  0  0  0999 V2000
  121.3173  104.6904  105.9032 C   0  0  0  0  0  0  0  0  0  0  0  0
  121.4562  106.4373  107.6504 C   0  0  0  0  0  0  0  0  0  0  0  0
  121.7487  105.7184  104.8854 C   0  0  0  0  0  0  0  0  0  0  0  0
  121.8843  107.4211  106.5885 C   0  0  0  0  0  0  0  0  0  0  0  0
  123.9172  106.2964  105.8430 C   0  0  0  0  0  0  0  0  0  0  0  0
  124.9122  107.4409  105.9369 C   0  0  0  0  0  0  0  0  0  0  0  0
  121.1772  105.1558  107.2016 N   0  0  0  0  0  0  0  0  0  0  0  0
  122.5782  106.7582  105.4879 N   0  0  0  0  0  0  0  0  0  0  0  0
  125.0204  108.1636  104.6985 N   0  0  0  0  0  0  0  0  0  0  0  0
  121.0581  103.5328  105.5750 O   0  0  0  0  0  0  0  0  0  0  0  0
  121.3159  106.7814  108.8237 O   0  0  0  0  0  0  0  0  0  0  0  0
  122.2653  105.1967  104.0561 H   0  0  0  0  0  0  0  0  0  0  0  0
  120.8279  106.1665  104.4668 H   0  0  0  0  0  0  0  0  0  0  0  0
  120.9668  107.9128  106.2135 H   0  0  0  0  0  0  0  0  0  0  0  0
  122.5051  108.2039  107.0661 H   0  0  0  0  0  0  0  0  0  0  0  0
  123.8364  105.7585  106.7929 H   0  0  0  0  0  0  0  0  0  0  0  0
  124.2292  105.5897  105.0677 H   0  0  0  0  0  0  0  0  0  0  0  0
  124.5943  108.1576  106.7004 H   0  0  0  0  0  0  0  0  0  0  0  0
  125.9127  107.0793  106.1954 H   0  0  0  0  0  0  0  0  0  0  0  0
  120.8363  104.4919  107.8924 H   0  0  0  0  0  0  0  0  0  0  0  0
  125.8645  108.6776  104.5015 H   0  0  0  0  0  0  0  0  0  0  0  0
  124.1924  108.3161  104.1446 H   0  0  0  0  0  0  0  0  0  0  0  0
  1  3  1  0  0  0  0
  1  7  1  0  0  0  0
  1 10  2  0  0  0  0
  2  4  1  0  0  0  0
  2  7  1  0  0  0  0
  2 11  2  0  0  0  0
  3  8  1  0  0  0  0
  4  8  1  0  0  0  0
  5  6  1  0  0  0  0
  5  8  1  0  0  0  0
  6  9  1  0  0  0  0
  3 12  1  0  0  0  0
  3 13  1  0  0  0  0
  4 14  1  0  0  0  0
  4 15  1  0  0  0  0
  5 16  1  0  0  0  0
  5 17  1  0  0  0  0
  6 18  1  0  0  0  0
  6 19  1  0  0  0  0
  7 20  1  0  0  0  0
  9 21  1  0  0  0  0
  9 22  1  0  0  0  0
M  END
> <FRED Chemgauss4 score>
-4.564914

$$$$
C03954260	P132242232
  -OEChem-05182014473D

 12 12  0     0  0  0  0  0  0999 V2000
  126.1379  105.1398  109.0435 C   0  0  0  0  0  0  0  0  0  0  0  0
  124.5755  105.1817  107.6600 C   0  0  0  0  0  0  0  0  0  0  0  0
  123.5086  106.6211  105.9099 C   0  0  0  0  0  0  0  0  0  0  0  0
  125.5630  105.9317  108.0912 N   0  0  0  0  0  0  0  0  0  0  0  0
  125.5683  103.9470  109.2287 N   0  0  0  0  0  0  0  0  0  0  0  0
  124.5718  103.9992  108.3318 N   0  0  0  0  0  0  0  0  0  0  0  0
  123.6472  105.4594  106.6936 N   0  0  0  0  0  0  0  0  0  0  0  0
  122.6782  106.8677  105.0465 O   0  0  0  0  0  0  0  0  0  0  0  0
  126.9992  105.4415  109.6207 H   0  0  0  0  0  0  0  0  0  0  0  0
  124.2854  107.3627  106.1635 H   0  0  0  0  0  0  0  0  0  0  0  0
  123.9454  103.2085  108.2381 H   0  0  0  0  0  0  0  0  0  0  0  0
  122.9303  104.7396  106.4803 H   0  0  0  0  0  0  0  0  0  0  0  0
  1  4  1  0  0  0  0
  1  5  2  0  0  0  0
  2  4  2  0  0  0  0
  2  6  1  0  0  0  0
  2  7  1  0  0  0  0
  3  7  1  0  0  0  0
  3  8  2  0  0  0  0
  5  6  1  0  0  0  0
  1  9  1  0  0  0  0
  3 10  1  0  0  0  0
  6 11  1  0  0  0  0
  7 12  1  0  0  0  0
M  END
> <FRED Chemgauss4 score>
-4.559263

$$$$
C50194441	P75082774
  -OEChem-05182014473D

 24 25  0     1  0  0  0  0  0999 V2000
  123.2543  106.9319  105.8728 C   0  0  0  0  0  0  0  0  0  0  0  0
  125.2593  106.3139  106.4684 C   0  0  0  0  0  0  0  0  0  0  0  0
  121.8464  106.9214  105.9413 C   0  0  0  0  0  0  0  0  0  0  0  0
  121.2411  106.1300  106.8353 C   0  0  0  0  0  0  0  0  0  0  0  0
  122.1138  105.2961  107.7168 C   0  0  0  0  0  0  0  0  0  0  0  0
  121.4264  104.4083  108.7228 C   0  0  0  0  0  0  0  0  0  0  0  0
  126.3012  104.0842  107.0471 C   0  0  0  0  0  0  0  0  0  0  0  0
  126.3448  105.6203  107.1848 C   0  0  2  0  0  0  0  0  0  0  0  0
  124.1161  107.5841  105.1216 N   0  0  0  0  0  0  0  0  0  0  0  0
  125.3847  107.1922  105.4992 N   0  0  0  0  0  0  0  0  0  0  0  0
  123.4145  105.2810  107.6792 N   0  0  0  0  0  0  0  0  0  0  0  0
  123.9380  106.1133  106.7433 N   0  0  0  0  0  0  0  0  0  0  0  0
  126.3976  105.9679  108.6015 N   0  0  0  0  0  0  0  0  0  0  0  0
  121.2696  107.5508  105.2733 H   0  0  0  0  0  0  0  0  0  0  0  0
  120.1646  106.0808  106.9328 H   0  0  0  0  0  0  0  0  0  0  0  0
  121.2356  103.4404  108.2707 H   0  0  0  0  0  0  0  0  0  0  0  0
  120.4900  104.8684  109.0223 H   0  0  0  0  0  0  0  0  0  0  0  0
  122.0674  104.2920  109.5909 H   0  0  0  0  0  0  0  0  0  0  0  0
  125.3423  103.6966  107.4082 H   0  0  0  0  0  0  0  0  0  0  0  0
  126.4263  103.7641  106.0066 H   0  0  0  0  0  0  0  0  0  0  0  0
  127.0987  103.6079  107.6284 H   0  0  0  0  0  0  0  0  0  0  0  0
  127.3391  105.9324  106.8011 H   0  0  0  0  0  0  0  0  0  0  0  0
  126.1910  106.9079  108.8625 H   0  0  0  0  0  0  0  0  0  0  0  0
  126.8294  105.3227  109.2275 H   0  0  0  0  0  0  0  0  0  0  0  0
  1  3  1  0  0  0  0
  1  9  2  0  0  0  0
  1 12  1  0  0  0  0
  2  8  1  0  0  0  0
  2 10  2  0  0  0  0
  2 12  1  0  0  0  0
  3  4  2  0  0  0  0
  4  5  1  0  0  0  0
  5  6  1  0  0  0  0
  5 11  2  0  0  0  0
  7  8  1  0  0  0  0
  8 13  1  0  0  0  0
  9 10  1  0  0  0  0
 11 12  1  0  0  0  0
  3 14  1  0  0  0  0
  4 15  1  0  0  0  0
  6 16  1  0  0  0  0
  6 17  1  0  0  0  0
  6 18  1  0  0  0  0
  7 19  1  0  0  0  0
  7 20  1  0  0  0  0
  7 21  1  0  0  0  0
  8 22  1  0  0  0  0
 13 23  1  0  0  0  0
 13 24  1  0  0  0  0
M  END
> <FRED Chemgauss4 score>
-4.553346

$$$$
C85618496	P134076390
  -OEChem-05182014473D

 24 25  0     1  0  0  0  0  0999 V2000
  126.0728  104.8535  108.2731 C   0  0  0  0  0  0  0  0  0  0  0  0
  125.8129  106.5911  107.1460 C   0  0  0  0  0  0  0  0  0  0  0  0
  121.5517  108.1309  107.0333 C   0  0  0  0  0  0  0  0  0  0  0  0
  123.2068  106.9368  105.7677 C   0  0  0  0  0  0  0  0  0  0  0  0
  122.5526  109.2623  107.2313 C   0  0  0  0  0  0  0  0  0  0  0  0
  124.1807  108.0983  105.9838 C   0  0  2  0  0  0  0  0  0  0  0  0
  125.6188  107.6031  106.0481 C   0  0  0  0  0  0  0  0  0  0  0  0
  125.9123  105.2914  106.9897 N   0  0  0  0  0  0  0  0  0  0  0  0
  125.9111  106.9021  108.4664 N   0  0  0  0  0  0  0  0  0  0  0  0
  126.0790  105.8005  109.2137 N   0  0  0  0  0  0  0  0  0  0  0  0
  121.8259  107.4257  105.7806 N   0  0  0  0  0  0  0  0  0  0  0  0
  123.8872  108.7526  107.2241 O   0  0  0  0  0  0  0  0  0  0  0  0
  126.1878  103.8049  108.5141 H   0  0  0  0  0  0  0  0  0  0  0  0
  121.6117  107.4243  107.8701 H   0  0  0  0  0  0  0  0  0  0  0  0
  120.5343  108.5344  107.0094 H   0  0  0  0  0  0  0  0  0  0  0  0
  123.4067  106.4526  104.8058 H   0  0  0  0  0  0  0  0  0  0  0  0
  123.3283  106.1794  106.5524 H   0  0  0  0  0  0  0  0  0  0  0  0
  122.4516  110.0326  106.4569 H   0  0  0  0  0  0  0  0  0  0  0  0
  122.3851  109.7431  108.2002 H   0  0  0  0  0  0  0  0  0  0  0  0
  124.0972  108.8302  105.1696 H   0  0  0  0  0  0  0  0  0  0  0  0
  126.2948  108.4521  106.2033 H   0  0  0  0  0  0  0  0  0  0  0  0
  125.9009  107.1626  105.0845 H   0  0  0  0  0  0  0  0  0  0  0  0
  126.1729  105.8254  110.2253 H   0  0  0  0  0  0  0  0  0  0  0  0
  121.1860  106.6376  105.6872 H   0  0  0  0  0  0  0  0  0  0  0  0
  1  8  2  0  0  0  0
  1 10  1  0  0  0  0
  2  7  1  0  0  0  0
  2  8  1  0  0  0  0
  2  9  2  0  0  0  0
  3  5  1  0  0  0  0
  3 11  1  0  0  0  0
  4  6  1  0  0  0  0
  4 11  1  0  0  0  0
  5 12  1  0  0  0  0
  6  7  1  0  0  0  0
  6 12  1  0  0  0  0
  9 10  1  0  0  0  0
  1 13  1  0  0  0  0
  3 14  1  0  0  0  0
  3 15  1  0  0  0  0
  4 16  1  0  0  0  0
  4 17  1  0  0  0  0
  5 18  1  0  0  0  0
  5 19  1  0  0  0  0
  6 20  1  0  0  0  0
  7 21  1  0  0  0  0
  7 22  1  0  0  0  0
 10 23  1  0  0  0  0
 11 24  1  0  0  0  0
M  END
> <FRED Chemgauss4 score>
-4.547036

$$$$
C01391262	P05902105
  -OEChem-05182014473D

 16 16  0     0  0  0  0  0  0999 V2000
  124.8636  104.8252  108.2693 C   0  0  0  0  0  0  0  0  0  0  0  0
  125.9545  106.2159  106.4916 C   0  0  0  0  0  0  0  0  0  0  0  0
  123.5245  106.8989  106.2205 C   0  0  0  0  0  0  0  0  0  0  0  0
  125.5526  104.8319  106.9334 C   0  0  0  0  0  0  0  0  0  0  0  0
  123.6602  105.7147  108.4459 C   0  0  0  0  0  0  0  0  0  0  0  0
  124.9085  107.0920  106.1920 N   0  0  0  0  0  0  0  0  0  0  0  0
  123.0252  106.0426  107.1826 N   0  0  0  0  0  0  0  0  0  0  0  0
  125.3262  104.1939  109.2205 O   0  0  0  0  0  0  0  0  0  0  0  0
  127.1381  106.5273  106.3559 O   0  0  0  0  0  0  0  0  0  0  0  0
  122.7868  107.4409  105.3923 O   0  0  0  0  0  0  0  0  0  0  0  0
  126.4558  104.2150  107.0045 H   0  0  0  0  0  0  0  0  0  0  0  0
  124.9063  104.3658  106.1827 H   0  0  0  0  0  0  0  0  0  0  0  0
  122.9198  105.2000  109.0646 H   0  0  0  0  0  0  0  0  0  0  0  0
  123.9757  106.6451  108.9276 H   0  0  0  0  0  0  0  0  0  0  0  0
  125.2022  108.0228  105.9063 H   0  0  0  0  0  0  0  0  0  0  0  0
  122.1313  105.6019  106.9881 H   0  0  0  0  0  0  0  0  0  0  0  0
  1  4  1  0  0  0  0
  1  5  1  0  0  0  0
  1  8  2  0  0  0  0
  2  4  1  0  0  0  0
  2  6  1  0  0  0  0
  2  9  2  0  0  0  0
  3  6  1  0  0  0  0
  3  7  1  0  0  0  0
  3 10  2  0  0  0  0
  5  7  1  0  0  0  0
  4 11  1  0  0  0  0
  4 12  1  0  0  0  0
  5 13  1  0  0  0  0
  5 14  1  0  0  0  0
  6 15  1  0  0  0  0
  7 16  1  0  0  0  0
M  END
> <FRED Chemgauss4 score>
-4.521233

$$$$
C36437532	P130761434
  -OEChem-05182014473D

 22 22  0     1  0  0  0  0  0999 V2000
  121.9161  107.2278  107.5296 C   0  0  0  0  0  0  0  0  0  0  0  0
  123.4225  107.2034  107.6210 C   0  0  0  0  0  0  0  0  0  0  0  0
  121.6537  106.6329  106.1534 C   0  0  2  0  0  0  0  0  0  0  0  0
  123.8179  107.5152  106.1894 C   0  0  1  0  0  0  0  0  0  0  0  0
  121.4320  105.1272  106.1911 C   0  0  0  0  0  0  0  0  0  0  0  0
  125.1939  106.9995  105.8158 C   0  0  0  0  0  0  0  0  0  0  0  0
  122.5867  104.4718  106.7164 N   0  0  0  0  0  0  0  0  0  0  0  0
  122.8240  106.8950  105.3576 O   0  0  0  0  0  0  0  0  0  0  0  0
  125.6477  107.7032  104.6728 O   0  0  0  0  0  0  0  0  0  0  0  0
  121.4854  106.5956  108.3208 H   0  0  0  0  0  0  0  0  0  0  0  0
  121.4916  108.2344  107.6422 H   0  0  0  0  0  0  0  0  0  0  0  0
  123.7565  108.0106  108.2780 H   0  0  0  0  0  0  0  0  0  0  0  0
  123.8219  106.2641  108.0002 H   0  0  0  0  0  0  0  0  0  0  0  0
  120.8091  107.1183  105.6728 H   0  0  0  0  0  0  0  0  0  0  0  0
  123.7790  108.6057  106.0130 H   0  0  0  0  0  0  0  0  0  0  0  0
  121.2511  104.7666  105.1833 H   0  0  0  0  0  0  0  0  0  0  0  0
  120.5812  104.9017  106.8259 H   0  0  0  0  0  0  0  0  0  0  0  0
  125.1455  105.9342  105.5847 H   0  0  0  0  0  0  0  0  0  0  0  0
  125.8923  107.1634  106.6380 H   0  0  0  0  0  0  0  0  0  0  0  0
  123.5090  104.8260  106.4943 H   0  0  0  0  0  0  0  0  0  0  0  0
  122.4961  103.5527  107.1317 H   0  0  0  0  0  0  0  0  0  0  0  0
  126.5287  107.3546  104.4552 H   0  0  0  0  0  0  0  0  0  0  0  0
  1  2  1  0  0  0  0
  1  3  1  0  0  0  0
  2  4  1  0  0  0  0
  3  5  1  0  0  0  0
  3  8  1  0  0  0  0
  4  6  1  0  0  0  0
  4  8  1  0  0  0  0
  5  7  1  0  0  0  0
  6  9  1  0  0  0  0
  1 10  1  0  0  0  0
  1 11  1  0  0  0  0
  2 12  1  0  0  0  0
  2 13  1  0  0  0  0
  3 14  1  0  0  0  0
  4 15  1  0  0  0  0
  5 16  1  0  0  0  0
  5 17  1  0  0  0  0
  6 18  1  0  0  0  0
  6 19  1  0  0  0  0
  7 20  1  0  0  0  0
  7 21  1  0  0  0  0
  9 22  1  0  0  0  0
M  END
> <FRED Chemgauss4 score>
-4.515204

$$$$
C93751937	P146891062
  -OEChem-05182014473D

 46 47  0     1  0  0  0  0  0999 V2000
  125.8847  104.0922  106.9976 C   0  0  0  0  0  0  0  0  0  0  0  0
  125.8413  107.2748  106.1924 C   0  0  0  0  0  0  0  0  0  0  0  0
  117.3627  107.0044  105.3675 C   0  0  0  0  0  0  0  0  0  0  0  0
  124.4481  107.6547  105.6800 C   0  0  0  0  0  0  0  0  0  0  0  0
  118.4975  107.0955  106.3565 C   0  0  0  0  0  0  0  0  0  0  0  0
  125.7842  106.5351  107.5260 C   0  0  0  0  0  0  0  0  0  0  0  0
  123.8053  105.3270  106.4151 C   0  0  0  0  0  0  0  0  0  0  0  0
  117.8999  106.0039  104.3661 C   0  0  0  0  0  0  0  0  0  0  0  0
  123.3275  106.7726  106.2514 C   0  0  2  0  0  0  0  0  0  0  0  0
  119.7055  107.0139  105.4393 C   0  0  1  0  0  0  0  0  0  0  0  0
  124.9793  105.2235  107.4141 C   0  0  1  0  0  0  0  0  0  0  0  0
  125.6044  104.7119  109.6751 C   0  0  0  0  0  0  0  0  0  0  0  0
  122.3293  105.9569  104.2250 C   0  0  0  0  0  0  0  0  0  0  0  0
  120.9480  106.4751  106.1214 C   0  0  0  0  0  0  0  0  0  0  0  0
  125.2412  102.8834  106.8749 N   0  0  0  0  0  0  0  0  0  0  0  0
  124.4940  104.8658  108.7490 N   0  0  0  0  0  0  0  0  0  0  0  0
  122.1556  106.8366  105.3801 N   0  0  1  0  0  0  0  0  0  0  0  0
  127.0814  104.2612  106.7768 O   0  0  0  0  0  0  0  0  0  0  0  0
  119.3282  106.1470  104.3563 O   0  0  0  0  0  0  0  0  0  0  0  0
  126.3411  106.6438  105.4450 H   0  0  0  0  0  0  0  0  0  0  0  0
  126.4542  108.1815  106.2884 H   0  0  0  0  0  0  0  0  0  0  0  0
  116.4136  106.6951  105.8129 H   0  0  0  0  0  0  0  0  0  0  0  0
  117.2130  107.9762  104.8823 H   0  0  0  0  0  0  0  0  0  0  0  0
  124.2551  108.7141  105.9226 H   0  0  0  0  0  0  0  0  0  0  0  0
  124.4484  107.5939  104.5767 H   0  0  0  0  0  0  0  0  0  0  0  0
  118.4793  108.0100  106.9557 H   0  0  0  0  0  0  0  0  0  0  0  0
  118.4611  106.2368  107.0379 H   0  0  0  0  0  0  0  0  0  0  0  0
  126.8022  106.3077  107.8485 H   0  0  0  0  0  0  0  0  0  0  0  0
  125.3546  107.1869  108.2877 H   0  0  0  0  0  0  0  0  0  0  0  0
  122.9768  104.6906  106.7398 H   0  0  0  0  0  0  0  0  0  0  0  0
  124.1300  104.9333  105.4461 H   0  0  0  0  0  0  0  0  0  0  0  0
  117.6708  104.9771  104.6704 H   0  0  0  0  0  0  0  0  0  0  0  0
  117.5061  106.1654  103.3587 H   0  0  0  0  0  0  0  0  0  0  0  0
  123.0367  107.1741  107.2355 H   0  0  0  0  0  0  0  0  0  0  0  0
  119.9284  107.9958  105.0103 H   0  0  0  0  0  0  0  0  0  0  0  0
  126.2774  103.9239  109.3272 H   0  0  0  0  0  0  0  0  0  0  0  0
  125.2338  104.4450  110.6685 H   0  0  0  0  0  0  0  0  0  0  0  0
  126.1663  105.6468  109.7502 H   0  0  0  0  0  0  0  0  0  0  0  0
  121.4501  106.0090  103.5776 H   0  0  0  0  0  0  0  0  0  0  0  0
  122.4632  104.9229  104.5541 H   0  0  0  0  0  0  0  0  0  0  0  0
  123.2086  106.2582  103.6494 H   0  0  0  0  0  0  0  0  0  0  0  0
  120.9085  105.3834  106.1833 H   0  0  0  0  0  0  0  0  0  0  0  0
  121.0431  106.8822  107.1323 H   0  0  0  0  0  0  0  0  0  0  0  0
  124.2455  102.8403  107.0651 H   0  0  0  0  0  0  0  0  0  0  0  0
  125.7222  102.0325  106.6017 H   0  0  0  0  0  0  0  0  0  0  0  0
  123.8737  105.6007  109.0808 H   0  0  0  0  0  0  0  0  0  0  0  0
  1 11  1  0  0  0  0
  1 15  1  0  0  0  0
  1 18  2  0  0  0  0
  2  4  1  0  0  0  0
  2  6  1  0  0  0  0
  3  5  1  0  0  0  0
  3  8  1  0  0  0  0
  4  9  1  0  0  0  0
  5 10  1  0  0  0  0
  6 11  1  0  0  0  0
  7  9  1  0  0  0  0
  7 11  1  0  0  0  0
  8 19  1  0  0  0  0
  9 17  1  0  0  0  0
 10 14  1  0  0  0  0
 10 19  1  0  0  0  0
 11 16  1  0  0  0  0
 12 16  1  0  0  0  0
 13 17  1  0  0  0  0
 14 17  1  0  0  0  0
  2 20  1  0  0  0  0
  2 21  1  0  0  0  0
  3 22  1  0  0  0  0
  3 23  1  0  0  0  0
  4 24  1  0  0  0  0
  4 25  1  0  0  0  0
  5 26  1  0  0  0  0
  5 27  1  0  0  0  0
  6 28  1  0  0  0  0
  6 29  1  0  0  0  0
  7 30  1  0  0  0  0
  7 31  1  0  0  0  0
  8 32  1  0  0  0  0
  8 33  1  0  0  0  0
  9 34  1  0  0  0  0
 10 35  1  0  0  0  0
 12 36  1  0  0  0  0
 12 37  1  0  0  0  0
 12 38  1  0  0  0  0
 13 39  1  0  0  0  0
 13 40  1  0  0  0  0
 13 41  1  0  0  0  0
 14 42  1  0  0  0  0
 14 43  1  0  0  0  0
 15 44  1  0  0  0  0
 15 45  1  0  0  0  0
 16 46  1  0  0  0  0
M  END
> <FRED Chemgauss4 score>
-4.507080

$$$$
C79001101	P123335886
  -OEChem-05182014473D

 35 36  0     0  0  0  0  0  0999 V2000
  122.0203  106.5113  103.1285 C   0  0  0  0  0  0  0  0  0  0  0  0
  121.0996  105.3292  105.0098 C   0  0  0  0  0  0  0  0  0  0  0  0
  120.8828  106.1598  102.4197 C   0  0  0  0  0  0  0  0  0  0  0  0
  126.8580  105.8194  107.6839 C   0  0  0  0  0  0  0  0  0  0  0  0
  126.0787  105.7974  108.8165 C   0  0  0  0  0  0  0  0  0  0  0  0
  122.1230  106.0841  104.4476 C   0  0  0  0  0  0  0  0  0  0  0  0
  120.0033  105.0308  104.2169 C   0  0  0  0  0  0  0  0  0  0  0  0
  125.2418  107.1469  107.2884 C   0  0  0  0  0  0  0  0  0  0  0  0
  118.9046  104.2454  104.7523 C   0  0  0  0  0  0  0  0  0  0  0  0
  123.9591  106.9652  109.4443 C   0  0  0  0  0  0  0  0  0  0  0  0
  123.3259  106.4343  105.2557 C   0  0  0  0  0  0  0  0  0  0  0  0
  124.2934  108.1251  106.6577 C   0  0  0  0  0  0  0  0  0  0  0  0
  119.8680  105.4279  102.9317 N   0  0  0  0  0  0  0  0  0  0  0  0
  126.3318  106.6616  106.7365 N   0  0  0  0  0  0  0  0  0  0  0  0
  117.8966  104.0045  103.9317 N   0  0  0  0  0  0  0  0  0  0  0  0
  125.0475  106.6529  108.5483 N   0  0  0  0  0  0  0  0  0  0  0  0
  118.8922  103.7606  106.0648 N   0  0  0  0  0  0  0  0  0  0  0  0
  123.0596  107.4804  106.2105 N   0  0  0  0  0  0  0  0  0  0  0  0
  116.8937  103.2436  104.5409 O   0  0  0  0  0  0  0  0  0  0  0  0
  122.8013  107.1014  102.6613 H   0  0  0  0  0  0  0  0  0  0  0  0
  121.1603  104.9858  106.0378 H   0  0  0  0  0  0  0  0  0  0  0  0
  120.7543  106.4682  101.3874 H   0  0  0  0  0  0  0  0  0  0  0  0
  127.7712  105.2717  107.5024 H   0  0  0  0  0  0  0  0  0  0  0  0
  126.1665  105.2667  109.7542 H   0  0  0  0  0  0  0  0  0  0  0  0
  124.2561  107.8264  110.0486 H   0  0  0  0  0  0  0  0  0  0  0  0
  123.0632  107.1976  108.8618 H   0  0  0  0  0  0  0  0  0  0  0  0
  123.7569  106.1005  110.0825 H   0  0  0  0  0  0  0  0  0  0  0  0
  123.6950  105.5633  105.8156 H   0  0  0  0  0  0  0  0  0  0  0  0
  124.1542  106.7757  104.6193 H   0  0  0  0  0  0  0  0  0  0  0  0
  124.0234  108.9140  107.3682 H   0  0  0  0  0  0  0  0  0  0  0  0
  124.7505  108.6117  105.7896 H   0  0  0  0  0  0  0  0  0  0  0  0
  119.6650  103.9188  106.7014 H   0  0  0  0  0  0  0  0  0  0  0  0
  118.1244  103.1963  106.4129 H   0  0  0  0  0  0  0  0  0  0  0  0
  122.4542  108.1929  105.7908 H   0  0  0  0  0  0  0  0  0  0  0  0
  116.2473  103.1604  103.8197 H   0  0  0  0  0  0  0  0  0  0  0  0
  1  3  2  0  0  0  0
  1  6  1  0  0  0  0
  2  6  2  0  0  0  0
  2  7  1  0  0  0  0
  3 13  1  0  0  0  0
  4  5  2  0  0  0  0
  4 14  1  0  0  0  0
  5 16  1  0  0  0  0
  6 11  1  0  0  0  0
  7  9  1  0  0  0  0
  7 13  2  0  0  0  0
  8 12  1  0  0  0  0
  8 14  2  0  0  0  0
  8 16  1  0  0  0  0
  9 15  2  0  0  0  0
  9 17  1  0  0  0  0
 10 16  1  0  0  0  0
 11 18  1  0  0  0  0
 12 18  1  0  0  0  0
 15 19  1  0  0  0  0
  1 20  1  0  0  0  0
  2 21  1  0  0  0  0
  3 22  1  0  0  0  0
  4 23  1  0  0  0  0
  5 24  1  0  0  0  0
 10 25  1  0  0  0  0
 10 26  1  0  0  0  0
 10 27  1  0  0  0  0
 11 28  1  0  0  0  0
 11 29  1  0  0  0  0
 12 30  1  0  0  0  0
 12 31  1  0  0  0  0
 17 32  1  0  0  0  0
 17 33  1  0  0  0  0
 18 34  1  0  0  0  0
 19 35  1  0  0  0  0
M  END
> <FRED Chemgauss4 score>
-4.480551

$$$$
C42040577	P63623457
  -OEChem-05182014473D

 26 26  0     1  0  0  0  0  0999 V2000
  122.3423  106.2447  106.2107 C   0  0  0  0  0  0  0  0  0  0  0  0
  123.9496  107.4525  105.3928 C   0  0  0  0  0  0  0  0  0  0  0  0
  119.6600  103.5345  107.1163 C   0  0  0  0  0  0  0  0  0  0  0  0
  120.4836  104.3193  104.8860 C   0  0  0  0  0  0  0  0  0  0  0  0
  119.3447  105.9174  106.4260 C   0  0  0  0  0  0  0  0  0  0  0  0
  121.6905  105.1232  106.9669 C   0  0  2  0  0  0  0  0  0  0  0  0
  120.3115  104.7147  106.3682 C   0  0  0  0  0  0  0  0  0  0  0  0
  121.6993  107.1834  105.5811 N   0  0  0  0  0  0  0  0  0  0  0  0
  123.6866  106.3315  106.1481 N   0  0  0  0  0  0  0  0  0  0  0  0
  122.6894  107.9626  105.0538 N   0  0  0  0  0  0  0  0  0  0  0  0
  121.6229  105.5468  108.3637 N   0  0  0  0  0  0  0  0  0  0  0  0
  125.0397  107.9079  105.0827 O   0  0  0  0  0  0  0  0  0  0  0  0
  119.5132  103.7599  108.1777 H   0  0  0  0  0  0  0  0  0  0  0  0
  118.6877  103.2687  106.6887 H   0  0  0  0  0  0  0  0  0  0  0  0
  120.2922  102.6403  107.0603 H   0  0  0  0  0  0  0  0  0  0  0  0
  120.9442  105.1246  104.3038 H   0  0  0  0  0  0  0  0  0  0  0  0
  119.5178  104.0812  104.4260 H   0  0  0  0  0  0  0  0  0  0  0  0
  121.1255  103.4366  104.7838 H   0  0  0  0  0  0  0  0  0  0  0  0
  119.7634  106.7868  105.9057 H   0  0  0  0  0  0  0  0  0  0  0  0
  119.1471  106.2154  107.4621 H   0  0  0  0  0  0  0  0  0  0  0  0
  118.3835  105.6876  105.9531 H   0  0  0  0  0  0  0  0  0  0  0  0
  122.3726  104.2658  106.9084 H   0  0  0  0  0  0  0  0  0  0  0  0
  124.3613  105.7038  106.5684 H   0  0  0  0  0  0  0  0  0  0  0  0
  122.5345  108.7926  104.4960 H   0  0  0  0  0  0  0  0  0  0  0  0
  122.3382  106.1509  108.7049 H   0  0  0  0  0  0  0  0  0  0  0  0
  120.9953  105.0645  108.9693 H   0  0  0  0  0  0  0  0  0  0  0  0
  1  6  1  0  0  0  0
  1  8  2  0  0  0  0
  1  9  1  0  0  0  0
  2  9  1  0  0  0  0
  2 10  1  0  0  0  0
  2 12  2  0  0  0  0
  3  7  1  0  0  0  0
  4  7  1  0  0  0  0
  5  7  1  0  0  0  0
  6  7  1  0  0  0  0
  6 11  1  0  0  0  0
  8 10  1  0  0  0  0
  3 13  1  0  0  0  0
  3 14  1  0  0  0  0
  3 15  1  0  0  0  0
  4 16  1  0  0  0  0
  4 17  1  0  0  0  0
  4 18  1  0  0  0  0
  5 19  1  0  0  0  0
  5 20  1  0  0  0  0
  5 21  1  0  0  0  0
  6 22  1  0  0  0  0
  9 23  1  0  0  0  0
 10 24  1  0  0  0  0
 11 25  1  0  0  0  0
 11 26  1  0  0  0  0
M  END
> <FRED Chemgauss4 score>
-4.480037

$$$$
C16939872	P46811267
  -OEChem-05182014473D

 16 17  0     0  0  0  0  0  0999 V2000
  127.0384  105.3899  107.5595 C   0  0  0  0  0  0  0  0  0  0  0  0
  124.3959  105.9040  107.4306 C   0  0  0  0  0  0  0  0  0  0  0  0
  125.2836  106.2757  106.5044 C   0  0  0  0  0  0  0  0  0  0  0  0
  124.8569  105.1634  108.6122 C   0  0  0  0  0  0  0  0  0  0  0  0
  123.2669  107.0271  105.7678 C   0  0  0  0  0  0  0  0  0  0  0  0
  123.0068  106.3237  107.0966 C   0  0  0  0  0  0  0  0  0  0  0  0
  126.6288  106.0431  106.5176 N   0  0  0  0  0  0  0  0  0  0  0  0
  126.2289  104.9462  108.5918 N   0  0  0  0  0  0  0  0  0  0  0  0
  124.6353  106.9419  105.5117 N   0  0  0  0  0  0  0  0  0  0  0  0
  124.0913  104.7952  109.4943 O   0  0  0  0  0  0  0  0  0  0  0  0
  122.4145  107.5601  105.0738 O   0  0  0  0  0  0  0  0  0  0  0  0
  128.0995  105.1334  107.7003 H   0  0  0  0  0  0  0  0  0  0  0  0
  122.3411  105.4707  106.9466 H   0  0  0  0  0  0  0  0  0  0  0  0
  122.6017  107.0311  107.8236 H   0  0  0  0  0  0  0  0  0  0  0  0
  126.6512  104.4414  109.3655 H   0  0  0  0  0  0  0  0  0  0  0  0
  125.1023  107.3216  104.6970 H   0  0  0  0  0  0  0  0  0  0  0  0
  1  7  2  0  0  0  0
  1  8  1  0  0  0  0
  2  3  2  0  0  0  0
  2  4  1  0  0  0  0
  2  6  1  0  0  0  0
  3  7  1  0  0  0  0
  3  9  1  0  0  0  0
  4  8  1  0  0  0  0
  4 10  2  0  0  0  0
  5  6  1  0  0  0  0
  5  9  1  0  0  0  0
  5 11  2  0  0  0  0
  1 12  1  0  0  0  0
  6 13  1  0  0  0  0
  6 14  1  0  0  0  0
  8 15  1  0  0  0  0
  9 16  1  0  0  0  0
M  END
> <FRED Chemgauss4 score>
-4.479687

$$$$
C96034659	P151250496
  -OEChem-05182014473D

 17 17  0     1  0  0  0  0  0999 V2000
  124.6424  106.1857  107.8094 C   0  0  0  0  0  0  0  0  0  0  0  0
  125.3184  105.7418  106.4933 C   0  0  0  0  0  0  0  0  0  0  0  0
  124.5264  107.6539  107.3165 C   0  0  2  0  0  0  0  0  0  0  0  0
  123.3159  108.4280  107.7966 C   0  0  0  0  0  0  0  0  0  0  0  0
  123.5243  108.8941  109.1305 N   0  0  0  0  0  0  0  0  0  0  0  0
  125.4092  107.7965  104.7938 O   0  0  0  0  0  0  0  0  0  0  0  0
  123.1668  106.6670  105.2164 O   0  0  0  0  0  0  0  0  0  0  0  0
  124.4963  107.0557  105.6376 S   0  0  0  0  0  0  0  0  0  0  0  0
  123.6769  105.6937  107.9846 H   0  0  0  0  0  0  0  0  0  0  0  0
  125.2529  106.0483  108.7072 H   0  0  0  0  0  0  0  0  0  0  0  0
  126.4070  105.8546  106.4781 H   0  0  0  0  0  0  0  0  0  0  0  0
  125.0475  104.7431  106.1425 H   0  0  0  0  0  0  0  0  0  0  0  0
  125.4462  108.2278  107.4926 H   0  0  0  0  0  0  0  0  0  0  0  0
  122.4458  107.7783  107.7841 H   0  0  0  0  0  0  0  0  0  0  0  0
  123.1504  109.2832  107.1487 H   0  0  0  0  0  0  0  0  0  0  0  0
  124.0278  108.3149  109.7908 H   0  0  0  0  0  0  0  0  0  0  0  0
  123.0032  109.6934  109.4691 H   0  0  0  0  0  0  0  0  0  0  0  0
  1  2  1  0  0  0  0
  1  3  1  0  0  0  0
  2  8  1  0  0  0  0
  3  4  1  0  0  0  0
  3  8  1  0  0  0  0
  4  5  1  0  0  0  0
  6  8  2  0  0  0  0
  7  8  2  0  0  0  0
  1  9  1  0  0  0  0
  1 10  1  0  0  0  0
  2 11  1  0  0  0  0
  2 12  1  0  0  0  0
  3 13  1  0  0  0  0
  4 14  1  0  0  0  0
  4 15  1  0  0  0  0
  5 16  1  0  0  0  0
  5 17  1  0  0  0  0
M  END
> <FRED Chemgauss4 score>
-4.470209

$$$$
C01607176	P05730550
  -OEChem-05182014473D

 15 15  0     1  0  0  0  0  0999 V2000
  125.6575  107.1092  106.6678 C   0  0  0  0  0  0  0  0  0  0  0  0
  123.7837  107.9535  108.0932 C   0  0  0  0  0  0  0  0  0  0  0  0
  124.6183  106.4254  105.8111 C   0  0  2  0  0  0  0  0  0  0  0  0
  123.3414  107.2410  105.7719 C   0  0  2  0  0  0  0  0  0  0  0  0
  125.1341  107.8031  107.7572 N   0  0  0  0  0  0  0  0  0  0  0  0
  122.8941  107.5473  107.1104 N   0  0  0  0  0  0  0  0  0  0  0  0
  126.8619  106.9829  106.4572 O   0  0  0  0  0  0  0  0  0  0  0  0
  123.4177  108.3945  109.1833 O   0  0  0  0  0  0  0  0  0  0  0  0
  122.3274  106.5258  105.0876 O   0  0  0  0  0  0  0  0  0  0  0  0
  124.3431  105.1915  106.3208 F   0  0  0  0  0  0  0  0  0  0  0  0
  125.0382  106.2990  104.8219 H   0  0  0  0  0  0  0  0  0  0  0  0
  123.5072  108.1883  105.2360 H   0  0  0  0  0  0  0  0  0  0  0  0
  125.8065  108.2487  108.3754 H   0  0  0  0  0  0  0  0  0  0  0  0
  121.9139  107.4642  107.3355 H   0  0  0  0  0  0  0  0  0  0  0  0
  121.5374  107.0895  105.0916 H   0  0  0  0  0  0  0  0  0  0  0  0
  1  3  1  0  0  0  0
  1  5  1  0  0  0  0
  1  7  2  0  0  0  0
  2  5  1  0  0  0  0
  2  6  1  0  0  0  0
  2  8  2  0  0  0  0
  3  4  1  0  0  0  0
  3 10  1  0  0  0  0
  4  6  1  0  0  0  0
  4  9  1  0  0  0  0
  3 11  1  0  0  0  0
  4 12  1  0  0  0  0
  5 13  1  0  0  0  0
  6 14  1  0  0  0  0
  9 15  1  0  0  0  0
M  END
> <FRED Chemgauss4 score>
-4.468793

$$$$
C95923249	P151026232
  -OEChem-05182014473D

 25 25  0     1  0  0  0  0  0999 V2000
  124.1603  108.3567  107.5640 C   0  0  0  0  0  0  0  0  0  0  0  0
  125.0241  107.1732  107.1407 C   0  0  0  0  0  0  0  0  0  0  0  0
  122.6822  108.0227  107.4322 C   0  0  0  0  0  0  0  0  0  0  0  0
  124.6061  106.6170  105.7737 C   0  0  1  0  0  0  0  0  0  0  0  0
  123.0835  106.4002  105.6937 C   0  0  1  0  0  0  0  0  0  0  0  0
  122.6216  105.1604  106.4619 C   0  0  0  0  0  0  0  0  0  0  0  0
  121.1250  104.9456  106.3264 C   0  0  0  0  0  0  0  0  0  0  0  0
  125.0108  107.5370  104.7029 N   0  0  0  0  0  0  0  0  0  0  0  0
  122.3631  107.5640  106.1205 O   0  0  0  0  0  0  0  0  0  0  0  0
  120.7635  103.7927  107.0741 O   0  0  0  0  0  0  0  0  0  0  0  0
  124.3841  108.5968  108.6120 H   0  0  0  0  0  0  0  0  0  0  0  0
  124.4066  109.2407  106.9642 H   0  0  0  0  0  0  0  0  0  0  0  0
  126.0801  107.4963  107.1118 H   0  0  0  0  0  0  0  0  0  0  0  0
  124.9676  106.3841  107.9100 H   0  0  0  0  0  0  0  0  0  0  0  0
  122.4169  107.2237  108.1375 H   0  0  0  0  0  0  0  0  0  0  0  0
  122.0526  108.8910  107.6780 H   0  0  0  0  0  0  0  0  0  0  0  0
  125.1071  105.6641  105.6111 H   0  0  0  0  0  0  0  0  0  0  0  0
  122.8086  106.2248  104.6063 H   0  0  0  0  0  0  0  0  0  0  0  0
  122.8901  105.2648  107.5172 H   0  0  0  0  0  0  0  0  0  0  0  0
  123.1598  104.2821  106.0936 H   0  0  0  0  0  0  0  0  0  0  0  0
  120.5676  105.8031  106.7170 H   0  0  0  0  0  0  0  0  0  0  0  0
  120.8439  104.7849  105.2807 H   0  0  0  0  0  0  0  0  0  0  0  0
  124.5259  107.4859  103.8339 H   0  0  0  0  0  0  0  0  0  0  0  0
  125.8719  108.0274  104.8081 H   0  0  0  0  0  0  0  0  0  0  0  0
  119.8048  103.6799  106.9698 H   0  0  0  0  0  0  0  0  0  0  0  0
  1  2  1  0  0  0  0
  1  3  1  0  0  0  0
  2  4  1  0  0  0  0
  3  9  1  0  0  0  0
  4  5  1  0  0  0  0
  4  8  1  0  0  0  0
  5  6  1  0  0  0  0
  5  9  1  0  0  0  0
  6  7  1  0  0  0  0
  7 10  1  0  0  0  0
  1 11  1  0  0  0  0
  1 12  1  0  0  0  0
  2 13  1  0  0  0  0
  2 14  1  0  0  0  0
  3 15  1  0  0  0  0
  3 16  1  0  0  0  0
  4 17  1  0  0  0  0
  5 18  1  0  0  0  0
  6 19  1  0  0  0  0
  6 20  1  0  0  0  0
  7 21  1  0  0  0  0
  7 22  1  0  0  0  0
  8 23  1  0  0  0  0
  8 24  1  0  0  0  0
 10 25  1  0  0  0  0
M  END
> <FRED Chemgauss4 score>
-4.459911

$$$$
C71266836	P110163305
  -OEChem-05182014473D

 38 39  0     1  0  0  0  0  0999 V2000
  126.5106  106.2743  109.4988 C   0  0  0  0  0  0  0  0  0  0  0  0
  127.7472  105.9315  108.9634 C   0  0  0  0  0  0  0  0  0  0  0  0
  121.1826  104.5847  104.0758 C   0  0  0  0  0  0  0  0  0  0  0  0
  119.9572  103.9198  104.1177 C   0  0  0  0  0  0  0  0  0  0  0  0
  125.4721  106.6471  108.6527 C   0  0  0  0  0  0  0  0  0  0  0  0
  119.3625  105.1415  106.1154 C   0  0  0  0  0  0  0  0  0  0  0  0
  127.8929  105.9773  107.5863 C   0  0  0  0  0  0  0  0  0  0  0  0
  120.5879  105.8065  106.0735 C   0  0  0  0  0  0  0  0  0  0  0  0
  121.4980  105.5281  105.0537 C   0  0  0  0  0  0  0  0  0  0  0  0
  119.0471  104.1981  105.1375 C   0  0  0  0  0  0  0  0  0  0  0  0
  125.7197  106.6611  107.2895 C   0  0  0  0  0  0  0  0  0  0  0  0
  120.8925  106.7858  107.1081 C   0  0  0  0  0  0  0  0  0  0  0  0
  124.2822  104.6915  106.1169 C   0  0  0  0  0  0  0  0  0  0  0  0
  122.8238  106.2292  104.9850 C   0  0  0  0  0  0  0  0  0  0  0  0
  124.6215  107.0589  106.3462 C   0  0  0  0  0  0  0  0  0  0  0  0
  126.9075  106.3345  106.7325 N   0  0  0  0  0  0  0  0  0  0  0  0
  121.1206  108.0198  106.6981 N   0  0  0  0  0  0  0  0  0  0  0  0
  120.9461  106.4540  108.4641 N   0  0  0  0  0  0  0  0  0  0  0  0
  123.6281  105.9978  106.1842 N   0  0  2  0  0  0  0  0  0  0  0  0
  121.4026  108.8800  107.7641 O   0  0  0  0  0  0  0  0  0  0  0  0
  117.8706  103.5592  105.1779 F   0  0  0  0  0  0  0  0  0  0  0  0
  126.3565  106.2508  110.5734 H   0  0  0  0  0  0  0  0  0  0  0  0
  128.5708  105.6377  109.6039 H   0  0  0  0  0  0  0  0  0  0  0  0
  121.8854  104.3605  103.2777 H   0  0  0  0  0  0  0  0  0  0  0  0
  119.7115  103.1852  103.3565 H   0  0  0  0  0  0  0  0  0  0  0  0
  124.5027  106.9169  109.0577 H   0  0  0  0  0  0  0  0  0  0  0  0
  118.6436  105.3494  106.9037 H   0  0  0  0  0  0  0  0  0  0  0  0
  128.8374  105.7191  107.1190 H   0  0  0  0  0  0  0  0  0  0  0  0
  124.8815  104.5246  107.0157 H   0  0  0  0  0  0  0  0  0  0  0  0
  124.9372  104.6414  105.2428 H   0  0  0  0  0  0  0  0  0  0  0  0
  123.5342  103.8978  106.0402 H   0  0  0  0  0  0  0  0  0  0  0  0
  123.3999  105.8819  104.1204 H   0  0  0  0  0  0  0  0  0  0  0  0
  122.6913  107.3105  104.8743 H   0  0  0  0  0  0  0  0  0  0  0  0
  124.1038  107.9526  106.7113 H   0  0  0  0  0  0  0  0  0  0  0  0
  125.0217  107.2969  105.3551 H   0  0  0  0  0  0  0  0  0  0  0  0
  120.7539  105.5158  108.7960 H   0  0  0  0  0  0  0  0  0  0  0  0
  121.1398  107.1557  109.1708 H   0  0  0  0  0  0  0  0  0  0  0  0
  121.5420  109.7237  107.3018 H   0  0  0  0  0  0  0  0  0  0  0  0
  1  2  1  0  0  0  0
  1  5  2  0  0  0  0
  2  7  2  0  0  0  0
  3  4  2  0  0  0  0
  3  9  1  0  0  0  0
  4 10  1  0  0  0  0
  5 11  1  0  0  0  0
  6  8  1  0  0  0  0
  6 10  2  0  0  0  0
  7 16  1  0  0  0  0
  8  9  2  0  0  0  0
  8 12  1  0  0  0  0
  9 14  1  0  0  0  0
 10 21  1  0  0  0  0
 11 15  1  0  0  0  0
 11 16  2  0  0  0  0
 12 17  2  0  0  0  0
 12 18  1  0  0  0  0
 13 19  1  0  0  0  0
 14 19  1  0  0  0  0
 15 19  1  0  0  0  0
 17 20  1  0  0  0  0
  1 22  1  0  0  0  0
  2 23  1  0  0  0  0
  3 24  1  0  0  0  0
  4 25  1  0  0  0  0
  5 26  1  0  0  0  0
  6 27  1  0  0  0  0
  7 28  1  0  0  0  0
 13 29  1  0  0  0  0
 13 30  1  0  0  0  0
 13 31  1  0  0  0  0
 14 32  1  0  0  0  0
 14 33  1  0  0  0  0
 15 34  1  0  0  0  0
 15 35  1  0  0  0  0
 18 36  1  0  0  0  0
 18 37  1  0  0  0  0
 20 38  1  0  0  0  0
M  END
> <FRED Chemgauss4 score>
-4.456707

$$$$
C85798264	P134352627
  -OEChem-05182014473D

 28 28  0     1  0  0  0  0  0999 V2000
  124.5105  107.6055  105.6404 C   0  0  0  0  0  0  0  0  0  0  0  0
  123.2650  106.1602  106.7334 C   0  0  0  0  0  0  0  0  0  0  0  0
  124.5670  106.5762  106.5990 C   0  0  0  0  0  0  0  0  0  0  0  0
  121.1099  106.8683  105.6689 C   0  0  0  0  0  0  0  0  0  0  0  0
  124.9041  103.5407  108.9433 C   0  0  0  0  0  0  0  0  0  0  0  0
  124.9247  102.4315  106.8122 C   0  0  0  0  0  0  0  0  0  0  0  0
  126.0369  104.5446  107.0775 C   0  0  0  0  0  0  0  0  0  0  0  0
  125.7914  106.0418  107.3216 C   0  0  1  0  0  0  0  0  0  0  0  0
  123.2707  107.8297  105.1970 N   0  0  0  0  0  0  0  0  0  0  0  0
  122.5361  106.9352  105.8800 N   0  0  0  0  0  0  0  0  0  0  0  0
  126.9903  106.8034  106.9513 N   0  0  0  0  0  0  0  0  0  0  0  0
  124.8985  103.7257  107.4927 N   0  0  0  0  0  0  0  0  0  0  0  0
  125.3197  108.2025  105.2442 H   0  0  0  0  0  0  0  0  0  0  0  0
  122.8065  105.3967  107.3473 H   0  0  0  0  0  0  0  0  0  0  0  0
  120.6318  107.5503  106.3769 H   0  0  0  0  0  0  0  0  0  0  0  0
  120.8799  107.1615  104.6408 H   0  0  0  0  0  0  0  0  0  0  0  0
  120.7679  105.8428  105.8338 H   0  0  0  0  0  0  0  0  0  0  0  0
  124.8845  104.5112  109.4459 H   0  0  0  0  0  0  0  0  0  0  0  0
  125.8044  103.0025  109.2523 H   0  0  0  0  0  0  0  0  0  0  0  0
  124.0279  102.9655  109.2544 H   0  0  0  0  0  0  0  0  0  0  0  0
  124.9203  102.5765  105.7288 H   0  0  0  0  0  0  0  0  0  0  0  0
  124.0487  101.8398  107.0916 H   0  0  0  0  0  0  0  0  0  0  0  0
  125.8251  101.8768  107.0895 H   0  0  0  0  0  0  0  0  0  0  0  0
  126.1860  104.3479  106.0097 H   0  0  0  0  0  0  0  0  0  0  0  0
  126.9189  104.1721  107.6093 H   0  0  0  0  0  0  0  0  0  0  0  0
  125.6451  106.1863  108.4001 H   0  0  0  0  0  0  0  0  0  0  0  0
  127.8737  106.3717  107.0936 H   0  0  0  0  0  0  0  0  0  0  0  0
  126.8828  107.7746  106.7713 H   0  0  0  0  0  0  0  0  0  0  0  0
  1  3  1  0  0  0  0
  1  9  2  0  0  0  0
  2  3  2  0  0  0  0
  2 10  1  0  0  0  0
  3  8  1  0  0  0  0
  4 10  1  0  0  0  0
  5 12  1  0  0  0  0
  6 12  1  0  0  0  0
  7  8  1  0  0  0  0
  7 12  1  0  0  0  0
  8 11  1  0  0  0  0
  9 10  1  0  0  0  0
  1 13  1  0  0  0  0
  2 14  1  0  0  0  0
  4 15  1  0  0  0  0
  4 16  1  0  0  0  0
  4 17  1  0  0  0  0
  5 18  1  0  0  0  0
  5 19  1  0  0  0  0
  5 20  1  0  0  0  0
  6 21  1  0  0  0  0
  6 22  1  0  0  0  0
  6 23  1  0  0  0  0
  7 24  1  0  0  0  0
  7 25  1  0  0  0  0
  8 26  1  0  0  0  0
 11 27  1  0  0  0  0
 11 28  1  0  0  0  0
M  END
> <FRED Chemgauss4 score>
-4.449465

$$$$
C83747697	P131020663
  -OEChem-05182014473D

 29 29  0     1  0  0  0  0  0999 V2000
  122.4724  107.0541  106.1879 C   0  0  0  0  0  0  0  0  0  0  0  0
  123.1977  105.8797  106.8053 C   0  0  0  0  0  0  0  0  0  0  0  0
  122.6249  107.6863  109.2351 C   0  0  0  0  0  0  0  0  0  0  0  0
  121.3677  107.4675  108.4046 C   0  0  0  0  0  0  0  0  0  0  0  0
  123.6631  106.5664  109.0995 C   0  0  0  0  0  0  0  0  0  0  0  0
  126.2828  105.7226  106.6169 C   0  0  0  0  0  0  0  0  0  0  0  0
  125.3409  105.4556  107.7984 C   0  0  2  0  0  0  0  0  0  0  0  0
  124.8195  104.0271  107.8519 C   0  0  0  0  0  0  0  0  0  0  0  0
  121.5997  107.7395  107.0001 N   0  0  0  0  0  0  0  0  0  0  0  0
  124.2080  106.3868  107.7419 N   0  0  1  0  0  0  0  0  0  0  0  0
  126.7600  107.1001  106.5842 N   0  0  0  0  0  0  0  0  0  0  0  0
  122.6549  107.3642  105.0091 O   0  0  0  0  0  0  0  0  0  0  0  0
  123.9609  103.8652  108.8845 F   0  0  0  0  0  0  0  0  0  0  0  0
  124.1504  103.6997  106.7251 F   0  0  0  0  0  0  0  0  0  0  0  0
  125.8231  103.1371  108.0086 F   0  0  0  0  0  0  0  0  0  0  0  0
  122.4955  105.1722  107.2605 H   0  0  0  0  0  0  0  0  0  0  0  0
  123.6712  105.3489  105.9682 H   0  0  0  0  0  0  0  0  0  0  0  0
  123.0851  108.6491  108.9789 H   0  0  0  0  0  0  0  0  0  0  0  0
  122.3351  107.7460  110.2916 H   0  0  0  0  0  0  0  0  0  0  0  0
  120.9822  106.4484  108.5135 H   0  0  0  0  0  0  0  0  0  0  0  0
  120.5849  108.1602  108.7308 H   0  0  0  0  0  0  0  0  0  0  0  0
  124.4856  106.8259  109.7793 H   0  0  0  0  0  0  0  0  0  0  0  0
  123.2382  105.6252  109.4739 H   0  0  0  0  0  0  0  0  0  0  0  0
  127.1537  105.0597  106.6848 H   0  0  0  0  0  0  0  0  0  0  0  0
  125.7817  105.4874  105.6703 H   0  0  0  0  0  0  0  0  0  0  0  0
  125.8626  105.6757  108.7375 H   0  0  0  0  0  0  0  0  0  0  0  0
  121.0920  108.5149  106.5853 H   0  0  0  0  0  0  0  0  0  0  0  0
  127.0525  107.4767  105.7075 H   0  0  0  0  0  0  0  0  0  0  0  0
  126.9698  107.5468  107.4516 H   0  0  0  0  0  0  0  0  0  0  0  0
  1  2  1  0  0  0  0
  1  9  1  0  0  0  0
  1 12  2  0  0  0  0
  2 10  1  0  0  0  0
  3  4  1  0  0  0  0
  3  5  1  0  0  0  0
  4  9  1  0  0  0  0
  5 10  1  0  0  0  0
  6  7  1  0  0  0  0
  6 11  1  0  0  0  0
  7  8  1  0  0  0  0
  7 10  1  0  0  0  0
  8 13  1  0  0  0  0
  8 14  1  0  0  0  0
  8 15  1  0  0  0  0
  2 16  1  0  0  0  0
  2 17  1  0  0  0  0
  3 18  1  0  0  0  0
  3 19  1  0  0  0  0
  4 20  1  0  0  0  0
  4 21  1  0  0  0  0
  5 22  1  0  0  0  0
  5 23  1  0  0  0  0
  6 24  1  0  0  0  0
  6 25  1  0  0  0  0
  7 26  1  0  0  0  0
  9 27  1  0  0  0  0
 11 28  1  0  0  0  0
 11 29  1  0  0  0  0
M  END
> <FRED Chemgauss4 score>
-4.435955

$$$$
C70624786	P108953588
  -OEChem-05182014473D

 24 23  0     1  0  0  0  0  0999 V2000
  125.1095  104.7578  106.8886 C   0  0  0  0  0  0  0  0  0  0  0  0
  120.6725  107.1978  105.1571 C   0  0  0  0  0  0  0  0  0  0  0  0
  125.2775  105.9183  105.9142 C   0  0  0  0  0  0  0  0  0  0  0  0
  124.3524  107.7298  107.5084 C   0  0  0  0  0  0  0  0  0  0  0  0
  122.8534  106.5751  105.7726 C   0  0  0  0  0  0  0  0  0  0  0  0
  124.2716  107.0774  106.1113 C   0  0  2  0  0  0  0  0  0  0  0  0
  123.4510  108.8631  107.6757 N   0  0  0  0  0  0  0  0  0  0  0  0
  124.5894  108.1135  105.1691 O   0  0  0  0  0  0  0  0  0  0  0  0
  121.9703  107.6588  105.5047 O   0  0  0  0  0  0  0  0  0  0  0  0
  125.2242  105.1160  107.9168 H   0  0  0  0  0  0  0  0  0  0  0  0
  125.8611  103.9806  106.7197 H   0  0  0  0  0  0  0  0  0  0  0  0
  124.1168  104.3062  106.8083 H   0  0  0  0  0  0  0  0  0  0  0  0
  120.0223  108.0533  104.9585 H   0  0  0  0  0  0  0  0  0  0  0  0
  120.2657  106.5998  105.9765 H   0  0  0  0  0  0  0  0  0  0  0  0
  120.7434  106.5806  104.2584 H   0  0  0  0  0  0  0  0  0  0  0  0
  125.1542  105.5094  104.9026 H   0  0  0  0  0  0  0  0  0  0  0  0
  126.3067  106.2912  105.9795 H   0  0  0  0  0  0  0  0  0  0  0  0
  124.1419  106.9840  108.2849 H   0  0  0  0  0  0  0  0  0  0  0  0
  125.3792  108.0569  107.7100 H   0  0  0  0  0  0  0  0  0  0  0  0
  122.4266  106.0095  106.6085 H   0  0  0  0  0  0  0  0  0  0  0  0
  122.8579  105.9234  104.8932 H   0  0  0  0  0  0  0  0  0  0  0  0
  123.6976  109.5681  108.3379 H   0  0  0  0  0  0  0  0  0  0  0  0
  122.5351  108.7990  107.2839 H   0  0  0  0  0  0  0  0  0  0  0  0
  124.5056  107.7113  104.2940 H   0  0  0  0  0  0  0  0  0  0  0  0
  1  3  1  0  0  0  0
  2  9  1  0  0  0  0
  3  6  1  0  0  0  0
  4  6  1  0  0  0  0
  4  7  1  0  0  0  0
  5  6  1  0  0  0  0
  5  9  1  0  0  0  0
  6  8  1  0  0  0  0
  1 10  1  0  0  0  0
  1 11  1  0  0  0  0
  1 12  1  0  0  0  0
  2 13  1  0  0  0  0
  2 14  1  0  0  0  0
  2 15  1  0  0  0  0
  3 16  1  0  0  0  0
  3 17  1  0  0  0  0
  4 18  1  0  0  0  0
  4 19  1  0  0  0  0
  5 20  1  0  0  0  0
  5 21  1  0  0  0  0
  7 22  1  0  0  0  0
  7 23  1  0  0  0  0
  8 24  1  0  0  0  0
M  END
> <FRED Chemgauss4 score>
-4.394122

$$$$
C38809856	P134917409
  -OEChem-05182014473D

 17 16  0     0  0  0  0  0  0999 V2000
  120.8760  104.5800  106.3567 C   0  0  0  0  0  0  0  0  0  0  0  0
  121.4400  105.2356  105.5239 C   0  0  0  0  0  0  0  0  0  0  0  0
  124.4244  106.9815  105.8840 C   0  0  0  0  0  0  0  0  0  0  0  0
  122.1281  106.0312  104.5042 C   0  0  0  0  0  0  0  0  0  0  0  0
  123.0413  107.5415  106.1309 C   0  0  0  0  0  0  0  0  0  0  0  0
  124.6989  105.9232  106.7158 N   0  0  0  0  0  0  0  0  0  0  0  0
  122.2580  107.4252  104.9365 N   0  0  0  0  0  0  0  0  0  0  0  0
  125.2094  107.4600  105.0688 O   0  0  0  0  0  0  0  0  0  0  0  0
  125.9821  105.3725  106.5977 O   0  0  0  0  0  0  0  0  0  0  0  0
  120.3754  103.9990  107.0955 H   0  0  0  0  0  0  0  0  0  0  0  0
  121.5756  105.9995  103.5601 H   0  0  0  0  0  0  0  0  0  0  0  0
  123.1244  105.6189  104.3154 H   0  0  0  0  0  0  0  0  0  0  0  0
  122.5327  106.9898  106.9262 H   0  0  0  0  0  0  0  0  0  0  0  0
  123.1139  108.5988  106.3994 H   0  0  0  0  0  0  0  0  0  0  0  0
  124.0163  105.5633  107.3734 H   0  0  0  0  0  0  0  0  0  0  0  0
  121.3140  107.8019  105.0880 H   0  0  0  0  0  0  0  0  0  0  0  0
  126.3527  105.9406  105.9012 H   0  0  0  0  0  0  0  0  0  0  0  0
  1  2  3  0  0  0  0
  2  4  1  0  0  0  0
  3  5  1  0  0  0  0
  3  6  1  0  0  0  0
  3  8  2  0  0  0  0
  4  7  1  0  0  0  0
  5  7  1  0  0  0  0
  6  9  1  0  0  0  0
  1 10  1  0  0  0  0
  4 11  1  0  0  0  0
  4 12  1  0  0  0  0
  5 13  1  0  0  0  0
  5 14  1  0  0  0  0
  6 15  1  0  0  0  0
  7 16  1  0  0  0  0
  9 17  1  0  0  0  0
M  END
> <FRED Chemgauss4 score>
-4.385495

$$$$
C98209915	P156180136
  -OEChem-05182014473D

 22 22  0     1  0  0  0  0  0999 V2000
  124.1678  108.5257  106.7793 C   0  0  0  0  0  0  0  0  0  0  0  0
  124.1465  108.1123  108.2378 C   0  0  0  0  0  0  0  0  0  0  0  0
  125.5209  106.6392  107.0661 C   0  0  2  0  0  0  0  0  0  0  0  0
  124.5261  107.2325  106.0672 C   0  0  1  0  0  0  0  0  0  0  0  0
  125.7445  105.1387  106.9837 C   0  0  0  0  0  0  0  0  0  0  0  0
  123.2897  106.3713  105.8039 C   0  0  0  0  0  0  0  0  0  0  0  0
  122.3591  107.0875  104.9944 N   0  0  0  0  0  0  0  0  0  0  0  0
  125.0239  106.9829  108.3711 O   0  0  0  0  0  0  0  0  0  0  0  0
  125.1724  107.4955  104.8307 O   0  0  0  0  0  0  0  0  0  0  0  0
  123.1689  108.8730  106.4807 H   0  0  0  0  0  0  0  0  0  0  0  0
  124.8803  109.3421  106.6070 H   0  0  0  0  0  0  0  0  0  0  0  0
  124.5287  108.9088  108.8849 H   0  0  0  0  0  0  0  0  0  0  0  0
  123.1442  107.8398  108.5801 H   0  0  0  0  0  0  0  0  0  0  0  0
  126.5110  107.1479  106.9661 H   0  0  0  0  0  0  0  0  0  0  0  0
  124.7936  104.6148  107.0785 H   0  0  0  0  0  0  0  0  0  0  0  0
  126.4078  104.8167  107.7863 H   0  0  0  0  0  0  0  0  0  0  0  0
  126.1966  104.8818  106.0259 H   0  0  0  0  0  0  0  0  0  0  0  0
  122.8215  106.1264  106.7504 H   0  0  0  0  0  0  0  0  0  0  0  0
  123.5870  105.4670  105.2860 H   0  0  0  0  0  0  0  0  0  0  0  0
  122.2474  108.0868  105.1204 H   0  0  0  0  0  0  0  0  0  0  0  0
  121.6738  106.5799  104.4468 H   0  0  0  0  0  0  0  0  0  0  0  0
  124.5444  108.0089  104.3031 H   0  0  0  0  0  0  0  0  0  0  0  0
  1  2  1  0  0  0  0
  1  4  1  0  0  0  0
  2  8  1  0  0  0  0
  3  4  1  0  0  0  0
  3  5  1  0  0  0  0
  3  8  1  0  0  0  0
  4  6  1  0  0  0  0
  4  9  1  0  0  0  0
  6  7  1  0  0  0  0
  1 10  1  0  0  0  0
  1 11  1  0  0  0  0
  2 12  1  0  0  0  0
  2 13  1  0  0  0  0
  3 14  1  0  0  0  0
  5 15  1  0  0  0  0
  5 16  1  0  0  0  0
  5 17  1  0  0  0  0
  6 18  1  0  0  0  0
  6 19  1  0  0  0  0
  7 20  1  0  0  0  0
  7 21  1  0  0  0  0
  9 22  1  0  0  0  0
M  END
> <FRED Chemgauss4 score>
-4.375063

$$$$
C83636283	P130840320
  -OEChem-05182014473D

 17 17  0     0  0  0  0  0  0999 V2000
  124.2137  107.1132  105.5146 C   0  0  0  0  0  0  0  0  0  0  0  0
  121.8273  105.5473  104.3878 C   0  0  0  0  0  0  0  0  0  0  0  0
  120.5138  106.6778  105.5428 C   0  0  0  0  0  0  0  0  0  0  0  0
  120.2912  105.6867  104.3822 C   0  0  0  0  0  0  0  0  0  0  0  0
  122.8650  106.9640  106.0584 C   0  0  0  0  0  0  0  0  0  0  0  0
  125.2855  107.2322  105.0863 N   0  0  0  0  0  0  0  0  0  0  0  0
  121.8760  106.9091  104.9877 N   0  0  0  0  0  0  0  0  0  0  0  0
  119.6765  104.4647  104.8841 N   0  0  0  0  0  0  0  0  0  0  0  0
  122.2491  104.7606  105.0115 H   0  0  0  0  0  0  0  0  0  0  0  0
  122.2487  105.4605  103.3838 H   0  0  0  0  0  0  0  0  0  0  0  0
  119.8383  107.5352  105.5035 H   0  0  0  0  0  0  0  0  0  0  0  0
  120.4981  106.2682  106.5516 H   0  0  0  0  0  0  0  0  0  0  0  0
  119.8385  106.0947  103.4688 H   0  0  0  0  0  0  0  0  0  0  0  0
  122.7743  106.0422  106.6400 H   0  0  0  0  0  0  0  0  0  0  0  0
  122.6055  107.8068  106.7052 H   0  0  0  0  0  0  0  0  0  0  0  0
  119.9624  103.6000  104.4820 H   0  0  0  0  0  0  0  0  0  0  0  0
  118.8632  104.5514  105.4517 H   0  0  0  0  0  0  0  0  0  0  0  0
  1  5  1  0  0  0  0
  1  6  3  0  0  0  0
  2  4  1  0  0  0  0
  2  7  1  0  0  0  0
  3  4  1  0  0  0  0
  3  7  1  0  0  0  0
  4  8  1  0  0  0  0
  5  7  1  0  0  0  0
  2  9  1  0  0  0  0
  2 10  1  0  0  0  0
  3 11  1  0  0  0  0
  3 12  1  0  0  0  0
  4 13  1  0  0  0  0
  5 14  1  0  0  0  0
  5 15  1  0  0  0  0
  8 16  1  0  0  0  0
  8 17  1  0  0  0  0
M  END
> <FRED Chemgauss4 score>
-4.374659

$$$$
C38803766	P151018888
  -OEChem-05182014473D

 15 15  0     0  0  0  0  0  0999 V2000
  122.9062  107.0562  106.0370 C   0  0  0  0  0  0  0  0  0  0  0  0
  124.8257  106.3596  106.3682 C   0  0  0  0  0  0  0  0  0  0  0  0
  121.4611  107.3230  106.2249 C   0  0  0  0  0  0  0  0  0  0  0  0
  123.6443  106.3372  106.9316 N   0  0  0  0  0  0  0  0  0  0  0  0
  123.5688  107.5103  104.9690 N   0  0  0  0  0  0  0  0  0  0  0  0
  120.6782  106.8645  105.2808 N   0  0  0  0  0  0  0  0  0  0  0  0
  125.9907  105.8143  106.7831 N   0  0  0  0  0  0  0  0  0  0  0  0
  120.9869  108.0125  107.3272 N   0  0  0  0  0  0  0  0  0  0  0  0
  124.8687  107.0393  105.1923 O   0  0  0  0  0  0  0  0  0  0  0  0
  121.4192  106.2121  104.2902 O   0  0  0  0  0  0  0  0  0  0  0  0
  126.0738  105.3224  107.6842 H   0  0  0  0  0  0  0  0  0  0  0  0
  126.8708  105.9453  106.2644 H   0  0  0  0  0  0  0  0  0  0  0  0
  121.5916  108.3491  108.0677 H   0  0  0  0  0  0  0  0  0  0  0  0
  119.9915  108.1671  107.4472 H   0  0  0  0  0  0  0  0  0  0  0  0
  120.7195  105.9341  103.6752 H   0  0  0  0  0  0  0  0  0  0  0  0
  1  3  1  0  0  0  0
  1  4  1  0  0  0  0
  1  5  2  0  0  0  0
  2  4  2  0  0  0  0
  2  7  1  0  0  0  0
  2  9  1  0  0  0  0
  3  6  2  0  0  0  0
  3  8  1  0  0  0  0
  5  9  1  0  0  0  0
  6 10  1  0  0  0  0
  7 11  1  0  0  0  0
  7 12  1  0  0  0  0
  8 13  1  0  0  0  0
  8 14  1  0  0  0  0
 10 15  1  0  0  0  0
M  END
> <FRED Chemgauss4 score>
-4.340394

$$$$
C73738921	P114858598
  -OEChem-05182014473D

 16 16  0     0  0  0  0  0  0999 V2000
  124.6153  106.8887  105.6566 C   0  0  0  0  0  0  0  0  0  0  0  0
  124.7293  104.8991  107.2585 C   0  0  0  0  0  0  0  0  0  0  0  0
  122.6819  105.7072  106.1941 C   0  0  0  0  0  0  0  0  0  0  0  0
  125.3901  106.1194  106.6944 C   0  0  0  0  0  0  0  0  0  0  0  0
  123.2563  106.6992  105.5796 N   0  0  0  0  0  0  0  0  0  0  0  0
  123.3838  104.8086  106.9783 N   0  0  0  0  0  0  0  0  0  0  0  0
  120.6370  106.3090  105.2702 N   0  0  0  0  0  0  0  0  0  0  0  0
  121.3339  105.4777  106.1019 N   0  0  0  0  0  0  0  0  0  0  0  0
  125.2066  107.7018  104.9459 O   0  0  0  0  0  0  0  0  0  0  0  0
  125.3422  104.0832  107.9435 O   0  0  0  0  0  0  0  0  0  0  0  0
  126.3360  105.8034  106.2406 H   0  0  0  0  0  0  0  0  0  0  0  0
  125.6031  106.8004  107.5255 H   0  0  0  0  0  0  0  0  0  0  0  0
  122.8705  104.0271  107.3753 H   0  0  0  0  0  0  0  0  0  0  0  0
  119.9056  105.7583  104.8226 H   0  0  0  0  0  0  0  0  0  0  0  0
  121.2629  106.6053  104.5224 H   0  0  0  0  0  0  0  0  0  0  0  0
  120.9186  104.7128  106.5811 H   0  0  0  0  0  0  0  0  0  0  0  0
  1  4  1  0  0  0  0
  1  5  1  0  0  0  0
  1  9  2  0  0  0  0
  2  4  1  0  0  0  0
  2  6  1  0  0  0  0
  2 10  2  0  0  0  0
  3  5  2  0  0  0  0
  3  6  1  0  0  0  0
  3  8  1  0  0  0  0
  7  8  1  0  0  0  0
  4 11  1  0  0  0  0
  4 12  1  0  0  0  0
  6 13  1  0  0  0  0
  7 14  1  0  0  0  0
  7 15  1  0  0  0  0
  8 16  1  0  0  0  0
M  END
> <FRED Chemgauss4 score>
-4.325347

$$$$
C86576571	P135535140
  -OEChem-05182014473D

 27 27  0     1  0  0  0  0  0999 V2000
  125.9504  107.0990  107.7729 C   0  0  0  0  0  0  0  0  0  0  0  0
  126.4784  106.2979  108.8030 C   0  0  0  0  0  0  0  0  0  0  0  0
  125.2847  106.2161  106.9582 C   0  0  0  0  0  0  0  0  0  0  0  0
  122.0976  106.4943  104.7410 C   0  0  0  0  0  0  0  0  0  0  0  0
  124.9305  103.7296  107.0415 C   0  0  0  0  0  0  0  0  0  0  0  0
  121.6322  108.1426  107.1917 C   0  0  0  0  0  0  0  0  0  0  0  0
  124.4990  106.4382  105.6731 C   0  0  1  0  0  0  0  0  0  0  0  0
  122.9968  106.6769  105.9620 C   0  0  1  0  0  0  0  0  0  0  0  0
  126.1742  105.0054  108.6584 N   0  0  0  0  0  0  0  0  0  0  0  0
  125.4478  104.9876  107.5279 N   0  0  0  0  0  0  0  0  0  0  0  0
  125.0852  107.5403  104.9023 N   0  0  0  0  0  0  0  0  0  0  0  0
  122.8167  108.0204  106.4230 O   0  0  0  0  0  0  0  0  0  0  0  0
  126.0416  108.1674  107.6420 H   0  0  0  0  0  0  0  0  0  0  0  0
  127.0722  106.6022  109.6530 H   0  0  0  0  0  0  0  0  0  0  0  0
  122.4065  107.1310  103.9073 H   0  0  0  0  0  0  0  0  0  0  0  0
  121.0534  106.7169  104.9867 H   0  0  0  0  0  0  0  0  0  0  0  0
  122.1245  105.4527  104.4015 H   0  0  0  0  0  0  0  0  0  0  0  0
  125.6775  103.2937  106.3729 H   0  0  0  0  0  0  0  0  0  0  0  0
  124.7391  103.0633  107.8872 H   0  0  0  0  0  0  0  0  0  0  0  0
  123.9936  103.9069  106.5061 H   0  0  0  0  0  0  0  0  0  0  0  0
  121.5210  109.1760  107.5293 H   0  0  0  0  0  0  0  0  0  0  0  0
  121.6842  107.4706  108.0521 H   0  0  0  0  0  0  0  0  0  0  0  0
  120.7756  107.8705  106.5705 H   0  0  0  0  0  0  0  0  0  0  0  0
  124.5852  105.5298  105.0619 H   0  0  0  0  0  0  0  0  0  0  0  0
  122.6386  106.0161  106.7596 H   0  0  0  0  0  0  0  0  0  0  0  0
  124.5108  107.9884  104.2263 H   0  0  0  0  0  0  0  0  0  0  0  0
  126.0715  107.6568  104.9391 H   0  0  0  0  0  0  0  0  0  0  0  0
  1  2  1  0  0  0  0
  1  3  2  0  0  0  0
  2  9  2  0  0  0  0
  3  7  1  0  0  0  0
  3 10  1  0  0  0  0
  4  8  1  0  0  0  0
  5 10  1  0  0  0  0
  6 12  1  0  0  0  0
  7  8  1  0  0  0  0
  7 11  1  0  0  0  0
  8 12  1  0  0  0  0
  9 10  1  0  0  0  0
  1 13  1  0  0  0  0
  2 14  1  0  0  0  0
  4 15  1  0  0  0  0
  4 16  1  0  0  0  0
  4 17  1  0  0  0  0
  5 18  1  0  0  0  0
  5 19  1  0  0  0  0
  5 20  1  0  0  0  0
  6 21  1  0  0  0  0
  6 22  1  0  0  0  0
  6 23  1  0  0  0  0
  7 24  1  0  0  0  0
  8 25  1  0  0  0  0
 11 26  1  0  0  0  0
 11 27  1  0  0  0  0
M  END
> <FRED Chemgauss4 score>
-4.320838

$$$$
C63060459	P96823620
  -OEChem-05182014473D

 13 13  0     1  0  0  0  0  0999 V2000
  124.9542  106.1051  108.8098 C   0  0  0  0  0  0  0  0  0  0  0  0
  126.2471  104.5428  108.2832 C   0  0  0  0  0  0  0  0  0  0  0  0
  124.6380  106.5916  106.3722 C   0  0  0  0  0  0  0  0  0  0  0  0
  125.5820  106.4843  107.5148 C   0  0  2  0  0  0  0  0  0  0  0  0
  125.3607  104.9644  109.2404 N   0  0  0  0  0  0  0  0  0  0  0  0
  126.4482  105.3181  107.2615 N   0  0  0  0  0  0  0  0  0  0  0  0
  123.8540  105.4939  106.1475 N   0  0  0  0  0  0  0  0  0  0  0  0
  124.5487  107.9654  105.4264 S   0  0  0  0  0  0  0  0  0  0  0  0
  124.2328  106.7574  109.3197 H   0  0  0  0  0  0  0  0  0  0  0  0
  126.7596  103.5756  108.3933 H   0  0  0  0  0  0  0  0  0  0  0  0
  126.1646  107.4027  107.6192 H   0  0  0  0  0  0  0  0  0  0  0  0
  123.9286  104.6700  106.7349 H   0  0  0  0  0  0  0  0  0  0  0  0
  123.1737  105.4540  105.3953 H   0  0  0  0  0  0  0  0  0  0  0  0
  1  4  1  0  0  0  0
  1  5  2  0  0  0  0
  2  5  1  0  0  0  0
  2  6  2  0  0  0  0
  3  4  1  0  0  0  0
  3  7  1  0  0  0  0
  3  8  2  0  0  0  0
  4  6  1  0  0  0  0
  1  9  1  0  0  0  0
  2 10  1  0  0  0  0
  4 11  1  0  0  0  0
  7 12  1  0  0  0  0
  7 13  1  0  0  0  0
M  END
> <FRED Chemgauss4 score>
-4.296253

$$$$
C40261514	P61120112
  -OEChem-05182014473D

 26 27  0     1  0  0  0  0  0999 V2000
  121.4174  104.6006  107.2742 C   0  0  0  0  0  0  0  0  0  0  0  0
  121.5120  105.3941  104.9942 C   0  0  0  0  0  0  0  0  0  0  0  0
  119.5719  104.1824  105.7720 C   0  0  0  0  0  0  0  0  0  0  0  0
  127.6073  106.3991  107.8540 C   0  0  0  0  0  0  0  0  0  0  0  0
  127.1691  105.9731  109.0857 C   0  0  0  0  0  0  0  0  0  0  0  0
  122.0956  105.2689  106.2550 C   0  0  0  0  0  0  0  0  0  0  0  0
  120.1555  104.0572  107.0327 C   0  0  0  0  0  0  0  0  0  0  0  0
  120.2502  104.8508  104.7527 C   0  0  0  0  0  0  0  0  0  0  0  0
  125.7583  105.4098  107.4892 C   0  0  0  0  0  0  0  0  0  0  0  0
  124.5251  104.8038  106.8679 C   0  0  0  0  0  0  0  0  0  0  0  0
  123.4441  105.8511  106.5144 C   0  0  1  0  0  0  0  0  0  0  0  0
  126.7244  106.0457  106.8644 N   0  0  0  0  0  0  0  0  0  0  0  0
  125.9834  105.3415  108.8360 N   0  0  0  0  0  0  0  0  0  0  0  0
  123.8786  106.5688  105.3494 O   0  0  0  0  0  0  0  0  0  0  0  0
  119.3196  103.2314  108.2901 Cl  0  0  0  0  0  0  0  0  0  0  0  0
  119.5300  105.0065  103.1972 Cl  0  0  0  0  0  0  0  0  0  0  0  0
  121.8765  104.5058  108.2558 H   0  0  0  0  0  0  0  0  0  0  0  0
  122.0456  105.9162  104.2032 H   0  0  0  0  0  0  0  0  0  0  0  0
  118.5879  103.7579  105.5842 H   0  0  0  0  0  0  0  0  0  0  0  0
  128.5126  106.9437  107.6297 H   0  0  0  0  0  0  0  0  0  0  0  0
  127.5774  106.0574  110.0822 H   0  0  0  0  0  0  0  0  0  0  0  0
  124.8249  104.2507  105.9671 H   0  0  0  0  0  0  0  0  0  0  0  0
  124.1052  104.0345  107.5296 H   0  0  0  0  0  0  0  0  0  0  0  0
  123.3931  106.6030  107.3213 H   0  0  0  0  0  0  0  0  0  0  0  0
  125.3847  104.9017  109.5225 H   0  0  0  0  0  0  0  0  0  0  0  0
  124.7510  106.9245  105.5665 H   0  0  0  0  0  0  0  0  0  0  0  0
  1  6  1  0  0  0  0
  1  7  2  0  0  0  0
  2  6  2  0  0  0  0
  2  8  1  0  0  0  0
  3  7  1  0  0  0  0
  3  8  2  0  0  0  0
  4  5  2  0  0  0  0
  4 12  1  0  0  0  0
  5 13  1  0  0  0  0
  6 11  1  0  0  0  0
  7 15  1  0  0  0  0
  8 16  1  0  0  0  0
  9 10  1  0  0  0  0
  9 12  2  0  0  0  0
  9 13  1  0  0  0  0
 10 11  1  0  0  0  0
 11 14  1  0  0  0  0
  1 17  1  0  0  0  0
  2 18  1  0  0  0  0
  3 19  1  0  0  0  0
  4 20  1  0  0  0  0
  5 21  1  0  0  0  0
 10 22  1  0  0  0  0
 10 23  1  0  0  0  0
 11 24  1  0  0  0  0
 13 25  1  0  0  0  0
 14 26  1  0  0  0  0
M  END
> <FRED Chemgauss4 score>
-4.282209

$$$$
C04152201	P05310792
  -OEChem-05182014473D

 12 12  0     0  0  0  0  0  0999 V2000
  125.0954  106.4194  106.7278 C   0  0  0  0  0  0  0  0  0  0  0  0
  123.2806  107.6068  106.6514 C   0  0  0  0  0  0  0  0  0  0  0  0
  125.1414  107.1405  105.6304 N   0  0  0  0  0  0  0  0  0  0  0  0
  123.9868  107.8960  105.5818 N   0  0  0  0  0  0  0  0  0  0  0  0
  123.9409  106.6814  107.4012 N   0  0  0  0  0  0  0  0  0  0  0  0
  122.0797  108.0862  107.0476 N   0  0  0  0  0  0  0  0  0  0  0  0
  123.5381  106.0988  108.6219 N   0  0  0  0  0  0  0  0  0  0  0  0
  125.8453  105.7192  107.0682 H   0  0  0  0  0  0  0  0  0  0  0  0
  121.5841  108.8194  106.5216 H   0  0  0  0  0  0  0  0  0  0  0  0
  121.6497  107.8097  107.9412 H   0  0  0  0  0  0  0  0  0  0  0  0
  123.8791  105.1389  108.7468 H   0  0  0  0  0  0  0  0  0  0  0  0
  122.5184  106.0236  108.7128 H   0  0  0  0  0  0  0  0  0  0  0  0
  1  3  2  0  0  0  0
  1  5  1  0  0  0  0
  2  4  2  0  0  0  0
  2  5  1  0  0  0  0
  2  6  1  0  0  0  0
  3  4  1  0  0  0  0
  5  7  1  0  0  0  0
  1  8  1  0  0  0  0
  6  9  1  0  0  0  0
  6 10  1  0  0  0  0
  7 11  1  0  0  0  0
  7 12  1  0  0  0  0
M  END
> <FRED Chemgauss4 score>
-4.276404

$$$$
C37225574	P55350836
  -OEChem-05182014473D

 23 22  0     0  0  0  0  0  0999 V2000
  121.7379  106.0967  105.6846 C   0  0  0  0  0  0  0  0  0  0  0  0
  125.0576  105.3449  107.3176 C   0  0  0  0  0  0  0  0  0  0  0  0
  119.4051  106.4581  104.8423 C   0  0  0  0  0  0  0  0  0  0  0  0
  119.7667  105.1250  106.8836 C   0  0  0  0  0  0  0  0  0  0  0  0
  122.5899  105.4520  106.7637 C   0  0  0  0  0  0  0  0  0  0  0  0
  125.7368  104.0778  109.2581 N   0  0  0  0  0  0  0  0  0  0  0  0
  123.9744  105.7587  106.5444 N   0  0  0  0  0  0  0  0  0  0  0  0
  124.7537  104.5546  108.4102 N   0  0  0  0  0  0  0  0  0  0  0  0
  120.3572  105.9004  105.7998 N   0  0  0  0  0  0  0  0  0  0  0  0
  122.2578  106.7492  104.7755 O   0  0  0  0  0  0  0  0  0  0  0  0
  126.6635  105.7349  107.0132 S   0  0  0  0  0  0  0  0  0  0  0  0
  119.2338  105.7503  104.0271 H   0  0  0  0  0  0  0  0  0  0  0  0
  119.7929  107.3905  104.4231 H   0  0  0  0  0  0  0  0  0  0  0  0
  118.4512  106.6652  105.3348 H   0  0  0  0  0  0  0  0  0  0  0  0
  119.5409  105.7764  107.7319 H   0  0  0  0  0  0  0  0  0  0  0  0
  120.4601  104.3463  107.2126 H   0  0  0  0  0  0  0  0  0  0  0  0
  118.8406  104.6506  106.5479 H   0  0  0  0  0  0  0  0  0  0  0  0
  122.3165  105.8426  107.7472 H   0  0  0  0  0  0  0  0  0  0  0  0
  122.4847  104.3644  106.7332 H   0  0  0  0  0  0  0  0  0  0  0  0
  125.3307  104.0443  110.1923 H   0  0  0  0  0  0  0  0  0  0  0  0
  126.4659  104.7889  109.2931 H   0  0  0  0  0  0  0  0  0  0  0  0
  124.2071  106.3391  105.7354 H   0  0  0  0  0  0  0  0  0  0  0  0
  123.7917  104.3052  108.6170 H   0  0  0  0  0  0  0  0  0  0  0  0
  1  5  1  0  0  0  0
  1  9  1  0  0  0  0
  1 10  2  0  0  0  0
  2  7  1  0  0  0  0
  2  8  1  0  0  0  0
  2 11  2  0  0  0  0
  3  9  1  0  0  0  0
  4  9  1  0  0  0  0
  5  7  1  0  0  0  0
  6  8  1  0  0  0  0
  3 12  1  0  0  0  0
  3 13  1  0  0  0  0
  3 14  1  0  0  0  0
  4 15  1  0  0  0  0
  4 16  1  0  0  0  0
  4 17  1  0  0  0  0
  5 18  1  0  0  0  0
  5 19  1  0  0  0  0
  6 20  1  0  0  0  0
  6 21  1  0  0  0  0
  7 22  1  0  0  0  0
  8 23  1  0  0  0  0
M  END
> <FRED Chemgauss4 score>
-4.270088

$$$$
C28531649	P41966202
  -OEChem-05182014473D

 20 20  0     1  0  0  0  0  0999 V2000
  125.1140  105.0587  106.8216 C   0  0  0  0  0  0  0  0  0  0  0  0
  123.6267  104.7869  106.5996 C   0  0  0  0  0  0  0  0  0  0  0  0
  125.2192  106.5151  107.2598 C   0  0  0  0  0  0  0  0  0  0  0  0
  123.1246  105.9281  105.7095 C   0  0  1  0  0  0  0  0  0  0  0  0
  121.6154  106.0688  105.7109 C   0  0  0  0  0  0  0  0  0  0  0  0
  121.2202  107.1536  104.8704 N   0  0  0  0  0  0  0  0  0  0  0  0
  124.6065  108.0563  105.2098 O   0  0  0  0  0  0  0  0  0  0  0  0
  123.1170  108.0920  107.2602 O   0  0  0  0  0  0  0  0  0  0  0  0
  123.9701  107.3873  106.3257 S   0  0  0  0  0  0  0  0  0  0  0  0
  125.5448  104.3852  107.5684 H   0  0  0  0  0  0  0  0  0  0  0  0
  125.6598  104.9108  105.8818 H   0  0  0  0  0  0  0  0  0  0  0  0
  123.4635  103.8121  106.1290 H   0  0  0  0  0  0  0  0  0  0  0  0
  123.1051  104.7868  107.5647 H   0  0  0  0  0  0  0  0  0  0  0  0
  124.9775  106.6221  108.3214 H   0  0  0  0  0  0  0  0  0  0  0  0
  126.2025  106.9433  107.0553 H   0  0  0  0  0  0  0  0  0  0  0  0
  123.4838  105.7742  104.6850 H   0  0  0  0  0  0  0  0  0  0  0  0
  121.2746  106.2662  106.7226 H   0  0  0  0  0  0  0  0  0  0  0  0
  121.1651  105.1543  105.3381 H   0  0  0  0  0  0  0  0  0  0  0  0
  121.7900  107.9896  104.8296 H   0  0  0  0  0  0  0  0  0  0  0  0
  120.2851  107.1720  104.4822 H   0  0  0  0  0  0  0  0  0  0  0  0
  1  2  1  0  0  0  0
  1  3  1  0  0  0  0
  2  4  1  0  0  0  0
  3  9  1  0  0  0  0
  4  5  1  0  0  0  0
  4  9  1  0  0  0  0
  5  6  1  0  0  0  0
  7  9  2  0  0  0  0
  8  9  2  0  0  0  0
  1 10  1  0  0  0  0
  1 11  1  0  0  0  0
  2 12  1  0  0  0  0
  2 13  1  0  0  0  0
  3 14  1  0  0  0  0
  3 15  1  0  0  0  0
  4 16  1  0  0  0  0
  5 17  1  0  0  0  0
  5 18  1  0  0  0  0
  6 19  1  0  0  0  0
  6 20  1  0  0  0  0
M  END
> <FRED Chemgauss4 score>
-4.255511

$$$$
C95922804	P151023683
  -OEChem-05182014473D

 16 16  0     0  0  0  0  0  0999 V2000
  123.9297  106.2561  108.2316 C   0  0  0  0  0  0  0  0  0  0  0  0
  125.2387  106.5890  107.8966 C   0  0  0  0  0  0  0  0  0  0  0  0
  122.8956  106.5265  107.3405 C   0  0  0  0  0  0  0  0  0  0  0  0
  125.4825  107.1888  106.6693 C   0  0  0  0  0  0  0  0  0  0  0  0
  123.1987  107.1280  106.1273 C   0  0  0  0  0  0  0  0  0  0  0  0
  124.4680  107.4380  105.8301 N   0  3  0  0  0  0  0  0  0  0  0  0
  126.8039  107.5319  106.3159 N   0  0  0  0  0  0  0  0  0  0  0  0
  122.1612  107.4082  105.2141 N   0  0  0  0  0  0  0  0  0  0  0  0
  124.7226  107.9968  104.6946 O   0  5  0  0  0  0  0  0  0  0  0  0
  123.7155  105.7860  109.1868 H   0  0  0  0  0  0  0  0  0  0  0  0
  126.0459  106.3782  108.5915 H   0  0  0  0  0  0  0  0  0  0  0  0
  121.8741  106.2668  107.6015 H   0  0  0  0  0  0  0  0  0  0  0  0
  127.5404  107.3807  106.9753 H   0  0  0  0  0  0  0  0  0  0  0  0
  126.9701  108.0065  105.4514 H   0  0  0  0  0  0  0  0  0  0  0  0
  121.2275  107.1263  105.4347 H   0  0  0  0  0  0  0  0  0  0  0  0
  122.3889  107.7984  104.3219 H   0  0  0  0  0  0  0  0  0  0  0  0
  1  2  1  0  0  0  0
  1  3  2  0  0  0  0
  2  4  2  0  0  0  0
  3  5  1  0  0  0  0
  4  6  1  0  0  0  0
  4  7  1  0  0  0  0
  5  6  2  0  0  0  0
  5  8  1  0  0  0  0
  6  9  1  0  0  0  0
  1 10  1  0  0  0  0
  2 11  1  0  0  0  0
  3 12  1  0  0  0  0
  7 13  1  0  0  0  0
  7 14  1  0  0  0  0
  8 15  1  0  0  0  0
  8 16  1  0  0  0  0
M  CHG  2   6   1   9  -1
M  END
> <FRED Chemgauss4 score>
-4.244073

$$$$
C92775311	P145220810
  -OEChem-05182014473D

 34 35  0     1  0  0  0  0  0999 V2000
  120.7541  105.6862  106.4855 C   0  0  0  0  0  0  0  0  0  0  0  0
  121.0083  104.9853  103.7458 C   0  0  0  0  0  0  0  0  0  0  0  0
  121.8984  105.9947  105.7735 C   0  0  0  0  0  0  0  0  0  0  0  0
  122.0115  105.6412  104.4301 C   0  0  0  0  0  0  0  0  0  0  0  0
  119.8480  104.6749  104.4572 C   0  0  0  0  0  0  0  0  0  0  0  0
  119.7220  105.0216  105.8154 C   0  0  0  0  0  0  0  0  0  0  0  0
  124.0016  106.6891  104.9305 C   0  0  0  0  0  0  0  0  0  0  0  0
  123.1563  106.6812  106.2159 C   0  0  1  0  0  0  0  0  0  0  0  0
  124.0575  108.5206  107.4673 C   0  0  0  0  0  0  0  0  0  0  0  0
  118.3552  102.7050  104.2313 C   0  0  0  0  0  0  0  0  0  0  0  0
  118.1732  104.6128  102.6265 C   0  0  0  0  0  0  0  0  0  0  0  0
  117.0124  105.4772  103.0836 C   0  0  0  0  0  0  0  0  0  0  0  0
  123.2465  106.0504  103.9386 N   0  0  0  0  0  0  0  0  0  0  0  0
  122.9513  108.0572  106.6392 N   0  0  0  0  0  0  0  0  0  0  0  0
  118.8059  104.0023  103.7758 N   0  0  3  0  0  0  0  0  0  0  0  0
  125.1172  107.1728  104.8099 O   0  0  0  0  0  0  0  0  0  0  0  0
  117.4888  106.4711  103.9820 O   0  0  0  0  0  0  0  0  0  0  0  0
  118.1498  104.6060  106.7995 Br  0  0  0  0  0  0  0  0  0  0  0  0
  120.6717  105.9571  107.5333 H   0  0  0  0  0  0  0  0  0  0  0  0
  121.1203  104.7235  102.6989 H   0  0  0  0  0  0  0  0  0  0  0  0
  123.6695  106.0885  106.9799 H   0  0  0  0  0  0  0  0  0  0  0  0
  124.9956  108.4594  106.9096 H   0  0  0  0  0  0  0  0  0  0  0  0
  124.1414  107.9035  108.3659 H   0  0  0  0  0  0  0  0  0  0  0  0
  123.8947  109.5588  107.7691 H   0  0  0  0  0  0  0  0  0  0  0  0
  117.5496  102.3402  103.5888 H   0  0  0  0  0  0  0  0  0  0  0  0
  117.9837  102.7727  105.2574 H   0  0  0  0  0  0  0  0  0  0  0  0
  119.1796  101.9873  104.2038 H   0  0  0  0  0  0  0  0  0  0  0  0
  117.8348  103.8153  101.9574 H   0  0  0  0  0  0  0  0  0  0  0  0
  118.9207  105.2216  102.1089 H   0  0  0  0  0  0  0  0  0  0  0  0
  116.2767  104.8659  103.6154 H   0  0  0  0  0  0  0  0  0  0  0  0
  116.5219  105.9719  102.2390 H   0  0  0  0  0  0  0  0  0  0  0  0
  123.5595  105.9051  102.9861 H   0  0  0  0  0  0  0  0  0  0  0  0
  122.0843  108.1207  107.1738 H   0  0  0  0  0  0  0  0  0  0  0  0
  116.7191  106.9989  104.2486 H   0  0  0  0  0  0  0  0  0  0  0  0
  1  3  1  0  0  0  0
  1  6  2  0  0  0  0
  2  4  1  0  0  0  0
  2  5  2  0  0  0  0
  3  4  2  0  0  0  0
  3  8  1  0  0  0  0
  4 13  1  0  0  0  0
  5  6  1  0  0  0  0
  5 15  1  0  0  0  0
  6 18  1  0  0  0  0
  7  8  1  0  0  0  0
  7 13  1  0  0  0  0
  7 16  2  0  0  0  0
  8 14  1  0  0  0  0
  9 14  1  0  0  0  0
 10 15  1  0  0  0  0
 11 12  1  0  0  0  0
 11 15  1  0  0  0  0
 12 17  1  0  0  0  0
  1 19  1  0  0  0  0
  2 20  1  0  0  0  0
  8 21  1  0  0  0  0
  9 22  1  0  0  0  0
  9 23  1  0  0  0  0
  9 24  1  0  0  0  0
 10 25  1  0  0  0  0
 10 26  1  0  0  0  0
 10 27  1  0  0  0  0
 11 28  1  0  0  0  0
 11 29  1  0  0  0  0
 12 30  1  0  0  0  0
 12 31  1  0  0  0  0
 13 32  1  0  0  0  0
 14 33  1  0  0  0  0
 17 34  1  0  0  0  0
M  END
> <FRED Chemgauss4 score>
-4.227007

$$$$
C28051436	P41316188
  -OEChem-05182014473D

 20 20  0     0  0  0  0  0  0999 V2000
  125.6217  107.4442  107.0992 C   0  0  0  0  0  0  0  0  0  0  0  0
  125.5778  105.5075  106.3218 C   0  0  0  0  0  0  0  0  0  0  0  0
  121.7363  105.6958  106.6464 C   0  0  0  0  0  0  0  0  0  0  0  0
  122.5348  104.4217  106.8541 C   0  0  0  0  0  0  0  0  0  0  0  0
  123.7173  104.6257  107.7959 C   0  0  0  0  0  0  0  0  0  0  0  0
  126.2183  106.6431  106.1682 N   0  0  0  0  0  0  0  0  0  0  0  0
  124.6524  106.8757  107.8194 N   0  0  0  0  0  0  0  0  0  0  0  0
  124.6444  105.6376  107.3025 N   0  0  0  0  0  0  0  0  0  0  0  0
  119.8964  106.9187  107.5390 N   0  0  0  0  0  0  0  0  0  0  0  0
  120.7228  105.8147  107.5825 N   0  0  0  0  0  0  0  0  0  0  0  0
  121.9801  106.5023  105.7523 O   0  0  0  0  0  0  0  0  0  0  0  0
  125.9007  108.4752  107.2570 H   0  0  0  0  0  0  0  0  0  0  0  0
  125.7417  104.5938  105.7681 H   0  0  0  0  0  0  0  0  0  0  0  0
  122.8862  104.0720  105.8754 H   0  0  0  0  0  0  0  0  0  0  0  0
  121.8606  103.6540  107.2535 H   0  0  0  0  0  0  0  0  0  0  0  0
  124.2794  103.6936  107.9314 H   0  0  0  0  0  0  0  0  0  0  0  0
  123.3797  104.9381  108.7918 H   0  0  0  0  0  0  0  0  0  0  0  0
  119.6418  107.1357  108.5018 H   0  0  0  0  0  0  0  0  0  0  0  0
  120.4645  107.7006  107.2155 H   0  0  0  0  0  0  0  0  0  0  0  0
  120.5588  105.1196  108.3040 H   0  0  0  0  0  0  0  0  0  0  0  0
  1  6  1  0  0  0  0
  1  7  2  0  0  0  0
  2  6  2  0  0  0  0
  2  8  1  0  0  0  0
  3  4  1  0  0  0  0
  3 10  1  0  0  0  0
  3 11  2  0  0  0  0
  4  5  1  0  0  0  0
  5  8  1  0  0  0  0
  7  8  1  0  0  0  0
  9 10  1  0  0  0  0
  1 12  1  0  0  0  0
  2 13  1  0  0  0  0
  4 14  1  0  0  0  0
  4 15  1  0  0  0  0
  5 16  1  0  0  0  0
  5 17  1  0  0  0  0
  9 18  1  0  0  0  0
  9 19  1  0  0  0  0
 10 20  1  0  0  0  0
M  END
> <FRED Chemgauss4 score>
-4.225118

$$$$
C01612596	P07653838
  -OEChem-05182014473D

 15 14  0     0  0  0  0  0  0999 V2000
  122.7487  107.3738  107.2300 C   0  0  0  0  0  0  0  0  0  0  0  0
  123.2592  107.5835  108.6439 C   0  0  0  0  0  0  0  0  0  0  0  0
  124.8155  107.4409  106.0063 C   0  0  0  0  0  0  0  0  0  0  0  0
  123.5807  108.1489  106.2814 N   0  0  0  0  0  0  0  0  0  0  0  0
  124.5969  107.1106  108.7380 O   0  0  0  0  0  0  0  0  0  0  0  0
  125.4009  107.9186  104.8001 O   0  0  0  0  0  0  0  0  0  0  0  0
  122.7953  106.3182  106.9438 H   0  0  0  0  0  0  0  0  0  0  0  0
  121.7157  107.7235  107.1423 H   0  0  0  0  0  0  0  0  0  0  0  0
  122.6489  107.0133  109.3511 H   0  0  0  0  0  0  0  0  0  0  0  0
  123.2389  108.6411  108.9265 H   0  0  0  0  0  0  0  0  0  0  0  0
  125.5443  107.5865  106.8109 H   0  0  0  0  0  0  0  0  0  0  0  0
  124.6312  106.3688  105.8817 H   0  0  0  0  0  0  0  0  0  0  0  0
  123.0511  108.2693  105.4278 H   0  0  0  0  0  0  0  0  0  0  0  0
  124.8835  107.2628  109.6528 H   0  0  0  0  0  0  0  0  0  0  0  0
  126.2210  107.4146  104.6620 H   0  0  0  0  0  0  0  0  0  0  0  0
  1  2  1  0  0  0  0
  1  4  1  0  0  0  0
  2  5  1  0  0  0  0
  3  4  1  0  0  0  0
  3  6  1  0  0  0  0
  1  7  1  0  0  0  0
  1  8  1  0  0  0  0
  2  9  1  0  0  0  0
  2 10  1  0  0  0  0
  3 11  1  0  0  0  0
  3 12  1  0  0  0  0
  4 13  1  0  0  0  0
  5 14  1  0  0  0  0
  6 15  1  0  0  0  0
M  END
> <FRED Chemgauss4 score>
-4.220562

$$$$
C19167104	P56654440
  -OEChem-05182014473D

 32 32  0     0  0  0  0  0  0999 V2000
  125.0834  108.1827  106.1490 C   0  0  0  0  0  0  0  0  0  0  0  0
  124.7363  105.9741  105.2448 C   0  0  0  0  0  0  0  0  0  0  0  0
  123.6394  108.2005  106.6657 C   0  0  0  0  0  0  0  0  0  0  0  0
  123.2915  105.9879  105.7596 C   0  0  0  0  0  0  0  0  0  0  0  0
  126.0057  106.2504  107.2988 C   0  0  0  0  0  0  0  0  0  0  0  0
  120.3989  106.8627  105.2909 C   0  0  0  0  0  0  0  0  0  0  0  0
  121.4001  107.3730  106.3251 C   0  0  0  0  0  0  0  0  0  0  0  0
  118.9562  106.8347  105.7911 C   0  0  0  0  0  0  0  0  0  0  0  0
  125.6486  106.8351  106.0078 N   0  0  0  0  0  0  0  0  0  0  0  0
  122.7749  107.3598  105.8293 N   0  0  0  0  0  0  0  0  0  0  0  0
  116.7059  106.3997  105.3298 N   0  0  0  0  0  0  0  0  0  0  0  0
  118.0340  106.3728  104.7901 N   0  0  0  0  0  0  0  0  0  0  0  0
  125.1328  108.7284  105.1814 H   0  0  0  0  0  0  0  0  0  0  0  0
  125.7066  108.7717  106.8530 H   0  0  0  0  0  0  0  0  0  0  0  0
  125.1024  104.9273  105.2796 H   0  0  0  0  0  0  0  0  0  0  0  0
  124.7446  106.2556  104.1689 H   0  0  0  0  0  0  0  0  0  0  0  0
  123.6182  107.8667  107.7120 H   0  0  0  0  0  0  0  0  0  0  0  0
  123.2801  109.2366  106.6467 H   0  0  0  0  0  0  0  0  0  0  0  0
  122.6761  105.3943  105.0726 H   0  0  0  0  0  0  0  0  0  0  0  0
  123.2459  105.5006  106.7431 H   0  0  0  0  0  0  0  0  0  0  0  0
  126.4221  105.2499  107.1558 H   0  0  0  0  0  0  0  0  0  0  0  0
  125.1213  106.1756  107.9374 H   0  0  0  0  0  0  0  0  0  0  0  0
  126.7501  106.8728  107.8026 H   0  0  0  0  0  0  0  0  0  0  0  0
  120.6962  105.8519  104.9855 H   0  0  0  0  0  0  0  0  0  0  0  0
  120.4467  107.4964  104.3969 H   0  0  0  0  0  0  0  0  0  0  0  0
  121.1672  108.3953  106.6383 H   0  0  0  0  0  0  0  0  0  0  0  0
  121.3767  106.7337  107.2134 H   0  0  0  0  0  0  0  0  0  0  0  0
  118.6399  107.8442  106.0724 H   0  0  0  0  0  0  0  0  0  0  0  0
  118.8483  106.1898  106.6685 H   0  0  0  0  0  0  0  0  0  0  0  0
  116.3317  105.4514  105.3474 H   0  0  0  0  0  0  0  0  0  0  0  0
  116.7397  106.7037  106.3020 H   0  0  0  0  0  0  0  0  0  0  0  0
  118.0601  106.9846  103.9670 H   0  0  0  0  0  0  0  0  0  0  0  0
  1  3  1  0  0  0  0
  1  9  1  0  0  0  0
  2  4  1  0  0  0  0
  2  9  1  0  0  0  0
  3 10  1  0  0  0  0
  4 10  1  0  0  0  0
  5  9  1  0  0  0  0
  6  7  1  0  0  0  0
  6  8  1  0  0  0  0
  7 10  1  0  0  0  0
  8 12  1  0  0  0  0
 11 12  1  0  0  0  0
  1 13  1  0  0  0  0
  1 14  1  0  0  0  0
  2 15  1  0  0  0  0
  2 16  1  0  0  0  0
  3 17  1  0  0  0  0
  3 18  1  0  0  0  0
  4 19  1  0  0  0  0
  4 20  1  0  0  0  0
  5 21  1  0  0  0  0
  5 22  1  0  0  0  0
  5 23  1  0  0  0  0
  6 24  1  0  0  0  0
  6 25  1  0  0  0  0
  7 26  1  0  0  0  0
  7 27  1  0  0  0  0
  8 28  1  0  0  0  0
  8 29  1  0  0  0  0
 11 30  1  0  0  0  0
 11 31  1  0  0  0  0
 12 32  1  0  0  0  0
M  END
> <FRED Chemgauss4 score>
-4.213113

$$$$
C36853404	P120837088
  -OEChem-05182014473D

 17 17  0     1  0  0  0  0  0999 V2000
  124.0020  105.2846  107.2464 C   0  0  0  0  0  0  0  0  0  0  0  0
  122.9416  106.4315  105.5518 C   0  0  0  0  0  0  0  0  0  0  0  0
  125.0950  106.0592  106.5638 C   0  0  0  0  0  0  0  0  0  0  0  0
  124.3830  106.8636  105.4823 C   0  0  2  0  0  0  0  0  0  0  0  0
  123.8861  108.6128  107.0488 C   0  0  0  0  0  0  0  0  0  0  0  0
  122.8272  105.5328  106.5835 N   0  0  0  0  0  0  0  0  0  0  0  0
  124.4347  108.2958  105.7368 N   0  0  0  0  0  0  0  0  0  0  0  0
  124.1631  104.5555  108.2140 O   0  0  0  0  0  0  0  0  0  0  0  0
  122.0438  106.8343  104.8264 O   0  0  0  0  0  0  0  0  0  0  0  0
  125.6186  106.6826  107.2958 H   0  0  0  0  0  0  0  0  0  0  0  0
  125.8106  105.3577  106.1228 H   0  0  0  0  0  0  0  0  0  0  0  0
  124.7897  106.6340  104.4921 H   0  0  0  0  0  0  0  0  0  0  0  0
  122.8462  108.2818  107.1112 H   0  0  0  0  0  0  0  0  0  0  0  0
  123.9231  109.6915  107.2234 H   0  0  0  0  0  0  0  0  0  0  0  0
  124.4626  108.1113  107.8308 H   0  0  0  0  0  0  0  0  0  0  0  0
  121.9496  105.0905  106.8337 H   0  0  0  0  0  0  0  0  0  0  0  0
  125.4041  108.6104  105.6944 H   0  0  0  0  0  0  0  0  0  0  0  0
  1  3  1  0  0  0  0
  1  6  1  0  0  0  0
  1  8  2  0  0  0  0
  2  4  1  0  0  0  0
  2  6  1  0  0  0  0
  2  9  2  0  0  0  0
  3  4  1  0  0  0  0
  4  7  1  0  0  0  0
  5  7  1  0  0  0  0
  3 10  1  0  0  0  0
  3 11  1  0  0  0  0
  4 12  1  0  0  0  0
  5 13  1  0  0  0  0
  5 14  1  0  0  0  0
  5 15  1  0  0  0  0
  6 16  1  0  0  0  0
  7 17  1  0  0  0  0
M  END
> <FRED Chemgauss4 score>
-4.206810

$$$$
C85182711	P133271188
  -OEChem-05182014473D

 22 22  0     0  0  0  0  0  0999 V2000
  120.3895  105.8026  104.2169 C   0  0  0  0  0  0  0  0  0  0  0  0
  119.6802  104.0123  105.1237 C   0  0  0  0  0  0  0  0  0  0  0  0
  121.4105  105.3740  105.0320 C   0  0  0  0  0  0  0  0  0  0  0  0
  122.7310  105.9812  105.2683 C   0  0  0  0  0  0  0  0  0  0  0  0
  124.3811  108.3629  106.4874 C   0  0  0  0  0  0  0  0  0  0  0  0
  121.6363  103.3835  106.5504 C   0  0  0  0  0  0  0  0  0  0  0  0
  119.3152  104.9508  104.2787 N   0  0  0  0  0  0  0  0  0  0  0  0
  122.9240  107.2575  105.1914 N   0  0  0  0  0  0  0  0  0  0  0  0
  124.2539  107.5695  105.4564 N   0  0  0  0  0  0  0  0  0  0  0  0
  120.9413  104.2264  105.6066 N   0  0  0  0  0  0  0  0  0  0  0  0
  125.5590  108.8533  107.0041 N   0  0  0  0  0  0  0  0  0  0  0  0
  123.2813  108.8003  107.1849 N   0  0  0  0  0  0  0  0  0  0  0  0
  120.3693  106.6809  103.5875 H   0  0  0  0  0  0  0  0  0  0  0  0
  119.0805  103.1629  105.4212 H   0  0  0  0  0  0  0  0  0  0  0  0
  123.5597  105.2921  105.5174 H   0  0  0  0  0  0  0  0  0  0  0  0
  122.1938  102.6322  105.9848 H   0  0  0  0  0  0  0  0  0  0  0  0
  122.3173  103.9933  107.1505 H   0  0  0  0  0  0  0  0  0  0  0  0
  120.9085  102.9040  107.2109 H   0  0  0  0  0  0  0  0  0  0  0  0
  126.4560  108.6171  106.5944 H   0  0  0  0  0  0  0  0  0  0  0  0
  125.5613  109.4669  107.8118 H   0  0  0  0  0  0  0  0  0  0  0  0
  122.3445  108.5201  106.9158 H   0  0  0  0  0  0  0  0  0  0  0  0
  123.3719  109.4175  107.9845 H   0  0  0  0  0  0  0  0  0  0  0  0
  1  3  2  0  0  0  0
  1  7  1  0  0  0  0
  2  7  2  0  0  0  0
  2 10  1  0  0  0  0
  3  4  1  0  0  0  0
  3 10  1  0  0  0  0
  4  8  2  0  0  0  0
  5  9  2  0  0  0  0
  5 11  1  0  0  0  0
  5 12  1  0  0  0  0
  6 10  1  0  0  0  0
  8  9  1  0  0  0  0
  1 13  1  0  0  0  0
  2 14  1  0  0  0  0
  4 15  1  0  0  0  0
  6 16  1  0  0  0  0
  6 17  1  0  0  0  0
  6 18  1  0  0  0  0
 11 19  1  0  0  0  0
 11 20  1  0  0  0  0
 12 21  1  0  0  0  0
 12 22  1  0  0  0  0
M  END
> <FRED Chemgauss4 score>
-4.201084

$$$$
C58851774	P89082394
  -OEChem-05182014473D

 23 23  0     0  0  0  0  0  0999 V2000
  122.2860  105.7760  104.8782 C   0  0  0  0  0  0  0  0  0  0  0  0
  123.3803  107.1114  106.0514 C   0  0  0  0  0  0  0  0  0  0  0  0
  125.7921  105.7548  107.5401 C   0  0  0  0  0  0  0  0  0  0  0  0
  121.4072  105.2717  103.8165 C   0  0  0  0  0  0  0  0  0  0  0  0
  124.0305  108.2832  106.6651 C   0  0  0  0  0  0  0  0  0  0  0  0
  124.3278  105.3893  107.6582 C   0  0  0  0  0  0  0  0  0  0  0  0
  122.5871  107.1018  105.0054 N   0  0  0  0  0  0  0  0  0  0  0  0
  122.8431  104.9646  105.7798 N   0  0  0  0  0  0  0  0  0  0  0  0
  123.5377  105.8436  106.5181 N   0  0  0  0  0  0  0  0  0  0  0  0
  127.6930  106.3041  108.8677 N   0  0  0  0  0  0  0  0  0  0  0  0
  126.3604  105.9562  108.7868 N   0  0  0  0  0  0  0  0  0  0  0  0
  126.3775  105.8589  106.4649 O   0  0  0  0  0  0  0  0  0  0  0  0
  121.9789  105.0063  102.9085 H   0  0  0  0  0  0  0  0  0  0  0  0
  120.8458  104.3697  104.1259 H   0  0  0  0  0  0  0  0  0  0  0  0
  120.6401  106.0111  103.5167 H   0  0  0  0  0  0  0  0  0  0  0  0
  123.3933  108.7296  107.4471 H   0  0  0  0  0  0  0  0  0  0  0  0
  124.9982  108.0257  107.1304 H   0  0  0  0  0  0  0  0  0  0  0  0
  124.2510  109.0719  105.9243 H   0  0  0  0  0  0  0  0  0  0  0  0
  124.2177  104.3015  107.7335 H   0  0  0  0  0  0  0  0  0  0  0  0
  123.9086  105.8384  108.5657 H   0  0  0  0  0  0  0  0  0  0  0  0
  128.0579  105.8805  109.7199 H   0  0  0  0  0  0  0  0  0  0  0  0
  128.1680  105.8372  108.0961 H   0  0  0  0  0  0  0  0  0  0  0  0
  125.8357  105.8585  109.6504 H   0  0  0  0  0  0  0  0  0  0  0  0
  1  4  1  0  0  0  0
  1  7  1  0  0  0  0
  1  8  2  0  0  0  0
  2  5  1  0  0  0  0
  2  7  2  0  0  0  0
  2  9  1  0  0  0  0
  3  6  1  0  0  0  0
  3 11  1  0  0  0  0
  3 12  2  0  0  0  0
  6  9  1  0  0  0  0
  8  9  1  0  0  0  0
 10 11  1  0  0  0  0
  4 13  1  0  0  0  0
  4 14  1  0  0  0  0
  4 15  1  0  0  0  0
  5 16  1  0  0  0  0
  5 17  1  0  0  0  0
  5 18  1  0  0  0  0
  6 19  1  0  0  0  0
  6 20  1  0  0  0  0
 10 21  1  0  0  0  0
 10 22  1  0  0  0  0
 11 23  1  0  0  0  0
M  END
> <FRED Chemgauss4 score>
-4.198730

$$$$
C87513557	P136883589
  -OEChem-05182014473D

 26 27  0     0  0  0  0  0  0999 V2000
  124.5355  103.7222  108.2242 C   0  0  0  0  0  0  0  0  0  0  0  0
  125.8448  104.2023  108.2518 C   0  0  0  0  0  0  0  0  0  0  0  0
  123.7162  105.9245  108.7863 C   0  0  0  0  0  0  0  0  0  0  0  0
  123.4712  104.5833  108.4914 C   0  0  0  0  0  0  0  0  0  0  0  0
  126.0899  105.5434  108.5467 C   0  0  0  0  0  0  0  0  0  0  0  0
  125.0255  106.4046  108.8139 C   0  0  0  0  0  0  0  0  0  0  0  0
  123.5868  106.7237  105.2821 C   0  0  0  0  0  0  0  0  0  0  0  0
  122.1274  105.2791  106.0024 C   0  0  0  0  0  0  0  0  0  0  0  0
  124.9457  107.2514  105.0707 C   0  0  0  0  0  0  0  0  0  0  0  0
  122.0713  104.0701  108.4618 C   0  0  0  0  0  0  0  0  0  0  0  0
  123.4187  105.5214  105.9480 N   0  0  0  0  0  0  0  0  0  0  0  0
  122.5349  107.4077  104.8324 N   0  0  0  0  0  0  0  0  0  0  0  0
  127.4148  106.0264  108.5740 N   0  0  0  0  0  0  0  0  0  0  0  0
  125.2496  107.6954  109.0983 F   0  0  0  0  0  0  0  0  0  0  0  0
  121.1896  106.5059  105.2540 S   0  0  0  0  0  0  0  0  0  0  0  0
  121.4490  103.8399  106.7683 S   0  0  0  0  0  0  0  0  0  0  0  0
  124.3541  102.6759  107.9935 H   0  0  0  0  0  0  0  0  0  0  0  0
  126.6668  103.5226  108.0420 H   0  0  0  0  0  0  0  0  0  0  0  0
  122.8934  106.6028  108.9957 H   0  0  0  0  0  0  0  0  0  0  0  0
  125.3713  106.8913  104.1185 H   0  0  0  0  0  0  0  0  0  0  0  0
  124.9651  108.3555  105.0472 H   0  0  0  0  0  0  0  0  0  0  0  0
  125.6385  106.9543  105.8782 H   0  0  0  0  0  0  0  0  0  0  0  0
  121.9948  103.1091  108.9916 H   0  0  0  0  0  0  0  0  0  0  0  0
  121.3930  104.7592  108.9864 H   0  0  0  0  0  0  0  0  0  0  0  0
  128.1700  105.3876  108.4271 H   0  0  0  0  0  0  0  0  0  0  0  0
  127.5817  106.9778  108.8326 H   0  0  0  0  0  0  0  0  0  0  0  0
  1  2  2  0  0  0  0
  1  4  1  0  0  0  0
  2  5  1  0  0  0  0
  3  4  2  0  0  0  0
  3  6  1  0  0  0  0
  4 10  1  0  0  0  0
  5  6  2  0  0  0  0
  5 13  1  0  0  0  0
  6 14  1  0  0  0  0
  7  9  1  0  0  0  0
  7 11  1  0  0  0  0
  7 12  2  0  0  0  0
  8 11  2  0  0  0  0
  8 15  1  0  0  0  0
  8 16  1  0  0  0  0
 10 16  1  0  0  0  0
 12 15  1  0  0  0  0
  1 17  1  0  0  0  0
  2 18  1  0  0  0  0
  3 19  1  0  0  0  0
  9 20  1  0  0  0  0
  9 21  1  0  0  0  0
  9 22  1  0  0  0  0
 10 23  1  0  0  0  0
 10 24  1  0  0  0  0
 13 25  1  0  0  0  0
 13 26  1  0  0  0  0
M  END
> <FRED Chemgauss4 score>
-4.181633

$$$$
C16382953	P24774798
  -OEChem-05182014473D

 13 13  0     0  0  0  0  0  0999 V2000
  123.0137  107.5298  106.7211 C   0  0  0  0  0  0  0  0  0  0  0  0
  123.4529  106.7466  107.9074 C   0  0  0  0  0  0  0  0  0  0  0  0
  125.5148  106.3547  106.6399 C   0  0  0  0  0  0  0  0  0  0  0  0
  123.7307  107.6907  105.6621 N   0  0  0  0  0  0  0  0  0  0  0  0
  124.9539  107.1142  105.6270 N   0  0  0  0  0  0  0  0  0  0  0  0
  124.7114  106.2032  107.7661 N   0  0  0  0  0  0  0  0  0  0  0  0
  125.2013  105.4539  108.8313 N   0  0  0  0  0  0  0  0  0  0  0  0
  122.6806  106.6683  108.8508 O   0  0  0  0  0  0  0  0  0  0  0  0
  126.6407  105.8643  106.5228 O   0  0  0  0  0  0  0  0  0  0  0  0
  122.0116  107.9808  106.7953 H   0  0  0  0  0  0  0  0  0  0  0  0
  125.5075  107.2498  104.7871 H   0  0  0  0  0  0  0  0  0  0  0  0
  124.8484  105.8194  109.7261 H   0  0  0  0  0  0  0  0  0  0  0  0
  126.2238  105.5451  108.8976 H   0  0  0  0  0  0  0  0  0  0  0  0
  1  2  1  0  0  0  0
  1  4  2  0  0  0  0
  2  6  1  0  0  0  0
  2  8  2  0  0  0  0
  3  5  1  0  0  0  0
  3  6  1  0  0  0  0
  3  9  2  0  0  0  0
  4  5  1  0  0  0  0
  6  7  1  0  0  0  0
  1 10  1  0  0  0  0
  5 11  1  0  0  0  0
  7 12  1  0  0  0  0
  7 13  1  0  0  0  0
M  END
> <FRED Chemgauss4 score>
-4.160740

$$$$
C18739352	P149102511
  -OEChem-05182014473D

 21 22  0     1  0  0  0  0  0999 V2000
  124.9714  107.4392  105.3557 C   0  0  0  0  0  0  0  0  0  0  0  0
  125.3685  106.8119  106.5341 C   0  0  0  0  0  0  0  0  0  0  0  0
  124.3779  107.0900  107.4274 C   0  0  0  0  0  0  0  0  0  0  0  0
  124.5573  106.5249  108.7706 C   0  0  0  0  0  0  0  0  0  0  0  0
  126.0639  106.0870  108.6754 C   0  0  0  0  0  0  0  0  0  0  0  0
  126.4173  105.9710  107.1398 C   0  0  2  0  0  0  0  0  0  0  0  0
  122.2336  108.3846  107.3357 C   0  0  0  0  0  0  0  0  0  0  0  0
  123.7994  108.0840  105.5057 N   0  0  0  0  0  0  0  0  0  0  0  0
  123.4585  107.8480  106.7981 N   0  0  0  0  0  0  0  0  0  0  0  0
  127.7429  106.4848  106.8477 N   0  0  0  0  0  0  0  0  0  0  0  0
  125.4619  107.4667  104.3937 H   0  0  0  0  0  0  0  0  0  0  0  0
  124.4043  107.2492  109.5746 H   0  0  0  0  0  0  0  0  0  0  0  0
  123.9135  105.6533  108.9243 H   0  0  0  0  0  0  0  0  0  0  0  0
  126.6795  106.8644  109.1499 H   0  0  0  0  0  0  0  0  0  0  0  0
  126.2567  105.1519  109.2117 H   0  0  0  0  0  0  0  0  0  0  0  0
  126.3176  104.9306  106.8116 H   0  0  0  0  0  0  0  0  0  0  0  0
  122.4530  109.3692  107.7571 H   0  0  0  0  0  0  0  0  0  0  0  0
  121.4910  108.4673  106.5373 H   0  0  0  0  0  0  0  0  0  0  0  0
  121.8537  107.7122  108.1100 H   0  0  0  0  0  0  0  0  0  0  0  0
  127.9274  106.8367  105.9287 H   0  0  0  0  0  0  0  0  0  0  0  0
  128.4836  106.2902  107.4926 H   0  0  0  0  0  0  0  0  0  0  0  0
  1  2  1  0  0  0  0
  1  8  2  0  0  0  0
  2  3  2  0  0  0  0
  2  6  1  0  0  0  0
  3  4  1  0  0  0  0
  3  9  1  0  0  0  0
  4  5  1  0  0  0  0
  5  6  1  0  0  0  0
  6 10  1  0  0  0  0
  7  9  1  0  0  0  0
  8  9  1  0  0  0  0
  1 11  1  0  0  0  0
  4 12  1  0  0  0  0
  4 13  1  0  0  0  0
  5 14  1  0  0  0  0
  5 15  1  0  0  0  0
  6 16  1  0  0  0  0
  7 17  1  0  0  0  0
  7 18  1  0  0  0  0
  7 19  1  0  0  0  0
 10 20  1  0  0  0  0
 10 21  1  0  0  0  0
M  END
> <FRED Chemgauss4 score>
-4.145757

$$$$
C85836742	P134413409
  -OEChem-05182014473D

 31 31  0     1  0  0  0  0  0999 V2000
  126.4263  105.5979  107.3807 C   0  0  0  0  0  0  0  0  0  0  0  0
  120.2640  106.0677  107.0420 C   0  0  0  0  0  0  0  0  0  0  0  0
  120.8350  106.1756  108.2908 C   0  0  0  0  0  0  0  0  0  0  0  0
  122.0791  107.3901  106.8794 C   0  0  0  0  0  0  0  0  0  0  0  0
  121.0509  106.8361  106.1491 C   0  0  0  0  0  0  0  0  0  0  0  0
  120.1131  105.8111  104.0368 C   0  0  0  0  0  0  0  0  0  0  0  0
  125.8398  104.9760  108.5755 C   0  0  0  0  0  0  0  0  0  0  0  0
  124.3989  105.4289  108.8161 C   0  0  0  0  0  0  0  0  0  0  0  0
  124.2749  106.9442  109.0041 C   0  0  0  0  0  0  0  0  0  0  0  0
  122.8262  107.3476  109.2781 C   0  0  0  0  0  0  0  0  0  0  0  0
  120.8137  107.0124  104.7035 C   0  0  2  0  0  0  0  0  0  0  0  0
  126.8913  106.0881  106.4373 N   0  0  0  0  0  0  0  0  0  0  0  0
  121.9379  106.9816  108.1799 N   0  0  0  0  0  0  0  0  0  0  0  0
  122.0350  107.3195  103.9664 N   0  0  0  0  0  0  0  0  0  0  0  0
  119.3769  105.4968  106.8049 H   0  0  0  0  0  0  0  0  0  0  0  0
  120.5502  105.7464  109.2419 H   0  0  0  0  0  0  0  0  0  0  0  0
  122.8951  108.0369  106.5846 H   0  0  0  0  0  0  0  0  0  0  0  0
  120.7000  104.8978  104.1836 H   0  0  0  0  0  0  0  0  0  0  0  0
  119.1127  105.6419  104.4509 H   0  0  0  0  0  0  0  0  0  0  0  0
  119.9930  105.9658  102.9586 H   0  0  0  0  0  0  0  0  0  0  0  0
  126.4555  105.1976  109.4545 H   0  0  0  0  0  0  0  0  0  0  0  0
  125.8498  103.8871  108.4480 H   0  0  0  0  0  0  0  0  0  0  0  0
  124.0258  104.9286  109.7185 H   0  0  0  0  0  0  0  0  0  0  0  0
  123.7595  105.1064  107.9846 H   0  0  0  0  0  0  0  0  0  0  0  0
  124.6377  107.4667  108.1107 H   0  0  0  0  0  0  0  0  0  0  0  0
  124.9130  107.2653  109.8370 H   0  0  0  0  0  0  0  0  0  0  0  0
  122.4488  106.8641  110.1870 H   0  0  0  0  0  0  0  0  0  0  0  0
  122.7408  108.4304  109.4284 H   0  0  0  0  0  0  0  0  0  0  0  0
  120.1627  107.8909  104.5118 H   0  0  0  0  0  0  0  0  0  0  0  0
  122.7143  107.9039  104.4045 H   0  0  0  0  0  0  0  0  0  0  0  0
  122.0605  107.1109  102.9912 H   0  0  0  0  0  0  0  0  0  0  0  0
  1  7  1  0  0  0  0
  1 12  3  0  0  0  0
  2  3  2  0  0  0  0
  2  5  1  0  0  0  0
  3 13  1  0  0  0  0
  4  5  2  0  0  0  0
  4 13  1  0  0  0  0
  5 11  1  0  0  0  0
  6 11  1  0  0  0  0
  7  8  1  0  0  0  0
  8  9  1  0  0  0  0
  9 10  1  0  0  0  0
 10 13  1  0  0  0  0
 11 14  1  0  0  0  0
  2 15  1  0  0  0  0
  3 16  1  0  0  0  0
  4 17  1  0  0  0  0
  6 18  1  0  0  0  0
  6 19  1  0  0  0  0
  6 20  1  0  0  0  0
  7 21  1  0  0  0  0
  7 22  1  0  0  0  0
  8 23  1  0  0  0  0
  8 24  1  0  0  0  0
  9 25  1  0  0  0  0
  9 26  1  0  0  0  0
 10 27  1  0  0  0  0
 10 28  1  0  0  0  0
 11 29  1  0  0  0  0
 14 30  1  0  0  0  0
 14 31  1  0  0  0  0
M  END
> <FRED Chemgauss4 score>
-4.145527

$$$$
C20286182	P156342109
  -OEChem-05182014473D

 20 20  0     1  0  0  0  0  0999 V2000
  125.4262  106.1753  107.5621 C   0  0  0  0  0  0  0  0  0  0  0  0
  124.3371  106.3221  106.6795 C   0  0  0  0  0  0  0  0  0  0  0  0
  124.2959  106.9615  105.4937 C   0  0  0  0  0  0  0  0  0  0  0  0
  122.9698  105.7707  106.8867 C   0  0  0  0  0  0  0  0  0  0  0  0
  122.0686  106.1572  105.7290 C   0  0  2  0  0  0  0  0  0  0  0  0
  120.6223  104.1221  105.8521 C   0  0  0  0  0  0  0  0  0  0  0  0
  121.5291  104.9506  104.9930 C   0  0  0  0  0  0  0  0  0  0  0  0
  126.3224  106.0544  108.2887 N   0  0  0  0  0  0  0  0  0  0  0  0
  123.0347  106.8727  104.9293 N   0  0  0  0  0  0  0  0  0  0  0  0
  125.3446  107.6121  104.9115 N   0  0  0  0  0  0  0  0  0  0  0  0
  122.6369  105.1023  107.8527 O   0  0  0  0  0  0  0  0  0  0  0  0
  121.2791  106.8291  106.0784 H   0  0  0  0  0  0  0  0  0  0  0  0
  121.1555  103.7872  106.7495 H   0  0  0  0  0  0  0  0  0  0  0  0
  120.2803  103.2345  105.3093 H   0  0  0  0  0  0  0  0  0  0  0  0
  119.7530  104.7065  106.1716 H   0  0  0  0  0  0  0  0  0  0  0  0
  120.9772  105.2754  104.1012 H   0  0  0  0  0  0  0  0  0  0  0  0
  122.3614  104.3245  104.6456 H   0  0  0  0  0  0  0  0  0  0  0  0
  122.8280  107.3145  104.0432 H   0  0  0  0  0  0  0  0  0  0  0  0
  126.2203  107.6263  105.3871 H   0  0  0  0  0  0  0  0  0  0  0  0
  125.2022  108.0528  104.0291 H   0  0  0  0  0  0  0  0  0  0  0  0
  1  2  1  0  0  0  0
  1  8  3  0  0  0  0
  2  3  2  0  0  0  0
  2  4  1  0  0  0  0
  3  9  1  0  0  0  0
  3 10  1  0  0  0  0
  4  5  1  0  0  0  0
  4 11  2  0  0  0  0
  5  7  1  0  0  0  0
  5  9  1  0  0  0  0
  6  7  1  0  0  0  0
  5 12  1  0  0  0  0
  6 13  1  0  0  0  0
  6 14  1  0  0  0  0
  6 15  1  0  0  0  0
  7 16  1  0  0  0  0
  7 17  1  0  0  0  0
  9 18  1  0  0  0  0
 10 19  1  0  0  0  0
 10 20  1  0  0  0  0
M  END
> <FRED Chemgauss4 score>
-4.136510

$$$$
C61698444	P94503117
  -OEChem-05182014473D

 39 40  0     1  0  0  0  0  0999 V2000
  124.2618  107.2669  108.0514 C   0  0  0  0  0  0  0  0  0  0  0  0
  123.0869  107.2927  107.3001 C   0  0  0  0  0  0  0  0  0  0  0  0
  124.5457  104.9256  107.5272 C   0  0  0  0  0  0  0  0  0  0  0  0
  124.9912  106.0834  108.1649 C   0  0  0  0  0  0  0  0  0  0  0  0
  119.4464  105.8638  105.1731 C   0  0  0  0  0  0  0  0  0  0  0  0
  122.6413  106.1350  106.6623 C   0  0  0  0  0  0  0  0  0  0  0  0
  123.3707  104.9514  106.7759 C   0  0  0  0  0  0  0  0  0  0  0  0
  120.1433  106.8334  104.4275 C   0  0  0  0  0  0  0  0  0  0  0  0
  120.3375  105.4689  106.1408 C   0  0  0  0  0  0  0  0  0  0  0  0
  119.6612  107.5945  103.2617 C   0  0  0  0  0  0  0  0  0  0  0  0
  120.2046  104.4789  107.2290 C   0  0  0  0  0  0  0  0  0  0  0  0
  117.0071  106.3620  105.4706 C   0  0  0  0  0  0  0  0  0  0  0  0
  126.0316  106.4159  110.4451 C   0  0  0  0  0  0  0  0  0  0  0  0
  118.0704  105.3792  104.9658 C   0  0  0  0  0  0  0  0  0  0  0  0
  126.2479  106.0566  108.9675 C   0  0  2  0  0  0  0  0  0  0  0  0
  121.3816  107.0418  104.8825 N   0  0  0  0  0  0  0  0  0  0  0  0
  121.4698  106.1978  105.9245 N   0  0  0  0  0  0  0  0  0  0  0  0
  127.2765  106.9128  108.4012 N   0  0  0  0  0  0  0  0  0  0  0  0
  122.8607  103.4911  106.0032 Cl  0  0  0  0  0  0  0  0  0  0  0  0
  124.6020  108.1740  108.5440 H   0  0  0  0  0  0  0  0  0  0  0  0
  122.5310  108.2239  107.2189 H   0  0  0  0  0  0  0  0  0  0  0  0
  125.1204  104.0067  107.6206 H   0  0  0  0  0  0  0  0  0  0  0  0
  119.1772  108.5364  103.5713 H   0  0  0  0  0  0  0  0  0  0  0  0
  120.4790  107.8535  102.5661 H   0  0  0  0  0  0  0  0  0  0  0  0
  118.9272  107.0232  102.6659 H   0  0  0  0  0  0  0  0  0  0  0  0
  120.5224  103.4781  106.8952 H   0  0  0  0  0  0  0  0  0  0  0  0
  120.8127  104.7486  108.1088 H   0  0  0  0  0  0  0  0  0  0  0  0
  119.1650  104.3987  107.5892 H   0  0  0  0  0  0  0  0  0  0  0  0
  117.1645  106.5925  106.5297 H   0  0  0  0  0  0  0  0  0  0  0  0
  115.9991  105.9504  105.3593 H   0  0  0  0  0  0  0  0  0  0  0  0
  117.0530  107.3028  104.9116 H   0  0  0  0  0  0  0  0  0  0  0  0
  125.5908  107.4143  110.5399 H   0  0  0  0  0  0  0  0  0  0  0  0
  125.3605  105.7008  110.9340 H   0  0  0  0  0  0  0  0  0  0  0  0
  126.9735  106.4079  111.0051 H   0  0  0  0  0  0  0  0  0  0  0  0
  117.8732  105.1752  103.8944 H   0  0  0  0  0  0  0  0  0  0  0  0
  117.9076  104.4044  105.4675 H   0  0  0  0  0  0  0  0  0  0  0  0
  126.6914  105.0453  108.9485 H   0  0  0  0  0  0  0  0  0  0  0  0
  127.3439  106.9816  107.4055 H   0  0  0  0  0  0  0  0  0  0  0  0
  128.0058  107.2419  109.0017 H   0  0  0  0  0  0  0  0  0  0  0  0
  1  2  2  0  0  0  0
  1  4  1  0  0  0  0
  2  6  1  0  0  0  0
  3  4  2  0  0  0  0
  3  7  1  0  0  0  0
  4 15  1  0  0  0  0
  5  8  1  0  0  0  0
  5  9  2  0  0  0  0
  5 14  1  0  0  0  0
  6  7  2  0  0  0  0
  6 17  1  0  0  0  0
  7 19  1  0  0  0  0
  8 10  1  0  0  0  0
  8 16  2  0  0  0  0
  9 11  1  0  0  0  0
  9 17  1  0  0  0  0
 12 14  1  0  0  0  0
 13 15  1  0  0  0  0
 15 18  1  0  0  0  0
 16 17  1  0  0  0  0
  1 20  1  0  0  0  0
  2 21  1  0  0  0  0
  3 22  1  0  0  0  0
 10 23  1  0  0  0  0
 10 24  1  0  0  0  0
 10 25  1  0  0  0  0
 11 26  1  0  0  0  0
 11 27  1  0  0  0  0
 11 28  1  0  0  0  0
 12 29  1  0  0  0  0
 12 30  1  0  0  0  0
 12 31  1  0  0  0  0
 13 32  1  0  0  0  0
 13 33  1  0  0  0  0
 13 34  1  0  0  0  0
 14 35  1  0  0  0  0
 14 36  1  0  0  0  0
 15 37  1  0  0  0  0
 18 38  1  0  0  0  0
 18 39  1  0  0  0  0
M  END
> <FRED Chemgauss4 score>
-4.133948

$$$$
C82161598	P128260631
  -OEChem-05182014473D

 51 53  0     1  0  0  0  0  0999 V2000
  118.3605  104.3751  101.6992 C   0  0  0  0  0  0  0  0  0  0  0  0
  119.7480  104.5081  101.6187 C   0  0  0  0  0  0  0  0  0  0  0  0
  118.3520  105.5689  103.8030 C   0  0  0  0  0  0  0  0  0  0  0  0
  119.7405  105.7018  103.7222 C   0  0  0  0  0  0  0  0  0  0  0  0
  117.6655  104.9037  102.7875 C   0  0  0  0  0  0  0  0  0  0  0  0
  120.4517  105.1720  102.6283 C   0  0  0  0  0  0  0  0  0  0  0  0
  122.5300  105.9640  103.5553 C   0  0  0  0  0  0  0  0  0  0  0  0
  120.4908  106.4086  104.7977 C   0  0  0  0  0  0  0  0  0  0  0  0
  121.9698  106.5087  104.6407 C   0  0  0  0  0  0  0  0  0  0  0  0
  122.8486  107.1789  105.6195 C   0  0  0  0  0  0  0  0  0  0  0  0
  127.2503  105.6088  109.0187 C   0  0  0  0  0  0  0  0  0  0  0  0
  122.7353  105.2188  107.2501 C   0  0  0  0  0  0  0  0  0  0  0  0
  124.6498  106.6736  107.2416 C   0  0  0  0  0  0  0  0  0  0  0  0
  123.6048  104.9127  108.4711 C   0  0  2  0  0  0  0  0  0  0  0  0
  124.9867  105.4138  108.0303 C   0  0  2  0  0  0  0  0  0  0  0  0
  116.1832  104.7557  102.8641 C   0  0  0  0  0  0  0  0  0  0  0  0
  127.9760  105.9232  110.2847 C   0  0  0  0  0  0  0  0  0  0  0  0
  121.6533  103.7660  110.4280 C   0  0  0  0  0  0  0  0  0  0  0  0
  123.5863  103.4424  108.8570 C   0  0  0  0  0  0  0  0  0  0  0  0
  122.1803  102.9892  109.2321 C   0  0  0  0  0  0  0  0  0  0  0  0
  121.8432  105.3149  102.5673 N   0  0  0  0  0  0  0  0  0  0  0  0
  123.3551  106.3930  106.6365 N   0  0  0  0  0  0  0  0  0  0  0  0
  125.8741  105.6768  109.1269 N   0  0  0  0  0  0  0  0  0  0  0  0
  119.9156  106.8855  105.7678 O   0  0  0  0  0  0  0  0  0  0  0  0
  123.0840  108.3788  105.4801 O   0  0  0  0  0  0  0  0  0  0  0  0
  127.8878  105.3254  108.0113 O   0  0  0  0  0  0  0  0  0  0  0  0
  117.8277  103.8549  100.9073 H   0  0  0  0  0  0  0  0  0  0  0  0
  120.2732  104.0897  100.7638 H   0  0  0  0  0  0  0  0  0  0  0  0
  117.8004  105.9767  104.6461 H   0  0  0  0  0  0  0  0  0  0  0  0
  123.5973  105.9930  103.3660 H   0  0  0  0  0  0  0  0  0  0  0  0
  122.6686  104.3985  106.5321 H   0  0  0  0  0  0  0  0  0  0  0  0
  121.7223  105.5073  107.5458 H   0  0  0  0  0  0  0  0  0  0  0  0
  124.6009  107.5746  107.8607 H   0  0  0  0  0  0  0  0  0  0  0  0
  125.3644  106.8357  106.4274 H   0  0  0  0  0  0  0  0  0  0  0  0
  123.2280  105.4952  109.3446 H   0  0  0  0  0  0  0  0  0  0  0  0
  125.5086  104.6766  107.3841 H   0  0  0  0  0  0  0  0  0  0  0  0
  115.9188  103.8294  103.3885 H   0  0  0  0  0  0  0  0  0  0  0  0
  115.7257  105.5997  103.3961 H   0  0  0  0  0  0  0  0  0  0  0  0
  115.7335  104.7297  101.8630 H   0  0  0  0  0  0  0  0  0  0  0  0
  128.1523  105.0276  110.9019 H   0  0  0  0  0  0  0  0  0  0  0  0
  128.9745  106.3518  110.1017 H   0  0  0  0  0  0  0  0  0  0  0  0
  127.4711  106.6401  110.9519 H   0  0  0  0  0  0  0  0  0  0  0  0
  122.3106  103.6450  111.2949 H   0  0  0  0  0  0  0  0  0  0  0  0
  120.6568  103.4069  110.7040 H   0  0  0  0  0  0  0  0  0  0  0  0
  121.5782  104.8341  110.1999 H   0  0  0  0  0  0  0  0  0  0  0  0
  123.9620  102.8539  108.0155 H   0  0  0  0  0  0  0  0  0  0  0  0
  124.2696  103.2915  109.6972 H   0  0  0  0  0  0  0  0  0  0  0  0
  121.5010  103.1312  108.3833 H   0  0  0  0  0  0  0  0  0  0  0  0
  122.1819  101.9191  109.4705 H   0  0  0  0  0  0  0  0  0  0  0  0
  122.3572  104.9376  101.7827 H   0  0  0  0  0  0  0  0  0  0  0  0
  125.4715  105.9250  110.0258 H   0  0  0  0  0  0  0  0  0  0  0  0
  1  2  2  0  0  0  0
  1  5  1  0  0  0  0
  2  6  1  0  0  0  0
  3  4  1  0  0  0  0
  3  5  2  0  0  0  0
  4  6  2  0  0  0  0
  4  8  1  0  0  0  0
  5 16  1  0  0  0  0
  6 21  1  0  0  0  0
  7  9  2  0  0  0  0
  7 21  1  0  0  0  0
  8  9  1  0  0  0  0
  8 24  2  0  0  0  0
  9 10  1  0  0  0  0
 10 22  1  0  0  0  0
 10 25  2  0  0  0  0
 11 17  1  0  0  0  0
 11 23  1  0  0  0  0
 11 26  2  0  0  0  0
 12 14  1  0  0  0  0
 12 22  1  0  0  0  0
 13 15  1  0  0  0  0
 13 22  1  0  0  0  0
 14 15  1  0  0  0  0
 14 19  1  0  0  0  0
 15 23  1  0  0  0  0
 18 20  1  0  0  0  0
 19 20  1  0  0  0  0
  1 27  1  0  0  0  0
  2 28  1  0  0  0  0
  3 29  1  0  0  0  0
  7 30  1  0  0  0  0
 12 31  1  0  0  0  0
 12 32  1  0  0  0  0
 13 33  1  0  0  0  0
 13 34  1  0  0  0  0
 14 35  1  0  0  0  0
 15 36  1  0  0  0  0
 16 37  1  0  0  0  0
 16 38  1  0  0  0  0
 16 39  1  0  0  0  0
 17 40  1  0  0  0  0
 17 41  1  0  0  0  0
 17 42  1  0  0  0  0
 18 43  1  0  0  0  0
 18 44  1  0  0  0  0
 18 45  1  0  0  0  0
 19 46  1  0  0  0  0
 19 47  1  0  0  0  0
 20 48  1  0  0  0  0
 20 49  1  0  0  0  0
 21 50  1  0  0  0  0
 23 51  1  0  0  0  0
M  END
> <FRED Chemgauss4 score>
-4.133371

$$$$
C08466527	P151295409
  -OEChem-05182014473D

 18 18  0     0  0  0  0  0  0999 V2000
  125.8636  105.6638  107.1145 C   0  0  0  0  0  0  0  0  0  0  0  0
  123.5094  106.4958  106.0832 C   0  0  0  0  0  0  0  0  0  0  0  0
  123.6029  105.3646  106.8276 C   0  0  0  0  0  0  0  0  0  0  0  0
  124.7236  107.3202  105.8125 C   0  0  0  0  0  0  0  0  0  0  0  0
  121.3602  105.1852  107.7576 C   0  0  0  0  0  0  0  0  0  0  0  0
  124.8191  104.9461  107.3533 N   0  0  0  0  0  0  0  0  0  0  0  0
  125.8728  106.8167  106.3773 N   0  0  0  0  0  0  0  0  0  0  0  0
  122.3612  106.9886  105.5237 N   0  0  0  0  0  0  0  0  0  0  0  0
  122.4751  104.6098  107.0717 N   0  0  0  0  0  0  0  0  0  0  0  0
  124.6829  108.3497  105.1451 O   0  0  0  0  0  0  0  0  0  0  0  0
  126.8545  105.3843  107.5034 H   0  0  0  0  0  0  0  0  0  0  0  0
  121.5735  106.2261  108.0145 H   0  0  0  0  0  0  0  0  0  0  0  0
  121.1551  104.6307  108.6774 H   0  0  0  0  0  0  0  0  0  0  0  0
  120.4698  105.1545  107.1240 H   0  0  0  0  0  0  0  0  0  0  0  0
  126.7467  107.3163  106.2423 H   0  0  0  0  0  0  0  0  0  0  0  0
  121.5140  106.4872  105.6648 H   0  0  0  0  0  0  0  0  0  0  0  0
  122.4158  107.8299  104.9963 H   0  0  0  0  0  0  0  0  0  0  0  0
  122.4974  103.6791  106.7480 H   0  0  0  0  0  0  0  0  0  0  0  0
  1  6  2  0  0  0  0
  1  7  1  0  0  0  0
  2  3  2  0  0  0  0
  2  4  1  0  0  0  0
  2  8  1  0  0  0  0
  3  6  1  0  0  0  0
  3  9  1  0  0  0  0
  4  7  1  0  0  0  0
  4 10  2  0  0  0  0
  5  9  1  0  0  0  0
  1 11  1  0  0  0  0
  5 12  1  0  0  0  0
  5 13  1  0  0  0  0
  5 14  1  0  0  0  0
  7 15  1  0  0  0  0
  8 16  1  0  0  0  0
  8 17  1  0  0  0  0
  9 18  1  0  0  0  0
M  END
> <FRED Chemgauss4 score>
-4.116746

$$$$
C40448188	P61401681
  -OEChem-05182014473D

 16 16  0     0  0  0  0  0  0999 V2000
  124.8984  107.4440  105.2422 C   0  0  0  0  0  0  0  0  0  0  0  0
  118.8694  106.1280  105.4841 C   0  0  0  0  0  0  0  0  0  0  0  0
  119.6147  107.0217  104.7469 C   0  0  0  0  0  0  0  0  0  0  0  0
  120.7722  105.3955  106.5197 C   0  0  0  0  0  0  0  0  0  0  0  0
  121.5176  106.2886  105.7820 C   0  0  0  0  0  0  0  0  0  0  0  0
  122.9567  106.3829  105.9378 C   0  0  0  0  0  0  0  0  0  0  0  0
  126.0477  107.5966  105.2912 N   0  0  0  0  0  0  0  0  0  0  0  0
  119.4348  105.2989  106.3838 N   0  0  0  0  0  0  0  0  0  0  0  0
  120.9521  107.1180  104.8826 N   0  0  0  0  0  0  0  0  0  0  0  0
  123.5695  107.2759  105.1775 N   0  0  0  0  0  0  0  0  0  0  0  0
  123.6650  105.5748  106.8409 N   0  0  0  0  0  0  0  0  0  0  0  0
  117.7948  106.0505  105.3744 H   0  0  0  0  0  0  0  0  0  0  0  0
  119.1592  107.6890  104.0254 H   0  0  0  0  0  0  0  0  0  0  0  0
  121.2191  104.7261  107.2456 H   0  0  0  0  0  0  0  0  0  0  0  0
  123.2172  104.8689  107.4152 H   0  0  0  0  0  0  0  0  0  0  0  0
  124.6737  105.6389  106.9220 H   0  0  0  0  0  0  0  0  0  0  0  0
  1  7  3  0  0  0  0
  1 10  1  0  0  0  0
  2  3  1  0  0  0  0
  2  8  2  0  0  0  0
  3  9  2  0  0  0  0
  4  5  2  0  0  0  0
  4  8  1  0  0  0  0
  5  6  1  0  0  0  0
  5  9  1  0  0  0  0
  6 10  2  0  0  0  0
  6 11  1  0  0  0  0
  2 12  1  0  0  0  0
  3 13  1  0  0  0  0
  4 14  1  0  0  0  0
 11 15  1  0  0  0  0
 11 16  1  0  0  0  0
M  END
> <FRED Chemgauss4 score>
-4.087789

$$$$
C72197597	P112155099
  -OEChem-05182014473D

 24 24  0     1  0  0  0  0  0999 V2000
  119.6593  106.8665  104.7820 C   0  0  0  0  0  0  0  0  0  0  0  0
  120.5614  104.9945  106.0146 C   0  0  0  0  0  0  0  0  0  0  0  0
  118.4268  106.2187  104.7002 C   0  0  0  0  0  0  0  0  0  0  0  0
  119.3288  104.3468  105.9329 C   0  0  0  0  0  0  0  0  0  0  0  0
  120.7267  106.2544  105.4391 C   0  0  0  0  0  0  0  0  0  0  0  0
  118.2614  104.9588  105.2757 C   0  0  0  0  0  0  0  0  0  0  0  0
  123.1966  106.1484  104.8888 C   0  0  0  0  0  0  0  0  0  0  0  0
  122.0448  106.9463  105.5270 C   0  0  2  0  0  0  0  0  0  0  0  0
  116.9427  104.2676  105.1893 C   0  0  0  0  0  0  0  0  0  0  0  0
  122.3975  107.2683  106.9018 N   0  0  0  0  0  0  0  0  0  0  0  0
  124.2969  107.0119  104.6217 O   0  0  0  0  0  0  0  0  0  0  0  0
  117.1050  102.9188  105.1541 F   0  0  0  0  0  0  0  0  0  0  0  0
  116.2934  104.6074  104.0449 F   0  0  0  0  0  0  0  0  0  0  0  0
  119.7792  107.8476  104.3302 H   0  0  0  0  0  0  0  0  0  0  0  0
  121.3875  104.5109  106.5295 H   0  0  0  0  0  0  0  0  0  0  0  0
  117.6003  106.7037  104.1877 H   0  0  0  0  0  0  0  0  0  0  0  0
  119.2086  103.3652  106.3838 H   0  0  0  0  0  0  0  0  0  0  0  0
  123.5464  105.3684  105.5740 H   0  0  0  0  0  0  0  0  0  0  0  0
  122.8922  105.6780  103.9475 H   0  0  0  0  0  0  0  0  0  0  0  0
  122.0012  107.9281  105.0219 H   0  0  0  0  0  0  0  0  0  0  0  0
  116.2887  104.5057  106.0303 H   0  0  0  0  0  0  0  0  0  0  0  0
  121.6669  107.5393  107.5275 H   0  0  0  0  0  0  0  0  0  0  0  0
  123.3620  107.4069  107.1237 H   0  0  0  0  0  0  0  0  0  0  0  0
  124.9902  106.4627  104.2230 H   0  0  0  0  0  0  0  0  0  0  0  0
  1  3  1  0  0  0  0
  1  5  2  0  0  0  0
  2  4  2  0  0  0  0
  2  5  1  0  0  0  0
  3  6  2  0  0  0  0
  4  6  1  0  0  0  0
  5  8  1  0  0  0  0
  6  9  1  0  0  0  0
  7  8  1  0  0  0  0
  7 11  1  0  0  0  0
  8 10  1  0  0  0  0
  9 12  1  0  0  0  0
  9 13  1  0  0  0  0
  1 14  1  0  0  0  0
  2 15  1  0  0  0  0
  3 16  1  0  0  0  0
  4 17  1  0  0  0  0
  7 18  1  0  0  0  0
  7 19  1  0  0  0  0
  8 20  1  0  0  0  0
  9 21  1  0  0  0  0
 10 22  1  0  0  0  0
 10 23  1  0  0  0  0
 11 24  1  0  0  0  0
M  END
> <FRED Chemgauss4 score>
-4.086218

$$$$
C70277932	P108339420
  -OEChem-05182014473D

 45 46  0     1  0  0  0  0  0999 V2000
  122.8073  104.6249  103.4752 C   0  0  0  0  0  0  0  0  0  0  0  0
  121.0394  105.8445  104.5816 C   0  0  0  0  0  0  0  0  0  0  0  0
  121.9163  104.2432  102.4722 C   0  0  0  0  0  0  0  0  0  0  0  0
  120.1484  105.4628  103.5786 C   0  0  0  0  0  0  0  0  0  0  0  0
  122.3688  105.4255  104.5300 C   0  0  0  0  0  0  0  0  0  0  0  0
  120.5869  104.6622  102.5239 C   0  0  0  0  0  0  0  0  0  0  0  0
  122.3847  104.9482  107.7021 C   0  0  0  0  0  0  0  0  0  0  0  0
  122.1981  106.3721  108.2090 C   0  0  0  0  0  0  0  0  0  0  0  0
  123.3463  105.8449  105.6316 C   0  0  1  0  0  0  0  0  0  0  0  0
  123.0683  107.2754  106.1691 C   0  0  2  0  0  0  0  0  0  0  0  0
  119.5071  102.7024  101.3667 C   0  0  0  0  0  0  0  0  0  0  0  0
  120.1075  104.7637  100.0527 C   0  0  0  0  0  0  0  0  0  0  0  0
  118.1721  104.7854  101.6132 C   0  0  0  0  0  0  0  0  0  0  0  0
  123.8147  103.5319  106.3565 C   0  0  0  0  0  0  0  0  0  0  0  0
  124.3199  107.9412  106.7502 C   0  0  0  0  0  0  0  0  0  0  0  0
  119.6352  104.2551  101.4501 C   0  0  0  0  0  0  0  0  0  0  0  0
  123.4971  104.8974  106.7557 N   0  0  2  0  0  0  0  0  0  0  0  0
  125.1261  108.4535  105.6944 N   0  0  0  0  0  0  0  0  0  0  0  0
  122.0070  107.2860  107.1328 O   0  0  0  0  0  0  0  0  0  0  0  0
  123.8412  104.2932  103.4272 H   0  0  0  0  0  0  0  0  0  0  0  0
  120.6896  106.4694  105.3993 H   0  0  0  0  0  0  0  0  0  0  0  0
  122.2670  103.6206  101.6535 H   0  0  0  0  0  0  0  0  0  0  0  0
  119.1142  105.7935  103.6266 H   0  0  0  0  0  0  0  0  0  0  0  0
  122.5769  104.2855  108.5543 H   0  0  0  0  0  0  0  0  0  0  0  0
  121.4565  104.6259  107.2193 H   0  0  0  0  0  0  0  0  0  0  0  0
  121.3535  106.4478  108.9165 H   0  0  0  0  0  0  0  0  0  0  0  0
  123.0978  106.6914  108.7587 H   0  0  0  0  0  0  0  0  0  0  0  0
  124.3833  105.8982  105.1182 H   0  0  0  0  0  0  0  0  0  0  0  0
  122.7318  107.9267  105.3015 H   0  0  0  0  0  0  0  0  0  0  0  0
  118.8123  102.3761  100.5840 H   0  0  0  0  0  0  0  0  0  0  0  0
  120.4728  102.2308  101.1541 H   0  0  0  0  0  0  0  0  0  0  0  0
  119.1474  102.2998  102.3211 H   0  0  0  0  0  0  0  0  0  0  0  0
  119.4110  104.4666   99.2611 H   0  0  0  0  0  0  0  0  0  0  0  0
  120.1970  105.8554  100.0073 H   0  0  0  0  0  0  0  0  0  0  0  0
  121.0873  104.3382   99.8056 H   0  0  0  0  0  0  0  0  0  0  0  0
  117.5116  104.4599  100.8004 H   0  0  0  0  0  0  0  0  0  0  0  0
  117.7296  104.4273  102.5501 H   0  0  0  0  0  0  0  0  0  0  0  0
  118.1535  105.8815  101.6234 H   0  0  0  0  0  0  0  0  0  0  0  0
  124.6489  103.5314  105.6502 H   0  0  0  0  0  0  0  0  0  0  0  0
  122.9484  103.0668  105.8783 H   0  0  0  0  0  0  0  0  0  0  0  0
  124.0934  102.9377  107.2309 H   0  0  0  0  0  0  0  0  0  0  0  0
  124.8804  107.2003  107.3038 H   0  0  0  0  0  0  0  0  0  0  0  0
  124.0168  108.7529  107.3970 H   0  0  0  0  0  0  0  0  0  0  0  0
  125.1895  107.9493  104.8162 H   0  0  0  0  0  0  0  0  0  0  0  0
  125.7894  109.1985  105.8807 H   0  0  0  0  0  0  0  0  0  0  0  0
  1  3  2  0  0  0  0
  1  5  1  0  0  0  0
  2  4  1  0  0  0  0
  2  5  2  0  0  0  0
  3  6  1  0  0  0  0
  4  6  2  0  0  0  0
  5  9  1  0  0  0  0
  6 16  1  0  0  0  0
  7  8  1  0  0  0  0
  7 17  1  0  0  0  0
  8 19  1  0  0  0  0
  9 10  1  0  0  0  0
  9 17  1  0  0  0  0
 10 15  1  0  0  0  0
 10 19  1  0  0  0  0
 11 16  1  0  0  0  0
 12 16  1  0  0  0  0
 13 16  1  0  0  0  0
 14 17  1  0  0  0  0
 15 18  1  0  0  0  0
  1 20  1  0  0  0  0
  2 21  1  0  0  0  0
  3 22  1  0  0  0  0
  4 23  1  0  0  0  0
  7 24  1  0  0  0  0
  7 25  1  0  0  0  0
  8 26  1  0  0  0  0
  8 27  1  0  0  0  0
  9 28  1  0  0  0  0
 10 29  1  0  0  0  0
 11 30  1  0  0  0  0
 11 31  1  0  0  0  0
 11 32  1  0  0  0  0
 12 33  1  0  0  0  0
 12 34  1  0  0  0  0
 12 35  1  0  0  0  0
 13 36  1  0  0  0  0
 13 37  1  0  0  0  0
 13 38  1  0  0  0  0
 14 39  1  0  0  0  0
 14 40  1  0  0  0  0
 14 41  1  0  0  0  0
 15 42  1  0  0  0  0
 15 43  1  0  0  0  0
 18 44  1  0  0  0  0
 18 45  1  0  0  0  0
M  END
> <FRED Chemgauss4 score>
-4.044973

$$$$
C43258832	P65426456
  -OEChem-05182014473D

 42 43  0     1  0  0  0  0  0999 V2000
  119.6114  107.2871  107.8958 C   0  0  0  0  0  0  0  0  0  0  0  0
  118.3245  107.8938  107.9719 C   0  0  0  0  0  0  0  0  0  0  0  0
  120.3926  107.8523  106.9120 C   0  0  0  0  0  0  0  0  0  0  0  0
  118.1712  108.9000  107.0434 C   0  0  0  0  0  0  0  0  0  0  0  0
  126.1242  105.7936  108.0597 C   0  0  0  0  0  0  0  0  0  0  0  0
  123.3969  107.7137  109.9309 C   0  0  0  0  0  0  0  0  0  0  0  0
  124.7993  107.2226  109.5895 C   0  0  0  0  0  0  0  0  0  0  0  0
  122.6412  108.1554  108.6768 C   0  0  0  0  0  0  0  0  0  0  0  0
  123.9389  106.6520  107.2851 C   0  0  0  0  0  0  0  0  0  0  0  0
  124.7383  106.1579  108.4960 C   0  0  1  0  0  0  0  0  0  0  0  0
  121.2571  104.0016  104.7561 C   0  0  0  0  0  0  0  0  0  0  0  0
  121.2249  105.0877  105.8256 C   0  0  0  0  0  0  0  0  0  0  0  0
  121.8184  107.4952  106.5111 C   0  0  2  0  0  0  0  0  0  0  0  0
  121.8955  106.4121  105.3926 C   0  0  2  0  0  0  0  0  0  0  0  0
  122.5883  107.0753  107.6819 N   0  0  2  0  0  0  0  0  0  0  0  0
  126.9091  105.2897  109.0697 N   0  0  0  0  0  0  0  0  0  0  0  0
  121.2581  106.9321  104.1748 N   0  0  0  0  0  0  0  0  0  0  0  0
  126.4983  105.9255  106.8969 O   0  0  0  0  0  0  0  0  0  0  0  0
  119.5749  109.1093  106.0852 S   0  0  0  0  0  0  0  0  0  0  0  0
  116.5961  109.9411  106.8368 Br  0  0  0  0  0  0  0  0  0  0  0  0
  119.9434  106.4769  108.5326 H   0  0  0  0  0  0  0  0  0  0  0  0
  117.5565  107.5996  108.6764 H   0  0  0  0  0  0  0  0  0  0  0  0
  122.8405  106.9119  110.4329 H   0  0  0  0  0  0  0  0  0  0  0  0
  123.4601  108.5487  110.6379 H   0  0  0  0  0  0  0  0  0  0  0  0
  125.4129  108.0710  109.2585 H   0  0  0  0  0  0  0  0  0  0  0  0
  125.2843  106.8209  110.4872 H   0  0  0  0  0  0  0  0  0  0  0  0
  121.6235  108.4368  108.9735 H   0  0  0  0  0  0  0  0  0  0  0  0
  123.1177  109.0509  108.2566 H   0  0  0  0  0  0  0  0  0  0  0  0
  124.4728  107.4727  106.7855 H   0  0  0  0  0  0  0  0  0  0  0  0
  123.8706  105.8332  106.5569 H   0  0  0  0  0  0  0  0  0  0  0  0
  124.2712  105.2481  108.8953 H   0  0  0  0  0  0  0  0  0  0  0  0
  120.7607  104.3377  103.8404 H   0  0  0  0  0  0  0  0  0  0  0  0
  122.2940  103.7534  104.5070 H   0  0  0  0  0  0  0  0  0  0  0  0
  120.7734  103.0820  105.0981 H   0  0  0  0  0  0  0  0  0  0  0  0
  121.7351  104.6889  106.7102 H   0  0  0  0  0  0  0  0  0  0  0  0
  120.1833  105.2691  106.1195 H   0  0  0  0  0  0  0  0  0  0  0  0
  122.3071  108.4021  106.1295 H   0  0  0  0  0  0  0  0  0  0  0  0
  122.9465  106.2047  105.1547 H   0  0  0  0  0  0  0  0  0  0  0  0
  126.5111  105.2039  109.9991 H   0  0  0  0  0  0  0  0  0  0  0  0
  127.8707  105.0000  108.9230 H   0  0  0  0  0  0  0  0  0  0  0  0
  120.9339  106.2722  103.5079 H   0  0  0  0  0  0  0  0  0  0  0  0
  121.3618  107.8997  103.9790 H   0  0  0  0  0  0  0  0  0  0  0  0
  1  2  1  0  0  0  0
  1  3  2  0  0  0  0
  2  4  2  0  0  0  0
  3 13  1  0  0  0  0
  3 19  1  0  0  0  0
  4 19  1  0  0  0  0
  4 20  1  0  0  0  0
  5 10  1  0  0  0  0
  5 16  1  0  0  0  0
  5 18  2  0  0  0  0
  6  7  1  0  0  0  0
  6  8  1  0  0  0  0
  7 10  1  0  0  0  0
  8 15  1  0  0  0  0
  9 10  1  0  0  0  0
  9 15  1  0  0  0  0
 11 12  1  0  0  0  0
 12 14  1  0  0  0  0
 13 14  1  0  0  0  0
 13 15  1  0  0  0  0
 14 17  1  0  0  0  0
  1 21  1  0  0  0  0
  2 22  1  0  0  0  0
  6 23  1  0  0  0  0
  6 24  1  0  0  0  0
  7 25  1  0  0  0  0
  7 26  1  0  0  0  0
  8 27  1  0  0  0  0
  8 28  1  0  0  0  0
  9 29  1  0  0  0  0
  9 30  1  0  0  0  0
 10 31  1  0  0  0  0
 11 32  1  0  0  0  0
 11 33  1  0  0  0  0
 11 34  1  0  0  0  0
 12 35  1  0  0  0  0
 12 36  1  0  0  0  0
 13 37  1  0  0  0  0
 14 38  1  0  0  0  0
 16 39  1  0  0  0  0
 16 40  1  0  0  0  0
 17 41  1  0  0  0  0
 17 42  1  0  0  0  0
M  END
> <FRED Chemgauss4 score>
-4.041480

$$$$
C12397092	P150528836
  -OEChem-05182014473D

 13 13  0     1  0  0  0  0  0999 V2000
  122.8618  107.0119  105.8084 C   0  0  0  0  0  0  0  0  0  0  0  0
  124.6257  107.6673  107.0367 C   0  0  0  0  0  0  0  0  0  0  0  0
  124.3213  107.2158  105.6427 C   0  0  2  0  0  0  0  0  0  0  0  0
  122.4367  107.2938  106.9950 N   0  0  0  0  0  0  0  0  0  0  0  0
  123.5558  107.7117  107.7774 N   0  0  0  0  0  0  0  0  0  0  0  0
  125.9055  107.9645  107.4077 N   0  0  0  0  0  0  0  0  0  0  0  0
  124.5319  108.3116  104.7187 N   0  0  0  0  0  0  0  0  0  0  0  0
  122.2263  106.6495  104.9888 H   0  0  0  0  0  0  0  0  0  0  0  0
  124.8390  106.2954  105.3686 H   0  0  0  0  0  0  0  0  0  0  0  0
  126.6307  107.8742  106.7306 H   0  0  0  0  0  0  0  0  0  0  0  0
  126.0733  108.2622  108.3435 H   0  0  0  0  0  0  0  0  0  0  0  0
  123.9648  108.3602  103.8935 H   0  0  0  0  0  0  0  0  0  0  0  0
  125.3590  108.8698  104.8157 H   0  0  0  0  0  0  0  0  0  0  0  0
  1  3  1  0  0  0  0
  1  4  2  0  0  0  0
  2  3  1  0  0  0  0
  2  5  2  0  0  0  0
  2  6  1  0  0  0  0
  3  7  1  0  0  0  0
  4  5  1  0  0  0  0
  1  8  1  0  0  0  0
  3  9  1  0  0  0  0
  6 10  1  0  0  0  0
  6 11  1  0  0  0  0
  7 12  1  0  0  0  0
  7 13  1  0  0  0  0
M  END
> <FRED Chemgauss4 score>
-4.011681

$$$$
C59506286	P90579909
  -OEChem-05182014473D

 17 16  0     0  0  0  0  0  0999 V2000
  123.1062  106.0048  106.5816 C   0  0  0  0  0  0  0  0  0  0  0  0
  125.4946  105.2181  106.8719 C   0  0  0  0  0  0  0  0  0  0  0  0
  125.9827  105.7716  108.1983 C   0  0  0  0  0  0  0  0  0  0  0  0
  121.3925  104.7881  107.7714 N   0  0  0  0  0  0  0  0  0  0  0  0
  124.4655  106.0858  106.3318 N   0  0  0  0  0  0  0  0  0  0  0  0
  122.7188  104.9873  107.4333 N   0  0  0  0  0  0  0  0  0  0  0  0
  126.5505  107.0589  107.9925 O   0  0  0  0  0  0  0  0  0  0  0  0
  121.9341  107.0249  105.9418 S   0  0  0  0  0  0  0  0  0  0  0  0
  126.3093  105.1575  106.1433 H   0  0  0  0  0  0  0  0  0  0  0  0
  125.0631  104.2222  107.0105 H   0  0  0  0  0  0  0  0  0  0  0  0
  126.7599  105.1217  108.6123 H   0  0  0  0  0  0  0  0  0  0  0  0
  125.1666  105.8584  108.9230 H   0  0  0  0  0  0  0  0  0  0  0  0
  121.2650  103.7836  107.8878 H   0  0  0  0  0  0  0  0  0  0  0  0
  120.8385  105.0500  106.9572 H   0  0  0  0  0  0  0  0  0  0  0  0
  124.7735  106.8289  105.7122 H   0  0  0  0  0  0  0  0  0  0  0  0
  123.4066  104.3566  107.8326 H   0  0  0  0  0  0  0  0  0  0  0  0
  126.8483  107.3750  108.8607 H   0  0  0  0  0  0  0  0  0  0  0  0
  1  5  1  0  0  0  0
  1  6  1  0  0  0  0
  1  8  2  0  0  0  0
  2  3  1  0  0  0  0
  2  5  1  0  0  0  0
  3  7  1  0  0  0  0
  4  6  1  0  0  0  0
  2  9  1  0  0  0  0
  2 10  1  0  0  0  0
  3 11  1  0  0  0  0
  3 12  1  0  0  0  0
  4 13  1  0  0  0  0
  4 14  1  0  0  0  0
  5 15  1  0  0  0  0
  6 16  1  0  0  0  0
  7 17  1  0  0  0  0
M  END
> <FRED Chemgauss4 score>
-4.005735

$$$$
C83651566	P130859537
  -OEChem-05182014473D

 17 17  0     0  0  0  0  0  0999 V2000
  121.4370  105.7587  104.2118 C   0  0  0  0  0  0  0  0  0  0  0  0
  122.3795  106.2679  106.1059 C   0  0  0  0  0  0  0  0  0  0  0  0
  125.3172  107.7714  106.4341 C   0  0  0  0  0  0  0  0  0  0  0  0
  123.9008  108.0857  106.8852 C   0  0  0  0  0  0  0  0  0  0  0  0
  122.2692  106.6589  104.8553 N   0  0  0  0  0  0  0  0  0  0  0  0
  120.9103  104.7258  104.8694 N   0  0  0  0  0  0  0  0  0  0  0  0
  125.3433  107.0540  105.1878 N   0  0  0  0  0  0  0  0  0  0  0  0
  123.1257  106.8932  107.0967 N   0  0  0  0  0  0  0  0  0  0  0  0
  121.4791  104.8456  106.4388 S   0  0  0  0  0  0  0  0  0  0  0  0
  121.2035  105.8847  103.1639 H   0  0  0  0  0  0  0  0  0  0  0  0
  125.8459  107.1615  107.1736 H   0  0  0  0  0  0  0  0  0  0  0  0
  125.8780  108.6989  106.2825 H   0  0  0  0  0  0  0  0  0  0  0  0
  123.9175  108.6305  107.8342 H   0  0  0  0  0  0  0  0  0  0  0  0
  123.3723  108.6946  106.1447 H   0  0  0  0  0  0  0  0  0  0  0  0
  124.6543  106.3387  105.0184 H   0  0  0  0  0  0  0  0  0  0  0  0
  126.1554  107.1274  104.5959 H   0  0  0  0  0  0  0  0  0  0  0  0
  123.1211  106.4780  108.0248 H   0  0  0  0  0  0  0  0  0  0  0  0
  1  5  1  0  0  0  0
  1  6  2  0  0  0  0
  2  5  2  0  0  0  0
  2  8  1  0  0  0  0
  2  9  1  0  0  0  0
  3  4  1  0  0  0  0
  3  7  1  0  0  0  0
  4  8  1  0  0  0  0
  6  9  1  0  0  0  0
  1 10  1  0  0  0  0
  3 11  1  0  0  0  0
  3 12  1  0  0  0  0
  4 13  1  0  0  0  0
  4 14  1  0  0  0  0
  7 15  1  0  0  0  0
  7 16  1  0  0  0  0
  8 17  1  0  0  0  0
M  END
> <FRED Chemgauss4 score>
-4.004433

$$$$
C71297163	P110220857
  -OEChem-05182014473D

 56 60  0     1  0  0  0  0  0999 V2000
  117.0144  106.3142  103.9340 C   0  0  0  0  0  0  0  0  0  0  0  0
  117.4448  105.1445  104.4301 C   0  0  0  0  0  0  0  0  0  0  0  0
  117.3982  108.2700  106.1427 C   0  0  0  0  0  0  0  0  0  0  0  0
  120.3354  106.2856  106.5927 C   0  0  0  0  0  0  0  0  0  0  0  0
  116.6116  111.9030  107.0220 C   0  0  0  0  0  0  0  0  0  0  0  0
  116.4583  110.8847  108.1124 C   0  0  0  0  0  0  0  0  0  0  0  0
  119.2996  106.2662  103.6425 C   0  0  0  0  0  0  0  0  0  0  0  0
  122.4026  105.3035  108.6205 C   0  0  0  0  0  0  0  0  0  0  0  0
  124.8911  107.6400  107.3563 C   0  0  0  0  0  0  0  0  0  0  0  0
  125.9137  106.6678  106.7388 C   0  0  0  0  0  0  0  0  0  0  0  0
  124.8003  104.7860  107.8101 C   0  0  0  0  0  0  0  0  0  0  0  0
  122.5620  107.7032  108.1735 C   0  0  0  0  0  0  0  0  0  0  0  0
  118.1872  107.2717  103.9551 C   0  0  2  0  0  0  0  0  0  0  0  0
  118.9023  105.3230  104.7883 C   0  0  1  0  0  0  0  0  0  0  0  0
  118.5451  107.6318  105.4198 C   0  0  2  0  0  0  0  0  0  0  0  0
  118.9563  106.2577  106.0220 C   0  0  2  0  0  0  0  0  0  0  0  0
  123.8369  105.7771  108.4573 C   0  0  1  0  0  0  0  0  0  0  0  0
  116.3530  110.4630  106.6723 C   0  0  0  0  0  0  0  0  0  0  0  0
  121.6098  106.6178  108.7021 C   0  0  1  0  0  0  0  0  0  0  0  0
  126.9321  105.5964  108.6686 C   0  0  0  0  0  0  0  0  0  0  0  0
  123.6421  106.9270  107.5752 N   0  0  2  0  0  0  0  0  0  0  0  0
  126.0982  105.4070  107.4828 N   0  0  2  0  0  0  0  0  0  0  0  0
  117.3727  109.6486  106.0512 N   0  0  0  0  0  0  0  0  0  0  0  0
  120.3830  106.5476  107.9520 N   0  0  0  0  0  0  0  0  0  0  0  0
  116.5928  107.5651  106.7395 O   0  0  0  0  0  0  0  0  0  0  0  0
  121.2966  106.0832  105.8601 O   0  0  0  0  0  0  0  0  0  0  0  0
  116.0084  106.5478  103.6245 H   0  0  0  0  0  0  0  0  0  0  0  0
  116.8501  104.2611  104.5979 H   0  0  0  0  0  0  0  0  0  0  0  0
  115.8106  112.6193  106.8859 H   0  0  0  0  0  0  0  0  0  0  0  0
  117.6031  112.2969  106.8352 H   0  0  0  0  0  0  0  0  0  0  0  0
  117.3464  110.5931  108.6593 H   0  0  0  0  0  0  0  0  0  0  0  0
  115.5544  110.9175  108.7082 H   0  0  0  0  0  0  0  0  0  0  0  0
  119.2102  105.8077  102.6488 H   0  0  0  0  0  0  0  0  0  0  0  0
  120.3063  106.6850  103.7471 H   0  0  0  0  0  0  0  0  0  0  0  0
  122.0819  104.6960  107.7648 H   0  0  0  0  0  0  0  0  0  0  0  0
  122.2737  104.7003  109.5248 H   0  0  0  0  0  0  0  0  0  0  0  0
  125.2873  108.0523  108.2927 H   0  0  0  0  0  0  0  0  0  0  0  0
  124.7326  108.4755  106.6659 H   0  0  0  0  0  0  0  0  0  0  0  0
  125.6140  106.4492  105.6919 H   0  0  0  0  0  0  0  0  0  0  0  0
  126.8860  107.1945  106.6675 H   0  0  0  0  0  0  0  0  0  0  0  0
  124.9591  103.9384  108.5083 H   0  0  0  0  0  0  0  0  0  0  0  0
  124.3439  104.3410  106.8985 H   0  0  0  0  0  0  0  0  0  0  0  0
  122.0916  108.3727  107.4456 H   0  0  0  0  0  0  0  0  0  0  0  0
  122.9288  108.3057  109.0145 H   0  0  0  0  0  0  0  0  0  0  0  0
  118.1079  108.1082  103.2597 H   0  0  0  0  0  0  0  0  0  0  0  0
  119.4843  104.4015  104.8402 H   0  0  0  0  0  0  0  0  0  0  0  0
  119.3790  108.3446  105.4358 H   0  0  0  0  0  0  0  0  0  0  0  0
  118.2759  105.9202  106.8160 H   0  0  0  0  0  0  0  0  0  0  0  0
  124.2273  106.0921  109.4352 H   0  0  0  0  0  0  0  0  0  0  0  0
  115.3603  110.2223  106.3076 H   0  0  0  0  0  0  0  0  0  0  0  0
  121.3363  106.8373  109.7414 H   0  0  0  0  0  0  0  0  0  0  0  0
  127.0517  104.6483  109.1992 H   0  0  0  0  0  0  0  0  0  0  0  0
  126.4699  106.3217  109.3438 H   0  0  0  0  0  0  0  0  0  0  0  0
  127.9201  105.9657  108.3808 H   0  0  0  0  0  0  0  0  0  0  0  0
  118.1056  110.1116  105.5222 H   0  0  0  0  0  0  0  0  0  0  0  0
  119.5053  106.6982  108.4460 H   0  0  0  0  0  0  0  0  0  0  0  0
  1  2  2  0  0  0  0
  1 13  1  0  0  0  0
  2 14  1  0  0  0  0
  3 15  1  0  0  0  0
  3 23  1  0  0  0  0
  3 25  2  0  0  0  0
  4 16  1  0  0  0  0
  4 24  1  0  0  0  0
  4 26  2  0  0  0  0
  5  6  1  0  0  0  0
  5 18  1  0  0  0  0
  6 18  1  0  0  0  0
  7 13  1  0  0  0  0
  7 14  1  0  0  0  0
  8 17  1  0  0  0  0
  8 19  1  0  0  0  0
  9 10  1  0  0  0  0
  9 21  1  0  0  0  0
 10 22  1  0  0  0  0
 11 17  1  0  0  0  0
 11 22  1  0  0  0  0
 12 19  1  0  0  0  0
 12 21  1  0  0  0  0
 13 15  1  0  0  0  0
 14 16  1  0  0  0  0
 15 16  1  0  0  0  0
 17 21  1  0  0  0  0
 18 23  1  0  0  0  0
 19 24  1  0  0  0  0
 20 22  1  0  0  0  0
  1 27  1  0  0  0  0
  2 28  1  0  0  0  0
  5 29  1  0  0  0  0
  5 30  1  0  0  0  0
  6 31  1  0  0  0  0
  6 32  1  0  0  0  0
  7 33  1  0  0  0  0
  7 34  1  0  0  0  0
  8 35  1  0  0  0  0
  8 36  1  0  0  0  0
  9 37  1  0  0  0  0
  9 38  1  0  0  0  0
 10 39  1  0  0  0  0
 10 40  1  0  0  0  0
 11 41  1  0  0  0  0
 11 42  1  0  0  0  0
 12 43  1  0  0  0  0
 12 44  1  0  0  0  0
 13 45  1  0  0  0  0
 14 46  1  0  0  0  0
 15 47  1  0  0  0  0
 16 48  1  0  0  0  0
 17 49  1  0  0  0  0
 18 50  1  0  0  0  0
 19 51  1  0  0  0  0
 20 52  1  0  0  0  0
 20 53  1  0  0  0  0
 20 54  1  0  0  0  0
 23 55  1  0  0  0  0
 24 56  1  0  0  0  0
M  END
> <FRED Chemgauss4 score>
-4.003293

$$$$
C87395422	P136737161
  -OEChem-05182014473D

 25 26  0     1  0  0  0  0  0999 V2000
  117.0109  106.0816  107.0011 C   0  0  0  0  0  0  0  0  0  0  0  0
  125.0665  106.2216  106.3293 C   0  0  0  0  0  0  0  0  0  0  0  0
  117.3500  106.1443  105.6658 C   0  0  0  0  0  0  0  0  0  0  0  0
  123.1068  106.6719  105.6552 C   0  0  0  0  0  0  0  0  0  0  0  0
  119.3667  105.9724  106.5103 C   0  0  0  0  0  0  0  0  0  0  0  0
  116.4025  106.2703  104.5407 C   0  0  0  0  0  0  0  0  0  0  0  0
  120.8715  105.8773  106.6086 C   0  0  0  0  0  0  0  0  0  0  0  0
  121.5979  106.7019  105.5293 C   0  0  1  0  0  0  0  0  0  0  0  0
  123.9447  107.3631  104.8578 N   0  5  0  0  0  0  0  0  0  0  0  0
  123.7752  105.9594  106.5720 N   0  0  0  0  0  0  0  0  0  0  0  0
  125.2131  107.0711  105.2936 N   0  0  0  0  0  0  0  0  0  0  0  0
  118.7004  106.0822  105.3824 N   0  0  0  0  0  0  0  0  0  0  0  0
  121.0560  108.0990  105.5847 N   0  3  0  0  0  0  0  0  0  0  0  0
  118.4326  105.9371  107.9495 S   0  0  0  0  0  0  0  0  0  0  0  0
  116.0297  106.1118  107.4536 H   0  0  0  0  0  0  0  0  0  0  0  0
  125.8894  105.8039  106.8909 H   0  0  0  0  0  0  0  0  0  0  0  0
  116.2085  107.3287  104.3016 H   0  0  0  0  0  0  0  0  0  0  0  0
  116.7802  105.7836  103.6254 H   0  0  0  0  0  0  0  0  0  0  0  0
  115.4324  105.7931  104.7616 H   0  0  0  0  0  0  0  0  0  0  0  0
  121.1783  104.8238  106.5682 H   0  0  0  0  0  0  0  0  0  0  0  0
  121.1643  106.2275  107.6080 H   0  0  0  0  0  0  0  0  0  0  0  0
  121.3065  106.3431  104.5346 H   0  0  0  0  0  0  0  0  0  0  0  0
  121.7928  108.7508  105.8543 H   0  0  0  0  0  0  0  0  0  0  0  0
  120.3008  108.1550  106.2683 H   0  0  0  0  0  0  0  0  0  0  0  0
  120.6937  108.3714  104.6709 H   0  0  0  0  0  0  0  0  0  0  0  0
  1  3  2  0  0  0  0
  1 14  1  0  0  0  0
  2 10  1  0  0  0  0
  2 11  2  0  0  0  0
  3  6  1  0  0  0  0
  3 12  1  0  0  0  0
  4  8  1  0  0  0  0
  4  9  1  0  0  0  0
  4 10  2  0  0  0  0
  5  7  1  0  0  0  0
  5 12  2  0  0  0  0
  5 14  1  0  0  0  0
  7  8  1  0  0  0  0
  8 13  1  0  0  0  0
  9 11  1  0  0  0  0
  1 15  1  0  0  0  0
  2 16  1  0  0  0  0
  6 17  1  0  0  0  0
  6 18  1  0  0  0  0
  6 19  1  0  0  0  0
  7 20  1  0  0  0  0
  7 21  1  0  0  0  0
  8 22  1  0  0  0  0
 13 23  1  0  0  0  0
 13 24  1  0  0  0  0
 13 25  1  0  0  0  0
M  CHG  2   9  -1  13   1
M  END
> <FRED Chemgauss4 score>
-3.988235

$$$$
C82476686	P128888928
  -OEChem-05182014473D

 31 31  0     1  0  0  0  0  0999 V2000
  123.1218  107.9365  106.5744 C   0  0  0  0  0  0  0  0  0  0  0  0
  125.9960  105.1887  106.9724 C   0  0  0  0  0  0  0  0  0  0  0  0
  123.0127  107.7989  109.0661 C   0  0  0  0  0  0  0  0  0  0  0  0
  123.0383  106.2884  108.9211 C   0  0  0  0  0  0  0  0  0  0  0  0
  123.3347  106.4301  106.5032 C   0  0  2  0  0  0  0  0  0  0  0  0
  122.2139  104.2960  105.8532 C   0  0  0  0  0  0  0  0  0  0  0  0
  125.6760  105.8483  109.3955 C   0  0  0  0  0  0  0  0  0  0  0  0
  122.0304  105.7606  106.0620 C   0  0  0  0  0  0  0  0  0  0  0  0
  125.2606  106.0916  107.9512 C   0  0  2  0  0  0  0  0  0  0  0  0
  122.8256  108.4800  107.8036 N   0  0  0  0  0  0  0  0  0  0  0  0
  123.8284  105.8590  107.7661 N   0  0  1  0  0  0  0  0  0  0  0  0
  125.8621  103.8394  107.1648 N   0  0  0  0  0  0  0  0  0  0  0  0
  123.1273  108.6166  105.5452 O   0  0  0  0  0  0  0  0  0  0  0  0
  126.9284  105.8058  105.7262 S   0  0  0  0  0  0  0  0  0  0  0  0
  122.1884  108.1123  109.7190 H   0  0  0  0  0  0  0  0  0  0  0  0
  123.9465  108.1647  109.5078 H   0  0  0  0  0  0  0  0  0  0  0  0
  123.4219  105.8209  109.8569 H   0  0  0  0  0  0  0  0  0  0  0  0
  121.9852  105.9417  108.8323 H   0  0  0  0  0  0  0  0  0  0  0  0
  124.0802  106.2590  105.7019 H   0  0  0  0  0  0  0  0  0  0  0  0
  122.9779  104.1319  105.0842 H   0  0  0  0  0  0  0  0  0  0  0  0
  121.2840  103.8277  105.5133 H   0  0  0  0  0  0  0  0  0  0  0  0
  122.5483  103.8066  106.7741 H   0  0  0  0  0  0  0  0  0  0  0  0
  125.5124  104.8031  109.6778 H   0  0  0  0  0  0  0  0  0  0  0  0
  126.7381  106.0786  109.5339 H   0  0  0  0  0  0  0  0  0  0  0  0
  125.1154  106.4765  110.0962 H   0  0  0  0  0  0  0  0  0  0  0  0
  121.2717  105.9354  106.8259 H   0  0  0  0  0  0  0  0  0  0  0  0
  121.6926  106.2288  105.1367 H   0  0  0  0  0  0  0  0  0  0  0  0
  125.4376  107.1445  107.7036 H   0  0  0  0  0  0  0  0  0  0  0  0
  122.4491  109.4257  107.8276 H   0  0  0  0  0  0  0  0  0  0  0  0
  125.2989  103.4492  107.9131 H   0  0  0  0  0  0  0  0  0  0  0  0
  126.3184  103.1761  106.5474 H   0  0  0  0  0  0  0  0  0  0  0  0
  1  5  1  0  0  0  0
  1 10  1  0  0  0  0
  1 13  2  0  0  0  0
  2  9  1  0  0  0  0
  2 12  1  0  0  0  0
  2 14  2  0  0  0  0
  3  4  1  0  0  0  0
  3 10  1  0  0  0  0
  4 11  1  0  0  0  0
  5  8  1  0  0  0  0
  5 11  1  0  0  0  0
  6  8  1  0  0  0  0
  7  9  1  0  0  0  0
  9 11  1  0  0  0  0
  3 15  1  0  0  0  0
  3 16  1  0  0  0  0
  4 17  1  0  0  0  0
  4 18  1  0  0  0  0
  5 19  1  0  0  0  0
  6 20  1  0  0  0  0
  6 21  1  0  0  0  0
  6 22  1  0  0  0  0
  7 23  1  0  0  0  0
  7 24  1  0  0  0  0
  7 25  1  0  0  0  0
  8 26  1  0  0  0  0
  8 27  1  0  0  0  0
  9 28  1  0  0  0  0
 10 29  1  0  0  0  0
 12 30  1  0  0  0  0
 12 31  1  0  0  0  0
M  END
> <FRED Chemgauss4 score>
-3.969177

$$$$
C39053465	P59168638
  -OEChem-05182014473D

 14 14  0     0  0  0  0  0  0999 V2000
  122.9407  107.0180  107.0206 C   0  0  0  0  0  0  0  0  0  0  0  0
  123.5432  106.6399  105.8830 C   0  0  0  0  0  0  0  0  0  0  0  0
  123.6774  107.6286  108.1443 C   0  0  0  0  0  0  0  0  0  0  0  0
  125.7094  107.3979  106.7516 C   0  0  0  0  0  0  0  0  0  0  0  0
  124.9054  106.8352  105.7708 N   0  0  0  0  0  0  0  0  0  0  0  0
  125.0362  107.7730  107.9142 N   0  0  0  0  0  0  0  0  0  0  0  0
  122.8447  106.0748  104.8512 N   0  0  0  0  0  0  0  0  0  0  0  0
  123.1046  107.9654  109.1753 O   0  0  0  0  0  0  0  0  0  0  0  0
  126.9227  107.5549  106.6086 O   0  0  0  0  0  0  0  0  0  0  0  0
  121.6153  106.8653  107.2136 F   0  0  0  0  0  0  0  0  0  0  0  0
  125.3521  106.5453  104.9059 H   0  0  0  0  0  0  0  0  0  0  0  0
  125.5915  108.1886  108.6567 H   0  0  0  0  0  0  0  0  0  0  0  0
  121.8641  105.9455  104.9583 H   0  0  0  0  0  0  0  0  0  0  0  0
  123.3419  105.8130  104.0302 H   0  0  0  0  0  0  0  0  0  0  0  0
  1  2  2  0  0  0  0
  1  3  1  0  0  0  0
  1 10  1  0  0  0  0
  2  5  1  0  0  0  0
  2  7  1  0  0  0  0
  3  6  1  0  0  0  0
  3  8  2  0  0  0  0
  4  5  1  0  0  0  0
  4  6  1  0  0  0  0
  4  9  2  0  0  0  0
  5 11  1  0  0  0  0
  6 12  1  0  0  0  0
  7 13  1  0  0  0  0
  7 14  1  0  0  0  0
M  END
> <FRED Chemgauss4 score>
-3.967474

$$$$
C85169846	P133261998
  -OEChem-05182014473D

 34 34  0     1  0  0  0  0  0999 V2000
  122.9810  108.5526  107.8587 C   0  0  0  0  0  0  0  0  0  0  0  0
  122.6626  107.4936  109.6774 C   0  0  0  0  0  0  0  0  0  0  0  0
  123.0278  107.2205  107.5213 C   0  0  0  0  0  0  0  0  0  0  0  0
  121.4476  106.5019  102.9571 C   0  0  0  0  0  0  0  0  0  0  0  0
  121.4459  104.6109  104.6214 C   0  0  0  0  0  0  0  0  0  0  0  0
  122.7790  105.1239  108.8862 C   0  0  0  0  0  0  0  0  0  0  0  0
  120.8819  106.8559  105.9446 C   0  0  0  0  0  0  0  0  0  0  0  0
  124.6089  106.8503  105.5539 C   0  0  0  0  0  0  0  0  0  0  0  0
  123.2487  106.5236  106.1900 C   0  0  2  0  0  0  0  0  0  0  0  0
  122.1494  105.8766  104.1539 C   0  0  0  0  0  0  0  0  0  0  0  0
  122.7537  108.7159  109.2023 N   0  0  0  0  0  0  0  0  0  0  0  0
  122.8226  106.5545  108.6967 N   0  0  0  0  0  0  0  0  0  0  0  0
  124.6118  108.1401  104.9144 N   0  0  0  0  0  0  0  0  0  0  0  0
  122.1708  106.8403  105.2538 N   0  0  1  0  0  0  0  0  0  0  0  0
  123.0992  109.4042  107.2042 H   0  0  0  0  0  0  0  0  0  0  0  0
  122.4842  107.2298  110.7110 H   0  0  0  0  0  0  0  0  0  0  0  0
  120.4079  106.7457  103.1983 H   0  0  0  0  0  0  0  0  0  0  0  0
  121.9483  107.4221  102.6357 H   0  0  0  0  0  0  0  0  0  0  0  0
  121.4456  105.8137  102.1047 H   0  0  0  0  0  0  0  0  0  0  0  0
  120.4053  104.8222  104.8913 H   0  0  0  0  0  0  0  0  0  0  0  0
  121.9450  104.1892  105.5000 H   0  0  0  0  0  0  0  0  0  0  0  0
  121.4334  103.8465  103.8363 H   0  0  0  0  0  0  0  0  0  0  0  0
  121.7438  104.7978  108.7556 H   0  0  0  0  0  0  0  0  0  0  0  0
  123.4281  104.6393  108.1516 H   0  0  0  0  0  0  0  0  0  0  0  0
  123.1332  104.8816  109.8921 H   0  0  0  0  0  0  0  0  0  0  0  0
  120.0807  107.0931  105.2398 H   0  0  0  0  0  0  0  0  0  0  0  0
  120.8872  107.6086  106.7377 H   0  0  0  0  0  0  0  0  0  0  0  0
  120.6802  105.8783  106.3907 H   0  0  0  0  0  0  0  0  0  0  0  0
  125.3936  106.8826  106.3184 H   0  0  0  0  0  0  0  0  0  0  0  0
  124.9086  106.1120  104.8026 H   0  0  0  0  0  0  0  0  0  0  0  0
  123.2113  105.4394  106.3586 H   0  0  0  0  0  0  0  0  0  0  0  0
  123.1862  105.6414  103.8900 H   0  0  0  0  0  0  0  0  0  0  0  0
  125.2705  108.3182  104.1741 H   0  0  0  0  0  0  0  0  0  0  0  0
  124.1084  108.8999  105.3424 H   0  0  0  0  0  0  0  0  0  0  0  0
  1  3  2  0  0  0  0
  1 11  1  0  0  0  0
  2 11  2  0  0  0  0
  2 12  1  0  0  0  0
  3  9  1  0  0  0  0
  3 12  1  0  0  0  0
  4 10  1  0  0  0  0
  5 10  1  0  0  0  0
  6 12  1  0  0  0  0
  7 14  1  0  0  0  0
  8  9  1  0  0  0  0
  8 13  1  0  0  0  0
  9 14  1  0  0  0  0
 10 14  1  0  0  0  0
  1 15  1  0  0  0  0
  2 16  1  0  0  0  0
  4 17  1  0  0  0  0
  4 18  1  0  0  0  0
  4 19  1  0  0  0  0
  5 20  1  0  0  0  0
  5 21  1  0  0  0  0
  5 22  1  0  0  0  0
  6 23  1  0  0  0  0
  6 24  1  0  0  0  0
  6 25  1  0  0  0  0
  7 26  1  0  0  0  0
  7 27  1  0  0  0  0
  7 28  1  0  0  0  0
  8 29  1  0  0  0  0
  8 30  1  0  0  0  0
  9 31  1  0  0  0  0
 10 32  1  0  0  0  0
 13 33  1  0  0  0  0
 13 34  1  0  0  0  0
M  END
> <FRED Chemgauss4 score>
-3.954033

$$$$
C19519414	P150995912
  -OEChem-05182014473D

 27 27  0     0  0  0  0  0  0999 V2000
  120.6143  105.5317  107.2311 C   0  0  0  0  0  0  0  0  0  0  0  0
  124.6073  105.9517  106.5865 C   0  0  0  0  0  0  0  0  0  0  0  0
  124.2498  108.2949  107.4291 C   0  0  0  0  0  0  0  0  0  0  0  0
  123.2794  106.0704  105.8279 C   0  0  0  0  0  0  0  0  0  0  0  0
  122.9362  108.3302  106.6384 C   0  0  0  0  0  0  0  0  0  0  0  0
  125.2517  107.3174  106.8157 C   0  0  0  0  0  0  0  0  0  0  0  0
  121.7210  106.4814  107.6498 C   0  0  0  0  0  0  0  0  0  0  0  0
  119.4338  106.0519  107.0644 N   0  0  0  0  0  0  0  0  0  0  0  0
  122.3257  107.0109  106.4298 N   0  0  0  0  0  0  0  0  0  0  0  0
  120.9784  104.2160  107.0585 N   0  0  0  0  0  0  0  0  0  0  0  0
  125.7110  107.8209  105.5627 O   0  0  0  0  0  0  0  0  0  0  0  0
  119.4726  107.4252  107.3236 O   0  0  0  0  0  0  0  0  0  0  0  0
  124.4452  105.4518  107.5502 H   0  0  0  0  0  0  0  0  0  0  0  0
  125.2988  105.3025  106.0308 H   0  0  0  0  0  0  0  0  0  0  0  0
  124.6897  109.3013  107.4702 H   0  0  0  0  0  0  0  0  0  0  0  0
  124.0510  108.0171  108.4720 H   0  0  0  0  0  0  0  0  0  0  0  0
  123.5109  106.3888  104.7909 H   0  0  0  0  0  0  0  0  0  0  0  0
  122.8239  105.0611  105.7331 H   0  0  0  0  0  0  0  0  0  0  0  0
  122.2233  109.0130  107.1487 H   0  0  0  0  0  0  0  0  0  0  0  0
  123.1468  108.8007  105.6561 H   0  0  0  0  0  0  0  0  0  0  0  0
  126.1227  107.2086  107.4715 H   0  0  0  0  0  0  0  0  0  0  0  0
  122.4661  105.9532  108.2527 H   0  0  0  0  0  0  0  0  0  0  0  0
  121.3022  107.2974  108.2472 H   0  0  0  0  0  0  0  0  0  0  0  0
  121.9322  103.9004  107.2001 H   0  0  0  0  0  0  0  0  0  0  0  0
  120.2973  103.5193  106.7765 H   0  0  0  0  0  0  0  0  0  0  0  0
  126.3569  107.1803  105.2238 H   0  0  0  0  0  0  0  0  0  0  0  0
  118.5479  107.6797  107.1651 H   0  0  0  0  0  0  0  0  0  0  0  0
  1  7  1  0  0  0  0
  1  8  2  0  0  0  0
  1 10  1  0  0  0  0
  2  4  1  0  0  0  0
  2  6  1  0  0  0  0
  3  5  1  0  0  0  0
  3  6  1  0  0  0  0
  4  9  1  0  0  0  0
  5  9  1  0  0  0  0
  6 11  1  0  0  0  0
  7  9  1  0  0  0  0
  8 12  1  0  0  0  0
  2 13  1  0  0  0  0
  2 14  1  0  0  0  0
  3 15  1  0  0  0  0
  3 16  1  0  0  0  0
  4 17  1  0  0  0  0
  4 18  1  0  0  0  0
  5 19  1  0  0  0  0
  5 20  1  0  0  0  0
  6 21  1  0  0  0  0
  7 22  1  0  0  0  0
  7 23  1  0  0  0  0
 10 24  1  0  0  0  0
 10 25  1  0  0  0  0
 11 26  1  0  0  0  0
 12 27  1  0  0  0  0
M  END
> <FRED Chemgauss4 score>
-3.927066

$$$$
C02278807	P06824920
  -OEChem-05182014473D

 26 26  0     1  0  0  0  0  0999 V2000
  124.9182  106.5103  105.2829 C   0  0  0  0  0  0  0  0  0  0  0  0
  124.5671  106.1386  108.4268 C   0  0  0  0  0  0  0  0  0  0  0  0
  124.5329  104.1010  107.0875 C   0  0  0  0  0  0  0  0  0  0  0  0
  123.7906  106.2011  106.0932 C   0  0  0  0  0  0  0  0  0  0  0  0
  122.5310  106.6113  105.8248 C   0  0  0  0  0  0  0  0  0  0  0  0
  119.6723  107.2693  107.2716 C   0  0  0  0  0  0  0  0  0  0  0  0
  122.3432  105.2235  107.7599 C   0  0  1  0  0  0  0  0  0  0  0  0
  123.8603  105.3802  107.3787 C   0  0  0  0  0  0  0  0  0  0  0  0
  121.9733  105.5591  109.2029 C   0  0  0  0  0  0  0  0  0  0  0  0
  125.8378  106.7627  104.6223 N   0  0  0  0  0  0  0  0  0  0  0  0
  125.1235  106.7355  109.2516 N   0  0  0  0  0  0  0  0  0  0  0  0
  125.0622  103.0943  106.8582 N   0  0  0  0  0  0  0  0  0  0  0  0
  121.6882  106.1276  106.8165 N   0  0  2  0  0  0  0  0  0  0  0  0
  122.1427  107.3666  104.7553 N   0  0  0  0  0  0  0  0  0  0  0  0
  118.2985  107.1650  107.1480 N   0  0  0  0  0  0  0  0  0  0  0  0
  120.3208  106.1613  106.7610 N   0  0  0  0  0  0  0  0  0  0  0  0
  120.2221  108.2454  107.7803 O   0  0  0  0  0  0  0  0  0  0  0  0
  122.0025  104.1997  107.5474 H   0  0  0  0  0  0  0  0  0  0  0  0
  122.2994  106.5700  109.4423 H   0  0  0  0  0  0  0  0  0  0  0  0
  122.4580  104.8583  109.8809 H   0  0  0  0  0  0  0  0  0  0  0  0
  120.8942  105.4924  109.3327 H   0  0  0  0  0  0  0  0  0  0  0  0
  122.8349  107.6534  104.0990 H   0  0  0  0  0  0  0  0  0  0  0  0
  121.1800  107.6062  104.6663 H   0  0  0  0  0  0  0  0  0  0  0  0
  117.8640  106.3513  106.7258 H   0  0  0  0  0  0  0  0  0  0  0  0
  117.6830  107.9009  107.4779 H   0  0  0  0  0  0  0  0  0  0  0  0
  119.8635  105.3606  106.3438 H   0  0  0  0  0  0  0  0  0  0  0  0
  1  4  1  0  0  0  0
  1 10  3  0  0  0  0
  2  8  1  0  0  0  0
  2 11  3  0  0  0  0
  3  8  1  0  0  0  0
  3 12  3  0  0  0  0
  4  5  2  0  0  0  0
  4  8  1  0  0  0  0
  5 13  1  0  0  0  0
  5 14  1  0  0  0  0
  6 15  1  0  0  0  0
  6 16  1  0  0  0  0
  6 17  2  0  0  0  0
  7  8  1  0  0  0  0
  7  9  1  0  0  0  0
  7 13  1  0  0  0  0
 13 16  1  0  0  0  0
  7 18  1  0  0  0  0
  9 19  1  0  0  0  0
  9 20  1  0  0  0  0
  9 21  1  0  0  0  0
 14 22  1  0  0  0  0
 14 23  1  0  0  0  0
 15 24  1  0  0  0  0
 15 25  1  0  0  0  0
 16 26  1  0  0  0  0
M  END
> <FRED Chemgauss4 score>
-3.905125

$$$$
C54497591	P82017880
  -OEChem-05182014473D

 28 28  0     1  0  0  0  0  0999 V2000
  120.8164  108.2222  107.7492 C   0  0  0  0  0  0  0  0  0  0  0  0
  122.8003  107.7141  107.0314 C   0  0  0  0  0  0  0  0  0  0  0  0
  125.0424  106.1140  109.0680 C   0  0  0  0  0  0  0  0  0  0  0  0
  126.1281  105.7120  106.8497 C   0  0  0  0  0  0  0  0  0  0  0  0
  123.7652  105.0319  107.2171 C   0  0  0  0  0  0  0  0  0  0  0  0
  122.6757  108.6083  109.3820 C   0  0  0  0  0  0  0  0  0  0  0  0
  124.3130  107.5214  107.0061 C   0  0  1  0  0  0  0  0  0  0  0  0
  124.8113  106.1253  107.5439 C   0  0  0  0  0  0  0  0  0  0  0  0
  120.6892  107.7763  106.5198 N   0  0  0  0  0  0  0  0  0  0  0  0
  121.9514  107.4530  106.0631 N   0  0  0  0  0  0  0  0  0  0  0  0
  122.1289  108.2003  108.1120 N   0  0  0  0  0  0  0  0  0  0  0  0
  124.8493  107.8383  105.6715 N   0  0  0  0  0  0  0  0  0  0  0  0
  120.0209  108.5607  108.3975 H   0  0  0  0  0  0  0  0  0  0  0  0
  124.1396  106.4001  109.6174 H   0  0  0  0  0  0  0  0  0  0  0  0
  125.3281  105.1126  109.4120 H   0  0  0  0  0  0  0  0  0  0  0  0
  125.8503  106.7905  109.3624 H   0  0  0  0  0  0  0  0  0  0  0  0
  126.0148  105.7048  105.7592 H   0  0  0  0  0  0  0  0  0  0  0  0
  126.4447  104.7054  107.1422 H   0  0  0  0  0  0  0  0  0  0  0  0
  126.9380  106.4091  107.0923 H   0  0  0  0  0  0  0  0  0  0  0  0
  123.5585  104.9919  106.1418 H   0  0  0  0  0  0  0  0  0  0  0  0
  124.1212  104.0404  107.5210 H   0  0  0  0  0  0  0  0  0  0  0  0
  122.8181  105.2024  107.7393 H   0  0  0  0  0  0  0  0  0  0  0  0
  122.6876  107.7355  110.0401 H   0  0  0  0  0  0  0  0  0  0  0  0
  123.6896  108.9909  109.2359 H   0  0  0  0  0  0  0  0  0  0  0  0
  122.0519  109.4000  109.8063 H   0  0  0  0  0  0  0  0  0  0  0  0
  124.7388  108.2862  107.6715 H   0  0  0  0  0  0  0  0  0  0  0  0
  125.7544  107.4999  105.4509 H   0  0  0  0  0  0  0  0  0  0  0  0
  124.3789  108.5330  105.1437 H   0  0  0  0  0  0  0  0  0  0  0  0
  1  9  2  0  0  0  0
  1 11  1  0  0  0  0
  2  7  1  0  0  0  0
  2 10  2  0  0  0  0
  2 11  1  0  0  0  0
  3  8  1  0  0  0  0
  4  8  1  0  0  0  0
  5  8  1  0  0  0  0
  6 11  1  0  0  0  0
  7  8  1  0  0  0  0
  7 12  1  0  0  0  0
  9 10  1  0  0  0  0
  1 13  1  0  0  0  0
  3 14  1  0  0  0  0
  3 15  1  0  0  0  0
  3 16  1  0  0  0  0
  4 17  1  0  0  0  0
  4 18  1  0  0  0  0
  4 19  1  0  0  0  0
  5 20  1  0  0  0  0
  5 21  1  0  0  0  0
  5 22  1  0  0  0  0
  6 23  1  0  0  0  0
  6 24  1  0  0  0  0
  6 25  1  0  0  0  0
  7 26  1  0  0  0  0
 12 27  1  0  0  0  0
 12 28  1  0  0  0  0
M  END
> <FRED Chemgauss4 score>
-3.891195

$$$$
C85169106	P133261548
  -OEChem-05182014473D

 29 30  0     1  0  0  0  0  0999 V2000
  123.9118  107.2021  105.4016 C   0  0  0  0  0  0  0  0  0  0  0  0
  122.1838  106.1094  104.8098 C   0  0  0  0  0  0  0  0  0  0  0  0
  123.8274  106.1455  106.2774 C   0  0  0  0  0  0  0  0  0  0  0  0
  126.6385  105.8388  108.8656 C   0  0  0  0  0  0  0  0  0  0  0  0
  125.3527  105.8738  109.6900 C   0  0  0  0  0  0  0  0  0  0  0  0
  124.7014  105.7329  107.4467 C   0  0  1  0  0  0  0  0  0  0  0  0
  126.1987  106.0792  107.4212 C   0  0  2  0  0  0  0  0  0  0  0  0
  122.1854  104.2532  106.4859 C   0  0  0  0  0  0  0  0  0  0  0  0
  124.0111  107.6806  108.8218 C   0  0  0  0  0  0  0  0  0  0  0  0
  122.8856  107.1741  104.4908 N   0  0  0  0  0  0  0  0  0  0  0  0
  122.7153  105.4547  105.8860 N   0  0  0  0  0  0  0  0  0  0  0  0
  124.2544  106.2358  108.7749 N   0  0  2  0  0  0  0  0  0  0  0  0
  126.9631  105.2666  106.4844 N   0  0  0  0  0  0  0  0  0  0  0  0
  124.6584  107.9829  105.3787 H   0  0  0  0  0  0  0  0  0  0  0  0
  121.2914  105.7667  104.3039 H   0  0  0  0  0  0  0  0  0  0  0  0
  127.3556  106.6022  109.1898 H   0  0  0  0  0  0  0  0  0  0  0  0
  127.1224  104.8602  108.9843 H   0  0  0  0  0  0  0  0  0  0  0  0
  125.1970  104.8840  110.1498 H   0  0  0  0  0  0  0  0  0  0  0  0
  125.4233  106.6058  110.5082 H   0  0  0  0  0  0  0  0  0  0  0  0
  124.6138  104.5575  107.5010 H   0  0  0  0  0  0  0  0  0  0  0  0
  126.3492  107.1369  107.1747 H   0  0  0  0  0  0  0  0  0  0  0  0
  122.6452  103.3960  105.9872 H   0  0  0  0  0  0  0  0  0  0  0  0
  122.4203  104.2453  107.5539 H   0  0  0  0  0  0  0  0  0  0  0  0
  121.0995  104.2340  106.3580 H   0  0  0  0  0  0  0  0  0  0  0  0
  123.1968  107.9467  108.1429 H   0  0  0  0  0  0  0  0  0  0  0  0
  124.9108  108.2252  108.5227 H   0  0  0  0  0  0  0  0  0  0  0  0
  123.7378  107.9852  109.8356 H   0  0  0  0  0  0  0  0  0  0  0  0
  127.9328  105.1151  106.6709 H   0  0  0  0  0  0  0  0  0  0  0  0
  126.5564  105.0604  105.5955 H   0  0  0  0  0  0  0  0  0  0  0  0
  1  3  2  0  0  0  0
  1 10  1  0  0  0  0
  2 10  2  0  0  0  0
  2 11  1  0  0  0  0
  3  6  1  0  0  0  0
  3 11  1  0  0  0  0
  4  5  1  0  0  0  0
  4  7  1  0  0  0  0
  5 12  1  0  0  0  0
  6  7  1  0  0  0  0
  6 12  1  0  0  0  0
  7 13  1  0  0  0  0
  8 11  1  0  0  0  0
  9 12  1  0  0  0  0
  1 14  1  0  0  0  0
  2 15  1  0  0  0  0
  4 16  1  0  0  0  0
  4 17  1  0  0  0  0
  5 18  1  0  0  0  0
  5 19  1  0  0  0  0
  6 20  1  0  0  0  0
  7 21  1  0  0  0  0
  8 22  1  0  0  0  0
  8 23  1  0  0  0  0
  8 24  1  0  0  0  0
  9 25  1  0  0  0  0
  9 26  1  0  0  0  0
  9 27  1  0  0  0  0
 13 28  1  0  0  0  0
 13 29  1  0  0  0  0
M  END
> <FRED Chemgauss4 score>
-3.883475

$$$$
C75108405	P116956145
  -OEChem-05182014473D

 37 38  0     1  0  0  0  0  0999 V2000
  124.6065  105.9006  108.7949 C   0  0  0  0  0  0  0  0  0  0  0  0
  123.2502  106.1868  108.6392 C   0  0  0  0  0  0  0  0  0  0  0  0
  123.6338  106.7431  106.3196 C   0  0  0  0  0  0  0  0  0  0  0  0
  125.4764  106.0358  107.7129 C   0  0  0  0  0  0  0  0  0  0  0  0
  122.7638  106.6080  107.4016 C   0  0  0  0  0  0  0  0  0  0  0  0
  124.9901  106.4570  106.4753 C   0  0  0  0  0  0  0  0  0  0  0  0
  126.8853  105.7255  107.9228 C   0  0  0  0  0  0  0  0  0  0  0  0
  120.7290  107.3266  106.0888 C   0  0  0  0  0  0  0  0  0  0  0  0
  115.7632  110.0765  108.4359 C   0  0  0  0  0  0  0  0  0  0  0  0
  116.4967  110.9650  107.4435 C   0  0  0  0  0  0  0  0  0  0  0  0
  116.5531  107.8369  107.0103 C   0  0  0  0  0  0  0  0  0  0  0  0
  117.2896  108.7229  106.0045 C   0  0  2  0  0  0  0  0  0  0  0  0
  118.4240  107.9414  105.3417 C   0  0  0  0  0  0  0  0  0  0  0  0
  127.2718  105.3133  109.1930 N   0  0  0  0  0  0  0  0  0  0  0  0
  121.3884  106.8974  107.2440 N   0  0  0  0  0  0  0  0  0  0  0  0
  119.3517  107.5087  106.3311 N   0  0  0  0  0  0  0  0  0  0  0  0
  127.7145  105.8410  107.0057 O   0  0  0  0  0  0  0  0  0  0  0  0
  121.2366  107.5311  104.9887 O   0  0  0  0  0  0  0  0  0  0  0  0
  115.0356  108.6052  107.6566 S   0  0  0  0  0  0  0  0  0  0  0  0
  118.0157  110.1990  106.8045 S   0  0  0  0  0  0  0  0  0  0  0  0
  126.0339  106.6347  105.1113 Cl  0  0  0  0  0  0  0  0  0  0  0  0
  124.9734  105.5739  109.7645 H   0  0  0  0  0  0  0  0  0  0  0  0
  122.5810  106.0779  109.4889 H   0  0  0  0  0  0  0  0  0  0  0  0
  123.2489  107.0719  105.3565 H   0  0  0  0  0  0  0  0  0  0  0  0
  116.4146  109.7680  109.2610 H   0  0  0  0  0  0  0  0  0  0  0  0
  114.9380  110.6444  108.8787 H   0  0  0  0  0  0  0  0  0  0  0  0
  115.8527  111.2541  106.6054 H   0  0  0  0  0  0  0  0  0  0  0  0
  116.7940  111.8907  107.9477 H   0  0  0  0  0  0  0  0  0  0  0  0
  116.2428  106.9070  106.5205 H   0  0  0  0  0  0  0  0  0  0  0  0
  117.1968  107.5496  107.8500 H   0  0  0  0  0  0  0  0  0  0  0  0
  116.6068  109.0600  105.2154 H   0  0  0  0  0  0  0  0  0  0  0  0
  118.9258  108.5909  104.6375 H   0  0  0  0  0  0  0  0  0  0  0  0
  118.0081  107.0800  104.8378 H   0  0  0  0  0  0  0  0  0  0  0  0
  126.5742  105.2413  109.9258 H   0  0  0  0  0  0  0  0  0  0  0  0
  128.2379  105.0830  109.4019 H   0  0  0  0  0  0  0  0  0  0  0  0
  120.8137  106.7765  108.0743 H   0  0  0  0  0  0  0  0  0  0  0  0
  118.9980  107.3184  107.2745 H   0  0  0  0  0  0  0  0  0  0  0  0
  1  2  1  0  0  0  0
  1  4  2  0  0  0  0
  2  5  2  0  0  0  0
  3  5  1  0  0  0  0
  3  6  2  0  0  0  0
  4  6  1  0  0  0  0
  4  7  1  0  0  0  0
  5 15  1  0  0  0  0
  6 21  1  0  0  0  0
  7 14  1  0  0  0  0
  7 17  2  0  0  0  0
  8 15  1  0  0  0  0
  8 16  1  0  0  0  0
  8 18  2  0  0  0  0
  9 10  1  0  0  0  0
  9 19  1  0  0  0  0
 10 20  1  0  0  0  0
 11 12  1  0  0  0  0
 11 19  1  0  0  0  0
 12 13  1  0  0  0  0
 12 20  1  0  0  0  0
 13 16  1  0  0  0  0
  1 22  1  0  0  0  0
  2 23  1  0  0  0  0
  3 24  1  0  0  0  0
  9 25  1  0  0  0  0
  9 26  1  0  0  0  0
 10 27  1  0  0  0  0
 10 28  1  0  0  0  0
 11 29  1  0  0  0  0
 11 30  1  0  0  0  0
 12 31  1  0  0  0  0
 13 32  1  0  0  0  0
 13 33  1  0  0  0  0
 14 34  1  0  0  0  0
 14 35  1  0  0  0  0
 15 36  1  0  0  0  0
 16 37  1  0  0  0  0
M  END
> <FRED Chemgauss4 score>
-3.857958

$$$$
C84132545	P131645543
  -OEChem-05182014473D

 28 29  0     1  0  0  0  0  0999 V2000
  119.8631  107.4062  106.1206 C   0  0  0  0  0  0  0  0  0  0  0  0
  119.0107  106.7987  105.2097 C   0  0  0  0  0  0  0  0  0  0  0  0
  120.7207  105.8518  103.9299 C   0  0  0  0  0  0  0  0  0  0  0  0
  121.6604  106.4210  104.7899 C   0  0  0  0  0  0  0  0  0  0  0  0
  121.2086  107.1830  105.8625 C   0  0  0  0  0  0  0  0  0  0  0  0
  123.4170  107.0755  105.8098 C   0  0  0  0  0  0  0  0  0  0  0  0
  122.7206  107.6035  108.9324 C   0  0  0  0  0  0  0  0  0  0  0  0
  125.6014  106.0374  106.5572 C   0  0  0  0  0  0  0  0  0  0  0  0
  122.4194  108.4144  107.6836 C   0  0  0  0  0  0  0  0  0  0  0  0
  124.8141  107.3200  106.2243 C   0  0  1  0  0  0  0  0  0  0  0  0
  119.3966  106.0471  104.1490 N   0  0  0  0  0  0  0  0  0  0  0  0
  123.0342  106.3648  104.7725 N   0  0  0  0  0  0  0  0  0  0  0  0
  122.3532  107.5894  106.4983 N   0  0  0  0  0  0  0  0  0  0  0  0
  125.5769  108.0729  105.2353 N   0  0  0  0  0  0  0  0  0  0  0  0
  119.5069  107.9975  106.9532 H   0  0  0  0  0  0  0  0  0  0  0  0
  117.9352  106.9070  105.3168 H   0  0  0  0  0  0  0  0  0  0  0  0
  120.9863  105.2455  103.0732 H   0  0  0  0  0  0  0  0  0  0  0  0
  121.9548  106.8393  109.1022 H   0  0  0  0  0  0  0  0  0  0  0  0
  122.7519  108.2563  109.8102 H   0  0  0  0  0  0  0  0  0  0  0  0
  123.6869  107.0950  108.8501 H   0  0  0  0  0  0  0  0  0  0  0  0
  125.6073  105.3586  105.6974 H   0  0  0  0  0  0  0  0  0  0  0  0
  126.6415  106.2571  106.8232 H   0  0  0  0  0  0  0  0  0  0  0  0
  125.1582  105.5040  107.4057 H   0  0  0  0  0  0  0  0  0  0  0  0
  123.1907  109.1760  107.5222 H   0  0  0  0  0  0  0  0  0  0  0  0
  121.4618  108.9376  107.7845 H   0  0  0  0  0  0  0  0  0  0  0  0
  124.8515  107.9531  107.1344 H   0  0  0  0  0  0  0  0  0  0  0  0
  126.5707  107.9827  105.2385 H   0  0  0  0  0  0  0  0  0  0  0  0
  125.1099  108.7971  104.7320 H   0  0  0  0  0  0  0  0  0  0  0  0
  1  2  2  0  0  0  0
  1  5  1  0  0  0  0
  2 11  1  0  0  0  0
  3  4  1  0  0  0  0
  3 11  2  0  0  0  0
  4  5  2  0  0  0  0
  4 12  1  0  0  0  0
  5 13  1  0  0  0  0
  6 10  1  0  0  0  0
  6 12  2  0  0  0  0
  6 13  1  0  0  0  0
  7  9  1  0  0  0  0
  8 10  1  0  0  0  0
  9 13  1  0  0  0  0
 10 14  1  0  0  0  0
  1 15  1  0  0  0  0
  2 16  1  0  0  0  0
  3 17  1  0  0  0  0
  7 18  1  0  0  0  0
  7 19  1  0  0  0  0
  7 20  1  0  0  0  0
  8 21  1  0  0  0  0
  8 22  1  0  0  0  0
  8 23  1  0  0  0  0
  9 24  1  0  0  0  0
  9 25  1  0  0  0  0
 10 26  1  0  0  0  0
 14 27  1  0  0  0  0
 14 28  1  0  0  0  0
M  END
> <FRED Chemgauss4 score>
-3.843339

$$$$
C72297334	P112365902
  -OEChem-05182014473D

 23 24  0     1  0  0  0  0  0999 V2000
  123.9501  106.6193  106.2087 C   0  0  0  0  0  0  0  0  0  0  0  0
  121.9318  107.0359  106.5921 C   0  0  0  0  0  0  0  0  0  0  0  0
  125.8744  105.3733  107.9237 C   0  0  0  0  0  0  0  0  0  0  0  0
  126.0728  105.3279  106.4023 C   0  0  0  0  0  0  0  0  0  0  0  0
  124.3902  105.2856  108.2853 C   0  0  0  0  0  0  0  0  0  0  0  0
  125.3415  106.4841  105.6899 C   0  0  2  0  0  0  0  0  0  0  0  0
  120.5727  107.5560  106.4036 C   0  0  0  0  0  0  0  0  0  0  0  0
  122.9176  107.2268  105.6632 N   0  0  0  0  0  0  0  0  0  0  0  0
  122.2810  106.3461  107.6811 N   0  0  0  0  0  0  0  0  0  0  0  0
  123.5714  106.0988  107.4154 N   0  0  0  0  0  0  0  0  0  0  0  0
  126.0647  107.7415  105.8882 N   0  0  0  0  0  0  0  0  0  0  0  0
  126.4182  104.5503  108.4005 H   0  0  0  0  0  0  0  0  0  0  0  0
  126.2958  106.3049  108.3211 H   0  0  0  0  0  0  0  0  0  0  0  0
  127.1435  105.3435  106.1646 H   0  0  0  0  0  0  0  0  0  0  0  0
  125.6861  104.3714  106.0258 H   0  0  0  0  0  0  0  0  0  0  0  0
  124.0305  104.2559  108.1794 H   0  0  0  0  0  0  0  0  0  0  0  0
  124.2240  105.6130  109.3167 H   0  0  0  0  0  0  0  0  0  0  0  0
  125.3088  106.2693  104.6155 H   0  0  0  0  0  0  0  0  0  0  0  0
  119.9264  106.8245  105.8847 H   0  0  0  0  0  0  0  0  0  0  0  0
  120.0797  107.8070  107.3620 H   0  0  0  0  0  0  0  0  0  0  0  0
  120.5562  108.4887  105.8078 H   0  0  0  0  0  0  0  0  0  0  0  0
  125.5576  108.5915  105.7842 H   0  0  0  0  0  0  0  0  0  0  0  0
  127.0590  107.7071  105.9152 H   0  0  0  0  0  0  0  0  0  0  0  0
  1  6  1  0  0  0  0
  1  8  2  0  0  0  0
  1 10  1  0  0  0  0
  2  7  1  0  0  0  0
  2  8  1  0  0  0  0
  2  9  2  0  0  0  0
  3  4  1  0  0  0  0
  3  5  1  0  0  0  0
  4  6  1  0  0  0  0
  5 10  1  0  0  0  0
  6 11  1  0  0  0  0
  9 10  1  0  0  0  0
  3 12  1  0  0  0  0
  3 13  1  0  0  0  0
  4 14  1  0  0  0  0
  4 15  1  0  0  0  0
  5 16  1  0  0  0  0
  5 17  1  0  0  0  0
  6 18  1  0  0  0  0
  7 19  1  0  0  0  0
  7 20  1  0  0  0  0
  7 21  1  0  0  0  0
 11 22  1  0  0  0  0
 11 23  1  0  0  0  0
M  END
> <FRED Chemgauss4 score>
-3.840572

$$$$
C00330427	P23897779
  -OEChem-05182014473D

 18 18  0     0  0  0  0  0  0999 V2000
  123.8283  106.0420  106.8027 C   0  0  0  0  0  0  0  0  0  0  0  0
  123.8638  104.3796  108.9194 C   0  0  0  0  0  0  0  0  0  0  0  0
  122.7004  105.4575  107.2645 C   0  0  0  0  0  0  0  0  0  0  0  0
  125.1351  105.7852  107.4523 C   0  0  0  0  0  0  0  0  0  0  0  0
  121.3334  106.5267  105.5721 C   0  0  0  0  0  0  0  0  0  0  0  0
  119.8937  106.6315  105.1414 C   0  0  0  0  0  0  0  0  0  0  0  0
  122.7233  104.6012  108.3561 N   0  0  0  0  0  0  0  0  0  0  0  0
  125.0580  104.9252  108.5237 N   0  0  0  0  0  0  0  0  0  0  0  0
  121.4964  105.6938  106.6677 N   0  0  0  0  0  0  0  0  0  0  0  0
  126.1638  106.3120  107.0426 O   0  0  0  0  0  0  0  0  0  0  0  0
  122.2223  107.1524  104.9989 O   0  0  0  0  0  0  0  0  0  0  0  0
  123.8201  106.7127  105.9499 H   0  0  0  0  0  0  0  0  0  0  0  0
  123.9547  103.7121  109.7896 H   0  0  0  0  0  0  0  0  0  0  0  0
  119.4151  107.4616  105.6684 H   0  0  0  0  0  0  0  0  0  0  0  0
  119.3766  105.6996  105.3854 H   0  0  0  0  0  0  0  0  0  0  0  0
  119.8178  106.8166  104.0661 H   0  0  0  0  0  0  0  0  0  0  0  0
  125.9065  104.6929  109.0311 H   0  0  0  0  0  0  0  0  0  0  0  0
  120.6739  105.2336  107.0475 H   0  0  0  0  0  0  0  0  0  0  0  0
  1  3  2  0  0  0  0
  1  4  1  0  0  0  0
  2  7  2  0  0  0  0
  2  8  1  0  0  0  0
  3  7  1  0  0  0  0
  3  9  1  0  0  0  0
  4  8  1  0  0  0  0
  4 10  2  0  0  0  0
  5  6  1  0  0  0  0
  5  9  1  0  0  0  0
  5 11  2  0  0  0  0
  1 12  1  0  0  0  0
  2 13  1  0  0  0  0
  6 14  1  0  0  0  0
  6 15  1  0  0  0  0
  6 16  1  0  0  0  0
  8 17  1  0  0  0  0
  9 18  1  0  0  0  0
M  END
> <FRED Chemgauss4 score>
-3.829604

$$$$
C82515433	P128953608
  -OEChem-05182014473D

 31 32  0     1  0  0  0  0  0999 V2000
  120.1222  104.3711  104.5990 C   0  0  0  0  0  0  0  0  0  0  0  0
  119.0483  103.5023  104.9480 C   0  0  0  0  0  0  0  0  0  0  0  0
  119.7677  105.6984  104.6997 C   0  0  0  0  0  0  0  0  0  0  0  0
  117.9137  104.1987  105.3025 C   0  0  0  0  0  0  0  0  0  0  0  0
  125.3920  106.6212  106.5554 C   0  0  0  0  0  0  0  0  0  0  0  0
  124.8636  107.5928  105.5218 C   0  0  0  0  0  0  0  0  0  0  0  0
  123.6898  106.9692  104.7717 C   0  0  0  0  0  0  0  0  0  0  0  0
  123.0121  106.4179  107.1728 C   0  0  0  0  0  0  0  0  0  0  0  0
  122.5691  106.4861  105.7100 C   0  0  1  0  0  0  0  0  0  0  0  0
  119.7837  108.1063  103.9245 C   0  0  0  0  0  0  0  0  0  0  0  0
  120.6122  106.9229  104.4204 C   0  0  1  0  0  0  0  0  0  0  0  0
  124.3965  106.0187  107.3019 N   0  0  0  0  0  0  0  0  0  0  0  0
  121.3886  107.3105  105.5867 N   0  0  0  0  0  0  0  0  0  0  0  0
  126.5926  106.4195  106.7177 O   0  0  0  0  0  0  0  0  0  0  0  0
  118.1458  105.8930  105.2135 S   0  0  0  0  0  0  0  0  0  0  0  0
  116.3991  103.5617  105.7897 Cl  0  0  0  0  0  0  0  0  0  0  0  0
  121.1039  104.0352  104.2900 H   0  0  0  0  0  0  0  0  0  0  0  0
  119.1113  102.4214  104.9377 H   0  0  0  0  0  0  0  0  0  0  0  0
  124.5543  108.4849  106.0356 H   0  0  0  0  0  0  0  0  0  0  0  0
  125.6524  107.8175  104.8265 H   0  0  0  0  0  0  0  0  0  0  0  0
  123.2918  107.6891  104.0402 H   0  0  0  0  0  0  0  0  0  0  0  0
  124.0518  106.1089  104.1861 H   0  0  0  0  0  0  0  0  0  0  0  0
  122.8827  107.3718  107.6812 H   0  0  0  0  0  0  0  0  0  0  0  0
  122.4217  105.6694  107.7013 H   0  0  0  0  0  0  0  0  0  0  0  0
  122.2691  105.4656  105.3929 H   0  0  0  0  0  0  0  0  0  0  0  0
  119.0261  108.3940  104.6617 H   0  0  0  0  0  0  0  0  0  0  0  0
  120.4262  108.9749  103.7414 H   0  0  0  0  0  0  0  0  0  0  0  0
  119.2706  107.8815  102.9827 H   0  0  0  0  0  0  0  0  0  0  0  0
  121.3494  106.6819  103.6447 H   0  0  0  0  0  0  0  0  0  0  0  0
  124.6384  105.3031  107.9339 H   0  0  0  0  0  0  0  0  0  0  0  0
  121.6757  108.2820  105.4978 H   0  0  0  0  0  0  0  0  0  0  0  0
  1  2  1  0  0  0  0
  1  3  2  0  0  0  0
  2  4  2  0  0  0  0
  3 11  1  0  0  0  0
  3 15  1  0  0  0  0
  4 15  1  0  0  0  0
  4 16  1  0  0  0  0
  5  6  1  0  0  0  0
  5 12  1  0  0  0  0
  5 14  2  0  0  0  0
  6  7  1  0  0  0  0
  7  9  1  0  0  0  0
  8  9  1  0  0  0  0
  8 12  1  0  0  0  0
  9 13  1  0  0  0  0
 10 11  1  0  0  0  0
 11 13  1  0  0  0  0
  1 17  1  0  0  0  0
  2 18  1  0  0  0  0
  6 19  1  0  0  0  0
  6 20  1  0  0  0  0
  7 21  1  0  0  0  0
  7 22  1  0  0  0  0
  8 23  1  0  0  0  0
  8 24  1  0  0  0  0
  9 25  1  0  0  0  0
 10 26  1  0  0  0  0
 10 27  1  0  0  0  0
 10 28  1  0  0  0  0
 11 29  1  0  0  0  0
 12 30  1  0  0  0  0
 13 31  1  0  0  0  0
M  END
> <FRED Chemgauss4 score>
-3.819798

$$$$
C85169335	P133261678
  -OEChem-05182014473D

 28 29  0     1  0  0  0  0  0999 V2000
  125.0522  106.4132  106.2124 C   0  0  0  0  0  0  0  0  0  0  0  0
  126.9264  106.1446  107.1848 C   0  0  0  0  0  0  0  0  0  0  0  0
  124.7768  106.4545  107.5589 C   0  0  0  0  0  0  0  0  0  0  0  0
  122.4391  108.3713  109.8341 C   0  0  0  0  0  0  0  0  0  0  0  0
  121.1006  108.1597  109.1542 C   0  0  0  0  0  0  0  0  0  0  0  0
  121.0066  106.9104  108.2886 C   0  0  0  0  0  0  0  0  0  0  0  0
  123.4750  106.6430  108.3172 C   0  0  2  0  0  0  0  0  0  0  0  0
  122.2404  106.7281  107.4001 C   0  0  2  0  0  0  0  0  0  0  0  0
  126.2448  106.2451  109.5890 C   0  0  0  0  0  0  0  0  0  0  0  0
  126.3919  106.2197  105.9862 N   0  0  0  0  0  0  0  0  0  0  0  0
  125.9871  106.2805  108.1689 N   0  0  0  0  0  0  0  0  0  0  0  0
  123.5317  107.7392  109.2835 N   0  0  0  0  0  0  0  0  0  0  0  0
  122.3454  107.8035  106.4103 N   0  0  0  0  0  0  0  0  0  0  0  0
  122.5388  109.1452  110.7884 O   0  0  0  0  0  0  0  0  0  0  0  0
  124.3555  106.5126  105.3924 H   0  0  0  0  0  0  0  0  0  0  0  0
  127.9756  105.9941  107.3998 H   0  0  0  0  0  0  0  0  0  0  0  0
  120.3479  108.1103  109.9483 H   0  0  0  0  0  0  0  0  0  0  0  0
  120.8826  109.0404  108.5427 H   0  0  0  0  0  0  0  0  0  0  0  0
  120.8695  106.0307  108.9442 H   0  0  0  0  0  0  0  0  0  0  0  0
  120.0919  106.9632  107.6689 H   0  0  0  0  0  0  0  0  0  0  0  0
  123.3508  105.6960  108.9483 H   0  0  0  0  0  0  0  0  0  0  0  0
  122.1386  105.7793  106.8761 H   0  0  0  0  0  0  0  0  0  0  0  0
  126.4529  107.2661  109.9197 H   0  0  0  0  0  0  0  0  0  0  0  0
  125.3689  105.8460  110.1082 H   0  0  0  0  0  0  0  0  0  0  0  0
  127.1033  105.5964  109.7844 H   0  0  0  0  0  0  0  0  0  0  0  0
  124.4447  108.0587  109.5703 H   0  0  0  0  0  0  0  0  0  0  0  0
  121.5023  108.1676  106.0246 H   0  0  0  0  0  0  0  0  0  0  0  0
  123.2404  107.9872  106.0132 H   0  0  0  0  0  0  0  0  0  0  0  0
  1  3  2  0  0  0  0
  1 10  1  0  0  0  0
  2 10  2  0  0  0  0
  2 11  1  0  0  0  0
  3  7  1  0  0  0  0
  3 11  1  0  0  0  0
  4  5  1  0  0  0  0
  4 12  1  0  0  0  0
  4 14  2  0  0  0  0
  5  6  1  0  0  0  0
  6  8  1  0  0  0  0
  7  8  1  0  0  0  0
  7 12  1  0  0  0  0
  8 13  1  0  0  0  0
  9 11  1  0  0  0  0
  1 15  1  0  0  0  0
  2 16  1  0  0  0  0
  5 17  1  0  0  0  0
  5 18  1  0  0  0  0
  6 19  1  0  0  0  0
  6 20  1  0  0  0  0
  7 21  1  0  0  0  0
  8 22  1  0  0  0  0
  9 23  1  0  0  0  0
  9 24  1  0  0  0  0
  9 25  1  0  0  0  0
 12 26  1  0  0  0  0
 13 27  1  0  0  0  0
 13 28  1  0  0  0  0
M  END
> <FRED Chemgauss4 score>
-3.816388

$$$$
C87213202	P136472540
  -OEChem-05182014473D

 41 43  0     1  0  0  0  0  0999 V2000
  122.1257  106.6106  108.8573 C   0  0  0  0  0  0  0  0  0  0  0  0
  123.1267  105.6781  108.5675 C   0  0  0  0  0  0  0  0  0  0  0  0
  123.2716  108.3539  107.5774 C   0  0  0  0  0  0  0  0  0  0  0  0
  122.1972  107.9334  108.3677 C   0  0  0  0  0  0  0  0  0  0  0  0
  124.1737  106.1152  107.7881 C   0  0  0  0  0  0  0  0  0  0  0  0
  124.2443  107.4187  107.3058 C   0  0  0  0  0  0  0  0  0  0  0  0
  126.0993  106.3005  106.5634 C   0  0  0  0  0  0  0  0  0  0  0  0
  120.1133  105.5684  104.7588 C   0  0  0  0  0  0  0  0  0  0  0  0
  119.0858  106.3944  105.4911 C   0  0  0  0  0  0  0  0  0  0  0  0
  121.2597  106.5473  104.6188 C   0  0  0  0  0  0  0  0  0  0  0  0
  119.9608  107.1903  106.4440 C   0  0  2  0  0  0  0  0  0  0  0  0
  121.7633  109.5421  110.9176 C   0  0  0  0  0  0  0  0  0  0  0  0
  119.3451  108.5079  106.8731 C   0  0  0  0  0  0  0  0  0  0  0  0
  120.4015  109.4590  107.4449 C   0  0  0  0  0  0  0  0  0  0  0  0
  121.1063  108.8973  108.7010 C   0  0  2  0  0  0  0  0  0  0  0  0
  125.2983  105.4196  107.3439 N   0  0  0  0  0  0  0  0  0  0  0  0
  125.4137  107.5483  106.5565 N   0  0  0  0  0  0  0  0  0  0  0  0
  121.6369  109.9661  109.5280 N   0  0  0  0  0  0  0  0  0  0  0  0
  127.1587  106.0392  106.0121 O   0  0  0  0  0  0  0  0  0  0  0  0
  121.1947  107.4321  105.7472 O   0  0  0  0  0  0  0  0  0  0  0  0
  121.2802  106.3057  109.4701 H   0  0  0  0  0  0  0  0  0  0  0  0
  123.0727  104.6632  108.9428 H   0  0  0  0  0  0  0  0  0  0  0  0
  123.3356  109.3672  107.1976 H   0  0  0  0  0  0  0  0  0  0  0  0
  120.4199  104.7191  105.3807 H   0  0  0  0  0  0  0  0  0  0  0  0
  119.7636  105.1801  103.7987 H   0  0  0  0  0  0  0  0  0  0  0  0
  118.5722  107.0552  104.7822 H   0  0  0  0  0  0  0  0  0  0  0  0
  118.3324  105.7930  106.0073 H   0  0  0  0  0  0  0  0  0  0  0  0
  122.2343  106.0517  104.5943 H   0  0  0  0  0  0  0  0  0  0  0  0
  121.1535  107.1545  103.7136 H   0  0  0  0  0  0  0  0  0  0  0  0
  120.2024  106.5880  107.3285 H   0  0  0  0  0  0  0  0  0  0  0  0
  122.4283  108.6774  110.9876 H   0  0  0  0  0  0  0  0  0  0  0  0
  120.7843  109.2666  111.3192 H   0  0  0  0  0  0  0  0  0  0  0  0
  122.1753  110.3530  111.5242 H   0  0  0  0  0  0  0  0  0  0  0  0
  118.8502  108.9664  106.0095 H   0  0  0  0  0  0  0  0  0  0  0  0
  118.5726  108.3140  107.6263 H   0  0  0  0  0  0  0  0  0  0  0  0
  121.1565  109.6555  106.6722 H   0  0  0  0  0  0  0  0  0  0  0  0
  119.9279  110.4221  107.6756 H   0  0  0  0  0  0  0  0  0  0  0  0
  120.3365  108.4138  109.3290 H   0  0  0  0  0  0  0  0  0  0  0  0
  125.4991  104.4490  107.5503 H   0  0  0  0  0  0  0  0  0  0  0  0
  125.7234  108.3897  106.0860 H   0  0  0  0  0  0  0  0  0  0  0  0
  121.0131  110.7734  109.4823 H   0  0  0  0  0  0  0  0  0  0  0  0
  1  2  2  0  0  0  0
  1  4  1  0  0  0  0
  2  5  1  0  0  0  0
  3  4  2  0  0  0  0
  3  6  1  0  0  0  0
  4 15  1  0  0  0  0
  5  6  2  0  0  0  0
  5 16  1  0  0  0  0
  6 17  1  0  0  0  0
  7 16  1  0  0  0  0
  7 17  1  0  0  0  0
  7 19  2  0  0  0  0
  8  9  1  0  0  0  0
  8 10  1  0  0  0  0
  9 11  1  0  0  0  0
 10 20  1  0  0  0  0
 11 13  1  0  0  0  0
 11 20  1  0  0  0  0
 12 18  1  0  0  0  0
 13 14  1  0  0  0  0
 14 15  1  0  0  0  0
 15 18  1  0  0  0  0
  1 21  1  0  0  0  0
  2 22  1  0  0  0  0
  3 23  1  0  0  0  0
  8 24  1  0  0  0  0
  8 25  1  0  0  0  0
  9 26  1  0  0  0  0
  9 27  1  0  0  0  0
 10 28  1  0  0  0  0
 10 29  1  0  0  0  0
 11 30  1  0  0  0  0
 12 31  1  0  0  0  0
 12 32  1  0  0  0  0
 12 33  1  0  0  0  0
 13 34  1  0  0  0  0
 13 35  1  0  0  0  0
 14 36  1  0  0  0  0
 14 37  1  0  0  0  0
 15 38  1  0  0  0  0
 16 39  1  0  0  0  0
 17 40  1  0  0  0  0
 18 41  1  0  0  0  0
M  END
> <FRED Chemgauss4 score>
-3.809499

$$$$
C87445867	P136802587
  -OEChem-05182014473D

 16 16  0     0  0  0  0  0  0999 V2000
  126.3829  106.1807  107.4015 C   0  0  0  0  0  0  0  0  0  0  0  0
  122.8531  106.1036  106.1447 C   0  0  0  0  0  0  0  0  0  0  0  0
  121.1595  104.9276  106.4696 C   0  0  0  0  0  0  0  0  0  0  0  0
  124.1946  106.5938  106.2422 C   0  0  0  0  0  0  0  0  0  0  0  0
  120.1561  103.9390  106.8957 C   0  0  0  0  0  0  0  0  0  0  0  0
  127.4941  106.3991  107.6531 N   0  0  0  0  0  0  0  0  0  0  0  0
  122.4112  105.0235  106.8536 N   0  0  0  0  0  0  0  0  0  0  0  0
  121.9536  106.6821  105.3462 N   0  0  0  0  0  0  0  0  0  0  0  0
  120.8793  105.9109  105.5728 N   0  0  0  0  0  0  0  0  0  0  0  0
  125.0864  105.9247  107.1096 N   0  0  0  0  0  0  0  0  0  0  0  0
  124.5757  107.5996  105.5940 O   0  0  0  0  0  0  0  0  0  0  0  0
  119.5985  104.2889  107.7819 H   0  0  0  0  0  0  0  0  0  0  0  0
  119.4170  103.7246  106.1027 H   0  0  0  0  0  0  0  0  0  0  0  0
  120.6114  102.9656  107.1537 H   0  0  0  0  0  0  0  0  0  0  0  0
  120.0124  106.1148  105.0896 H   0  0  0  0  0  0  0  0  0  0  0  0
  124.6910  105.1223  107.5918 H   0  0  0  0  0  0  0  0  0  0  0  0
  1  6  3  0  0  0  0
  1 10  1  0  0  0  0
  2  4  1  0  0  0  0
  2  7  1  0  0  0  0
  2  8  2  0  0  0  0
  3  5  1  0  0  0  0
  3  7  2  0  0  0  0
  3  9  1  0  0  0  0
  4 10  1  0  0  0  0
  4 11  2  0  0  0  0
  8  9  1  0  0  0  0
  5 12  1  0  0  0  0
  5 13  1  0  0  0  0
  5 14  1  0  0  0  0
  9 15  1  0  0  0  0
 10 16  1  0  0  0  0
M  END
> <FRED Chemgauss4 score>
-3.795446

$$$$
C92852498	P145382574
  -OEChem-05182014473D

 36 38  0     0  0  0  0  0  0999 V2000
  117.7040  103.8175  105.0811 C   0  0  0  0  0  0  0  0  0  0  0  0
  117.9026  105.8593  103.8049 C   0  0  0  0  0  0  0  0  0  0  0  0
  116.3231  103.8292  104.8850 C   0  0  0  0  0  0  0  0  0  0  0  0
  116.5216  105.8710  103.6087 C   0  0  0  0  0  0  0  0  0  0  0  0
  120.8134  103.7867  104.9111 C   0  0  0  0  0  0  0  0  0  0  0  0
  126.4235  105.8887  108.1975 C   0  0  0  0  0  0  0  0  0  0  0  0
  118.4938  104.8326  104.5411 C   0  0  0  0  0  0  0  0  0  0  0  0
  115.7319  104.8559  104.1488 C   0  0  0  0  0  0  0  0  0  0  0  0
  119.9221  104.8201  104.7434 C   0  0  0  0  0  0  0  0  0  0  0  0
  124.9817  107.2001  107.4500 C   0  0  0  0  0  0  0  0  0  0  0  0
  121.9799  105.5648  105.0031 C   0  0  0  0  0  0  0  0  0  0  0  0
  125.6783  105.6332  110.6214 C   0  0  0  0  0  0  0  0  0  0  0  0
  124.1407  108.1061  106.5980 C   0  0  0  0  0  0  0  0  0  0  0  0
  123.0685  106.5529  105.1151 C   0  0  0  0  0  0  0  0  0  0  0  0
  122.0927  104.2569  105.0725 N   0  0  0  0  0  0  0  0  0  0  0  0
  126.0495  106.5439  107.0593 N   0  0  0  0  0  0  0  0  0  0  0  0
  124.7398  106.9402  108.7629 N   0  0  0  0  0  0  0  0  0  0  0  0
  120.6839  105.9528  104.8051 N   0  0  0  0  0  0  0  0  0  0  0  0
  125.6543  106.0983  109.2679 N   0  0  0  0  0  0  0  0  0  0  0  0
  122.8804  107.4785  106.2119 N   0  0  0  0  0  0  0  0  0  0  0  0
  113.8612  104.8702  103.8799 Br  0  0  0  0  0  0  0  0  0  0  0  0
  118.1497  103.0102  105.6576 H   0  0  0  0  0  0  0  0  0  0  0  0
  118.5047  106.6574  103.3771 H   0  0  0  0  0  0  0  0  0  0  0  0
  115.7218  103.0307  105.3122 H   0  0  0  0  0  0  0  0  0  0  0  0
  116.0768  106.6776  103.0316 H   0  0  0  0  0  0  0  0  0  0  0  0
  120.6041  102.7266  104.9250 H   0  0  0  0  0  0  0  0  0  0  0  0
  127.2908  105.2409  108.2266 H   0  0  0  0  0  0  0  0  0  0  0  0
  126.2776  106.3341  111.2083 H   0  0  0  0  0  0  0  0  0  0  0  0
  124.6566  105.5863  111.0085 H   0  0  0  0  0  0  0  0  0  0  0  0
  126.1190  104.6328  110.6519 H   0  0  0  0  0  0  0  0  0  0  0  0
  123.9060  109.0322  107.1341 H   0  0  0  0  0  0  0  0  0  0  0  0
  124.6699  108.3863  105.6811 H   0  0  0  0  0  0  0  0  0  0  0  0
  124.0501  106.0699  105.2724 H   0  0  0  0  0  0  0  0  0  0  0  0
  123.1754  107.1652  104.2014 H   0  0  0  0  0  0  0  0  0  0  0  0
  120.3527  106.9050  104.7195 H   0  0  0  0  0  0  0  0  0  0  0  0
  122.2194  108.2089  105.9371 H   0  0  0  0  0  0  0  0  0  0  0  0
  1  3  2  0  0  0  0
  1  7  1  0  0  0  0
  2  4  1  0  0  0  0
  2  7  2  0  0  0  0
  3  8  1  0  0  0  0
  4  8  2  0  0  0  0
  5  9  2  0  0  0  0
  5 15  1  0  0  0  0
  6 16  2  0  0  0  0
  6 19  1  0  0  0  0
  7  9  1  0  0  0  0
  8 21  1  0  0  0  0
  9 18  1  0  0  0  0
 10 13  1  0  0  0  0
 10 16  1  0  0  0  0
 10 17  2  0  0  0  0
 11 14  1  0  0  0  0
 11 15  2  0  0  0  0
 11 18  1  0  0  0  0
 12 19  1  0  0  0  0
 13 20  1  0  0  0  0
 14 20  1  0  0  0  0
 17 19  1  0  0  0  0
  1 22  1  0  0  0  0
  2 23  1  0  0  0  0
  3 24  1  0  0  0  0
  4 25  1  0  0  0  0
  5 26  1  0  0  0  0
  6 27  1  0  0  0  0
 12 28  1  0  0  0  0
 12 29  1  0  0  0  0
 12 30  1  0  0  0  0
 13 31  1  0  0  0  0
 13 32  1  0  0  0  0
 14 33  1  0  0  0  0
 14 34  1  0  0  0  0
 18 35  1  0  0  0  0
 20 36  1  0  0  0  0
M  END
> <FRED Chemgauss4 score>
-3.783439

$$$$
C49587762	P74060572
  -OEChem-05182014473D

 21 22  0     1  0  0  0  0  0999 V2000
  122.4203  106.2393  106.3353 C   0  0  0  0  0  0  0  0  0  0  0  0
  125.7813  105.8757  106.4172 C   0  0  0  0  0  0  0  0  0  0  0  0
  122.6836  106.0480  107.8221 C   0  0  1  0  0  0  0  0  0  0  0  0
  124.1203  106.5087  107.9425 C   0  0  2  0  0  0  0  0  0  0  0  0
  124.2495  107.5950  106.8938 C   0  0  1  0  0  0  0  0  0  0  0  0
  125.6510  107.3816  106.3745 C   0  0  2  0  0  0  0  0  0  0  0  0
  121.7814  106.8954  108.5998 N   0  0  0  0  0  0  0  0  0  0  0  0
  123.2615  107.3135  105.8871 O   0  0  0  0  0  0  0  0  0  0  0  0
  125.0141  105.4442  107.5508 O   0  0  0  0  0  0  0  0  0  0  0  0
  125.8545  107.8950  105.0774 O   0  0  0  0  0  0  0  0  0  0  0  0
  122.7048  105.3428  105.7728 H   0  0  0  0  0  0  0  0  0  0  0  0
  121.3766  106.4650  106.0936 H   0  0  0  0  0  0  0  0  0  0  0  0
  125.3816  105.3965  105.5165 H   0  0  0  0  0  0  0  0  0  0  0  0
  126.8199  105.5515  106.5335 H   0  0  0  0  0  0  0  0  0  0  0  0
  122.5360  105.0032  108.1120 H   0  0  0  0  0  0  0  0  0  0  0  0
  124.4157  106.8288  108.9467 H   0  0  0  0  0  0  0  0  0  0  0  0
  124.0680  108.6073  107.2660 H   0  0  0  0  0  0  0  0  0  0  0  0
  126.3787  107.8315  107.0605 H   0  0  0  0  0  0  0  0  0  0  0  0
  122.0681  107.1682  109.5141 H   0  0  0  0  0  0  0  0  0  0  0  0
  120.8439  106.9983  108.2787 H   0  0  0  0  0  0  0  0  0  0  0  0
  126.7542  107.6429  104.8018 H   0  0  0  0  0  0  0  0  0  0  0  0
  1  3  1  0  0  0  0
  1  8  1  0  0  0  0
  2  6  1  0  0  0  0
  2  9  1  0  0  0  0
  3  4  1  0  0  0  0
  3  7  1  0  0  0  0
  4  5  1  0  0  0  0
  4  9  1  0  0  0  0
  5  6  1  0  0  0  0
  5  8  1  0  0  0  0
  6 10  1  0  0  0  0
  1 11  1  0  0  0  0
  1 12  1  0  0  0  0
  2 13  1  0  0  0  0
  2 14  1  0  0  0  0
  3 15  1  0  0  0  0
  4 16  1  0  0  0  0
  5 17  1  0  0  0  0
  6 18  1  0  0  0  0
  7 19  1  0  0  0  0
  7 20  1  0  0  0  0
 10 21  1  0  0  0  0
M  END
> <FRED Chemgauss4 score>
-3.774766

$$$$
C91671606	P143506820
  -OEChem-05182014473D

 39 40  0     1  0  0  0  0  0999 V2000
  117.4480  104.0227  105.8356 C   0  0  0  0  0  0  0  0  0  0  0  0
  117.1768  104.0514  104.4722 C   0  0  0  0  0  0  0  0  0  0  0  0
  118.7404  104.2660  106.2870 C   0  0  0  0  0  0  0  0  0  0  0  0
  118.2246  104.3261  103.6082 C   0  0  0  0  0  0  0  0  0  0  0  0
  119.7183  104.5309  105.3418 C   0  0  0  0  0  0  0  0  0  0  0  0
  119.0137  104.2350  107.7171 C   0  0  0  0  0  0  0  0  0  0  0  0
  124.9119  108.1524  105.6334 C   0  0  0  0  0  0  0  0  0  0  0  0
  124.5092  105.8642  104.9949 C   0  0  0  0  0  0  0  0  0  0  0  0
  123.5248  108.1908  106.2702 C   0  0  0  0  0  0  0  0  0  0  0  0
  123.1262  105.9482  105.6552 C   0  0  2  0  0  0  0  0  0  0  0  0
  117.9700  104.3650  102.1383 C   0  0  0  0  0  0  0  0  0  0  0  0
  125.9724  106.3516  106.8791 C   0  0  0  0  0  0  0  0  0  0  0  0
  122.1214  105.0615  104.9309 C   0  0  0  0  0  0  0  0  0  0  0  0
  119.4929  104.5674  104.0093 N   0  0  0  0  0  0  0  0  0  0  0  0
  125.4820  106.7996  105.5782 N   0  0  2  0  0  0  0  0  0  0  0  0
  118.8808  105.4170  108.4081 N   0  0  0  0  0  0  0  0  0  0  0  0
  121.0181  104.7759  105.7875 N   0  0  0  0  0  0  0  0  0  0  0  0
  122.6423  107.2941  105.5952 O   0  0  0  0  0  0  0  0  0  0  0  0
  119.4450  102.8162  108.4941 S   0  0  0  0  0  0  0  0  0  0  0  0
  116.6447  103.8096  106.5361 H   0  0  0  0  0  0  0  0  0  0  0  0
  116.1727  103.8643  104.1074 H   0  0  0  0  0  0  0  0  0  0  0  0
  124.8528  108.5802  104.6091 H   0  0  0  0  0  0  0  0  0  0  0  0
  125.5835  108.8224  106.2090 H   0  0  0  0  0  0  0  0  0  0  0  0
  124.8892  104.8254  105.0893 H   0  0  0  0  0  0  0  0  0  0  0  0
  124.4129  106.0575  103.9039 H   0  0  0  0  0  0  0  0  0  0  0  0
  123.5619  107.9358  107.3363 H   0  0  0  0  0  0  0  0  0  0  0  0
  123.1046  109.1978  106.1854 H   0  0  0  0  0  0  0  0  0  0  0  0
  123.1791  105.6349  106.7044 H   0  0  0  0  0  0  0  0  0  0  0  0
  117.6937  105.3792  101.8262 H   0  0  0  0  0  0  0  0  0  0  0  0
  118.8580  104.0558  101.5726 H   0  0  0  0  0  0  0  0  0  0  0  0
  117.1593  103.6806  101.8571 H   0  0  0  0  0  0  0  0  0  0  0  0
  126.3878  105.3438  106.7973 H   0  0  0  0  0  0  0  0  0  0  0  0
  125.1561  106.3378  107.6064 H   0  0  0  0  0  0  0  0  0  0  0  0
  126.7532  107.0257  107.2414 H   0  0  0  0  0  0  0  0  0  0  0  0
  122.6067  104.1332  104.6543 H   0  0  0  0  0  0  0  0  0  0  0  0
  121.7621  105.5771  104.0487 H   0  0  0  0  0  0  0  0  0  0  0  0
  118.6107  106.2867  107.9596 H   0  0  0  0  0  0  0  0  0  0  0  0
  119.0628  105.4603  109.4054 H   0  0  0  0  0  0  0  0  0  0  0  0
  121.1709  104.7431  106.7981 H   0  0  0  0  0  0  0  0  0  0  0  0
  1  2  2  0  0  0  0
  1  3  1  0  0  0  0
  2  4  1  0  0  0  0
  3  5  2  0  0  0  0
  3  6  1  0  0  0  0
  4 11  1  0  0  0  0
  4 14  2  0  0  0  0
  5 14  1  0  0  0  0
  5 17  1  0  0  0  0
  6 16  1  0  0  0  0
  6 19  2  0  0  0  0
  7  9  1  0  0  0  0
  7 15  1  0  0  0  0
  8 10  1  0  0  0  0
  8 15  1  0  0  0  0
  9 18  1  0  0  0  0
 10 13  1  0  0  0  0
 10 18  1  0  0  0  0
 12 15  1  0  0  0  0
 13 17  1  0  0  0  0
  1 20  1  0  0  0  0
  2 21  1  0  0  0  0
  7 22  1  0  0  0  0
  7 23  1  0  0  0  0
  8 24  1  0  0  0  0
  8 25  1  0  0  0  0
  9 26  1  0  0  0  0
  9 27  1  0  0  0  0
 10 28  1  0  0  0  0
 11 29  1  0  0  0  0
 11 30  1  0  0  0  0
 11 31  1  0  0  0  0
 12 32  1  0  0  0  0
 12 33  1  0  0  0  0
 12 34  1  0  0  0  0
 13 35  1  0  0  0  0
 13 36  1  0  0  0  0
 16 37  1  0  0  0  0
 16 38  1  0  0  0  0
 17 39  1  0  0  0  0
M  END
> <FRED Chemgauss4 score>
-3.768459

$$$$
C20283868	P153655873
  -OEChem-05182014473D

 12 12  0     0  0  0  0  0  0999 V2000
  126.4996  105.5908  108.6430 C   0  0  0  0  0  0  0  0  0  0  0  0
  124.8776  106.3713  107.4310 C   0  0  0  0  0  0  0  0  0  0  0  0
  123.9986  106.6623  106.3510 C   0  0  0  0  0  0  0  0  0  0  0  0
  125.7668  106.3621  109.4139 N   0  0  0  0  0  0  0  0  0  0  0  0
  124.7348  106.8588  108.6428 N   0  0  0  0  0  0  0  0  0  0  0  0
  125.9762  105.5677  107.3859 N   0  0  0  0  0  0  0  0  0  0  0  0
  122.8965  105.8366  106.1533 N   0  0  0  0  0  0  0  0  0  0  0  0
  124.2318  107.9849  105.3219 S   0  0  0  0  0  0  0  0  0  0  0  0
  127.3853  105.0420  108.9272 H   0  0  0  0  0  0  0  0  0  0  0  0
  126.3300  105.0574  106.5870 H   0  0  0  0  0  0  0  0  0  0  0  0
  122.7170  105.0396  106.7558 H   0  0  0  0  0  0  0  0  0  0  0  0
  122.2369  105.9894  105.3976 H   0  0  0  0  0  0  0  0  0  0  0  0
  1  4  2  0  0  0  0
  1  6  1  0  0  0  0
  2  3  1  0  0  0  0
  2  5  2  0  0  0  0
  2  6  1  0  0  0  0
  3  7  1  0  0  0  0
  3  8  2  0  0  0  0
  4  5  1  0  0  0  0
  1  9  1  0  0  0  0
  6 10  1  0  0  0  0
  7 11  1  0  0  0  0
  7 12  1  0  0  0  0
M  END
> <FRED Chemgauss4 score>
-3.759507

$$$$
C43016649	P65067557
  -OEChem-05182014473D

 36 37  0     1  0  0  0  0  0999 V2000
  125.0944  103.2212  106.8673 C   0  0  0  0  0  0  0  0  0  0  0  0
  124.6246  104.4868  106.5164 C   0  0  0  0  0  0  0  0  0  0  0  0
  125.6976  103.0206  108.1089 C   0  0  0  0  0  0  0  0  0  0  0  0
  125.3616  105.3514  108.6487 C   0  0  0  0  0  0  0  0  0  0  0  0
  120.5817  106.6526  107.1941 C   0  0  0  0  0  0  0  0  0  0  0  0
  124.7583  105.5519  107.4071 C   0  0  0  0  0  0  0  0  0  0  0  0
  125.8313  104.0857  108.9995 C   0  0  0  0  0  0  0  0  0  0  0  0
  120.8689  107.1687  105.9162 C   0  0  0  0  0  0  0  0  0  0  0  0
  121.8114  106.4951  107.7851 C   0  0  0  0  0  0  0  0  0  0  0  0
  119.9109  107.5231  104.8554 C   0  0  0  0  0  0  0  0  0  0  0  0
  122.1873  105.9958  109.1204 C   0  0  0  0  0  0  0  0  0  0  0  0
  126.4763  107.7567  106.0462 C   0  0  0  0  0  0  0  0  0  0  0  0
  124.2442  106.9394  107.0212 C   0  0  1  0  0  0  0  0  0  0  0  0
  124.9705  107.5941  105.8019 C   0  0  2  0  0  0  0  0  0  0  0  0
  122.1784  107.3285  105.7070 N   0  0  0  0  0  0  0  0  0  0  0  0
  122.7249  106.9105  106.8614 N   0  0  0  0  0  0  0  0  0  0  0  0
  124.8156  106.7611  104.6006 N   0  0  0  0  0  0  0  0  0  0  0  0
  126.5768  103.8380  110.5308 Cl  0  0  0  0  0  0  0  0  0  0  0  0
  124.9902  102.3920  106.1734 H   0  0  0  0  0  0  0  0  0  0  0  0
  124.1560  104.6339  105.5469 H   0  0  0  0  0  0  0  0  0  0  0  0
  126.0593  102.0288  108.3688 H   0  0  0  0  0  0  0  0  0  0  0  0
  125.4630  106.1850  109.3398 H   0  0  0  0  0  0  0  0  0  0  0  0
  119.6179  106.4255  107.6266 H   0  0  0  0  0  0  0  0  0  0  0  0
  119.5910  108.5759  104.9397 H   0  0  0  0  0  0  0  0  0  0  0  0
  120.3367  107.3851  103.8455 H   0  0  0  0  0  0  0  0  0  0  0  0
  119.0018  106.8960  104.8878 H   0  0  0  0  0  0  0  0  0  0  0  0
  122.3461  104.9044  109.1082 H   0  0  0  0  0  0  0  0  0  0  0  0
  123.1152  106.4638  109.4930 H   0  0  0  0  0  0  0  0  0  0  0  0
  121.4134  106.2120  109.8778 H   0  0  0  0  0  0  0  0  0  0  0  0
  126.9521  106.7976  106.2724 H   0  0  0  0  0  0  0  0  0  0  0  0
  126.9775  108.1571  105.1571 H   0  0  0  0  0  0  0  0  0  0  0  0
  126.6762  108.4390  106.8802 H   0  0  0  0  0  0  0  0  0  0  0  0
  124.4607  107.6017  107.8746 H   0  0  0  0  0  0  0  0  0  0  0  0
  124.5529  108.5831  105.5817 H   0  0  0  0  0  0  0  0  0  0  0  0
  125.5041  106.8459  103.8909 H   0  0  0  0  0  0  0  0  0  0  0  0
  123.9409  106.3130  104.4621 H   0  0  0  0  0  0  0  0  0  0  0  0
  1  2  2  0  0  0  0
  1  3  1  0  0  0  0
  2  6  1  0  0  0  0
  3  7  2  0  0  0  0
  4  6  2  0  0  0  0
  4  7  1  0  0  0  0
  5  8  1  0  0  0  0
  5  9  2  0  0  0  0
  6 13  1  0  0  0  0
  7 18  1  0  0  0  0
  8 10  1  0  0  0  0
  8 15  2  0  0  0  0
  9 11  1  0  0  0  0
  9 16  1  0  0  0  0
 12 14  1  0  0  0  0
 13 14  1  0  0  0  0
 13 16  1  0  0  0  0
 14 17  1  0  0  0  0
 15 16  1  0  0  0  0
  1 19  1  0  0  0  0
  2 20  1  0  0  0  0
  3 21  1  0  0  0  0
  4 22  1  0  0  0  0
  5 23  1  0  0  0  0
 10 24  1  0  0  0  0
 10 25  1  0  0  0  0
 10 26  1  0  0  0  0
 11 27  1  0  0  0  0
 11 28  1  0  0  0  0
 11 29  1  0  0  0  0
 12 30  1  0  0  0  0
 12 31  1  0  0  0  0
 12 32  1  0  0  0  0
 13 33  1  0  0  0  0
 14 34  1  0  0  0  0
 17 35  1  0  0  0  0
 17 36  1  0  0  0  0
M  END
> <FRED Chemgauss4 score>
-3.725296

$$$$
C02566799	P150451968
  -OEChem-05182014473D

 12 11  0     0  0  0  0  0  0999 V2000
  123.1876  105.5844  106.5287 C   0  0  0  0  0  0  0  0  0  0  0  0
  125.3697  105.7888  107.6212 C   0  0  0  0  0  0  0  0  0  0  0  0
  124.4419  106.2644  106.6408 C   0  0  0  0  0  0  0  0  0  0  0  0
  124.7421  107.3264  105.8427 C   0  0  0  0  0  0  0  0  0  0  0  0
  122.1713  105.0308  106.4400 N   0  0  0  0  0  0  0  0  0  0  0  0
  126.1202  105.4007  108.4169 N   0  0  0  0  0  0  0  0  0  0  0  0
  125.9504  107.9824  105.9498 N   0  0  0  0  0  0  0  0  0  0  0  0
  123.8490  107.7859  104.8977 N   0  0  0  0  0  0  0  0  0  0  0  0
  126.6188  107.6583  106.6374 H   0  0  0  0  0  0  0  0  0  0  0  0
  126.1755  108.7705  105.3569 H   0  0  0  0  0  0  0  0  0  0  0  0
  122.9465  107.3475  104.7699 H   0  0  0  0  0  0  0  0  0  0  0  0
  124.1131  108.5779  104.3253 H   0  0  0  0  0  0  0  0  0  0  0  0
  1  3  1  0  0  0  0
  1  5  3  0  0  0  0
  2  3  1  0  0  0  0
  2  6  3  0  0  0  0
  3  4  2  0  0  0  0
  4  7  1  0  0  0  0
  4  8  1  0  0  0  0
  7  9  1  0  0  0  0
  7 10  1  0  0  0  0
  8 11  1  0  0  0  0
  8 12  1  0  0  0  0
M  END
> <FRED Chemgauss4 score>
-3.670762

$$$$
C20216428	P30109106
  -OEChem-05182014473D

 14 14  0     1  0  0  0  0  0999 V2000
  124.2950  107.2583  105.9865 C   0  0  0  0  0  0  0  0  0  0  0  0
  123.3371  105.1241  106.2129 C   0  0  0  0  0  0  0  0  0  0  0  0
  122.9513  106.5871  106.0235 C   0  0  2  0  0  0  0  0  0  0  0  0
  125.1788  106.3760  106.5874 N   0  0  0  0  0  0  0  0  0  0  0  0
  124.5844  105.1849  106.9836 N   0  0  0  0  0  0  0  0  0  0  0  0
  122.2303  106.8444  104.7907 N   0  0  0  0  0  0  0  0  0  0  0  0
  124.5443  108.3697  105.5468 O   0  0  0  0  0  0  0  0  0  0  0  0
  122.5615  104.5534  106.7334 H   0  0  0  0  0  0  0  0  0  0  0  0
  123.5363  104.6257  105.2555 H   0  0  0  0  0  0  0  0  0  0  0  0
  122.3995  106.9696  106.8968 H   0  0  0  0  0  0  0  0  0  0  0  0
  126.1687  106.5406  106.7262 H   0  0  0  0  0  0  0  0  0  0  0  0
  125.2078  104.4408  106.6693 H   0  0  0  0  0  0  0  0  0  0  0  0
  122.3255  107.7431  104.3587 H   0  0  0  0  0  0  0  0  0  0  0  0
  121.5086  106.2063  104.5157 H   0  0  0  0  0  0  0  0  0  0  0  0
  1  3  1  0  0  0  0
  1  4  1  0  0  0  0
  1  7  2  0  0  0  0
  2  3  1  0  0  0  0
  2  5  1  0  0  0  0
  3  6  1  0  0  0  0
  4  5  1  0  0  0  0
  2  8  1  0  0  0  0
  2  9  1  0  0  0  0
  3 10  1  0  0  0  0
  4 11  1  0  0  0  0
  5 12  1  0  0  0  0
  6 13  1  0  0  0  0
  6 14  1  0  0  0  0
M  END
> <FRED Chemgauss4 score>
-3.630261

$$$$
C93825618	P147013249
  -OEChem-05182014473D

 47 49  0     1  0  0  0  0  0999 V2000
  119.1854  103.8760  106.0900 C   0  0  0  0  0  0  0  0  0  0  0  0
  120.7190  106.6829  106.7619 C   0  0  0  0  0  0  0  0  0  0  0  0
  119.3412  104.2843  102.3230 C   0  0  0  0  0  0  0  0  0  0  0  0
  117.8638  104.3728  102.0720 C   0  0  0  0  0  0  0  0  0  0  0  0
  119.2634  106.3513  106.4515 C   0  0  0  0  0  0  0  0  0  0  0  0
  120.7484  105.3249  104.7793 C   0  0  0  0  0  0  0  0  0  0  0  0
  123.4070  106.4333  104.1086 C   0  0  0  0  0  0  0  0  0  0  0  0
  123.3691  107.7081  106.1408 C   0  0  0  0  0  0  0  0  0  0  0  0
  124.9268  106.3559  104.2003 C   0  0  0  0  0  0  0  0  0  0  0  0
  121.3695  106.5866  105.3877 C   0  0  2  0  0  0  0  0  0  0  0  0
  118.3775  104.1977  103.4749 C   0  0  0  0  0  0  0  0  0  0  0  0
  119.3496  105.2131  105.4202 C   0  0  1  0  0  0  0  0  0  0  0  0
  124.9079  107.6412  106.2262 C   0  0  0  0  0  0  0  0  0  0  0  0
  125.3918  106.5262  107.1670 C   0  0  0  0  0  0  0  0  0  0  0  0
  125.4464  108.9819  106.7428 C   0  0  0  0  0  0  0  0  0  0  0  0
  122.8283  106.5251  105.4549 N   0  0  1  0  0  0  0  0  0  0  0  0
  117.9839  103.7258  106.7412 N   0  0  0  0  0  0  0  0  0  0  0  0
  118.2759  105.2856  104.4378 N   0  0  0  0  0  0  0  0  0  0  0  0
  120.0515  103.0065  106.0327 O   0  0  0  0  0  0  0  0  0  0  0  0
  125.4594  107.4736  104.9097 O   0  0  0  0  0  0  0  0  0  0  0  0
  120.8285  107.6759  107.2088 H   0  0  0  0  0  0  0  0  0  0  0  0
  121.1371  105.9446  107.4575 H   0  0  0  0  0  0  0  0  0  0  0  0
  119.8524  103.3846  102.0027 H   0  0  0  0  0  0  0  0  0  0  0  0
  119.9249  105.1911  102.2210 H   0  0  0  0  0  0  0  0  0  0  0  0
  117.4552  105.3389  101.8015 H   0  0  0  0  0  0  0  0  0  0  0  0
  117.3858  103.5325  101.5834 H   0  0  0  0  0  0  0  0  0  0  0  0
  118.7086  106.0839  107.3571 H   0  0  0  0  0  0  0  0  0  0  0  0
  118.7831  107.2405  106.0219 H   0  0  0  0  0  0  0  0  0  0  0  0
  120.7128  105.4111  103.6864 H   0  0  0  0  0  0  0  0  0  0  0  0
  121.3546  104.4368  105.0022 H   0  0  0  0  0  0  0  0  0  0  0  0
  123.1216  107.3084  103.5099 H   0  0  0  0  0  0  0  0  0  0  0  0
  123.0378  105.5384  103.5946 H   0  0  0  0  0  0  0  0  0  0  0  0
  122.9511  107.7781  107.1531 H   0  0  0  0  0  0  0  0  0  0  0  0
  123.0688  108.6152  105.5978 H   0  0  0  0  0  0  0  0  0  0  0  0
  125.2583  105.4222  104.6675 H   0  0  0  0  0  0  0  0  0  0  0  0
  125.3555  106.3751  103.1928 H   0  0  0  0  0  0  0  0  0  0  0  0
  121.0732  107.4568  104.7858 H   0  0  0  0  0  0  0  0  0  0  0  0
  118.2446  103.2159  103.9182 H   0  0  0  0  0  0  0  0  0  0  0  0
  126.4770  106.5223  107.1910 H   0  0  0  0  0  0  0  0  0  0  0  0
  125.0320  105.5686  106.8040 H   0  0  0  0  0  0  0  0  0  0  0  0
  125.0058  106.7060  108.1655 H   0  0  0  0  0  0  0  0  0  0  0  0
  126.5302  108.9374  106.8039 H   0  0  0  0  0  0  0  0  0  0  0  0
  125.0360  109.1811  107.7288 H   0  0  0  0  0  0  0  0  0  0  0  0
  125.1543  109.7762  106.0615 H   0  0  0  0  0  0  0  0  0  0  0  0
  117.3216  104.4943  106.7247 H   0  0  0  0  0  0  0  0  0  0  0  0
  117.7329  102.8771  107.2378 H   0  0  0  0  0  0  0  0  0  0  0  0
  118.3323  106.1764  103.9453 H   0  0  0  0  0  0  0  0  0  0  0  0
  1 12  1  0  0  0  0
  1 17  1  0  0  0  0
  1 19  2  0  0  0  0
  2  5  1  0  0  0  0
  2 10  1  0  0  0  0
  3  4  1  0  0  0  0
  3 11  1  0  0  0  0
  4 11  1  0  0  0  0
  5 12  1  0  0  0  0
  6 10  1  0  0  0  0
  6 12  1  0  0  0  0
  7  9  1  0  0  0  0
  7 16  1  0  0  0  0
  8 13  1  0  0  0  0
  8 16  1  0  0  0  0
  9 20  1  0  0  0  0
 10 16  1  0  0  0  0
 11 18  1  0  0  0  0
 12 18  1  0  0  0  0
 13 14  1  0  0  0  0
 13 15  1  0  0  0  0
 13 20  1  0  0  0  0
  2 21  1  0  0  0  0
  2 22  1  0  0  0  0
  3 23  1  0  0  0  0
  3 24  1  0  0  0  0
  4 25  1  0  0  0  0
  4 26  1  0  0  0  0
  5 27  1  0  0  0  0
  5 28  1  0  0  0  0
  6 29  1  0  0  0  0
  6 30  1  0  0  0  0
  7 31  1  0  0  0  0
  7 32  1  0  0  0  0
  8 33  1  0  0  0  0
  8 34  1  0  0  0  0
  9 35  1  0  0  0  0
  9 36  1  0  0  0  0
 10 37  1  0  0  0  0
 11 38  1  0  0  0  0
 14 39  1  0  0  0  0
 14 40  1  0  0  0  0
 14 41  1  0  0  0  0
 15 42  1  0  0  0  0
 15 43  1  0  0  0  0
 15 44  1  0  0  0  0
 17 45  1  0  0  0  0
 17 46  1  0  0  0  0
 18 47  1  0  0  0  0
M  END
> <FRED Chemgauss4 score>
-3.626354

$$$$
C62209210	P95475553
  -OEChem-05182014473D

 41 43  0     1  0  0  0  0  0999 V2000
  121.5479  106.5548  108.8617 C   0  0  0  0  0  0  0  0  0  0  0  0
  123.0561  108.4327  108.6733 C   0  0  0  0  0  0  0  0  0  0  0  0
  120.8543  107.2136  109.8769 C   0  0  0  0  0  0  0  0  0  0  0  0
  122.3625  109.0916  109.6885 C   0  0  0  0  0  0  0  0  0  0  0  0
  122.6488  107.1643  108.2600 C   0  0  0  0  0  0  0  0  0  0  0  0
  121.2616  108.4820  110.2902 C   0  0  0  0  0  0  0  0  0  0  0  0
  125.6211  106.3199  106.3233 C   0  0  0  0  0  0  0  0  0  0  0  0
  124.7316  106.7118  105.1676 C   0  0  0  0  0  0  0  0  0  0  0  0
  124.5188  104.4709  109.3332 C   0  0  0  0  0  0  0  0  0  0  0  0
  125.8872  104.2626  108.7521 C   0  0  0  0  0  0  0  0  0  0  0  0
  123.4016  106.4505  107.1589 C   0  0  1  0  0  0  0  0  0  0  0  0
  125.2455  105.6218  108.6924 C   0  0  0  0  0  0  0  0  0  0  0  0
  123.4819  107.2642  105.8577 C   0  0  2  0  0  0  0  0  0  0  0  0
  119.8799  110.5026  110.8917 C   0  0  0  0  0  0  0  0  0  0  0  0
  121.3961  109.4549  112.6118 C   0  0  0  0  0  0  0  0  0  0  0  0
  120.5185  109.1865  111.3746 C   0  0  0  0  0  0  0  0  0  0  0  0
  124.8024  106.1814  107.4474 N   0  0  0  0  0  0  0  0  0  0  0  0
  122.2885  107.1404  105.0327 N   0  0  0  0  0  0  0  0  0  0  0  0
  126.8225  106.1125  106.2360 O   0  0  0  0  0  0  0  0  0  0  0  0
  121.2238  105.5664  108.5465 H   0  0  0  0  0  0  0  0  0  0  0  0
  123.9121  108.9154  108.2090 H   0  0  0  0  0  0  0  0  0  0  0  0
  119.9969  106.7318  110.3390 H   0  0  0  0  0  0  0  0  0  0  0  0
  122.6867  110.0796  110.0046 H   0  0  0  0  0  0  0  0  0  0  0  0
  125.2152  107.4641  104.5384 H   0  0  0  0  0  0  0  0  0  0  0  0
  124.5232  105.8128  104.5768 H   0  0  0  0  0  0  0  0  0  0  0  0
  123.6772  104.0351  108.8087 H   0  0  0  0  0  0  0  0  0  0  0  0
  124.4230  104.4728  110.4121 H   0  0  0  0  0  0  0  0  0  0  0  0
  126.7122  104.1247  109.4401 H   0  0  0  0  0  0  0  0  0  0  0  0
  125.9626  103.6865  107.8380 H   0  0  0  0  0  0  0  0  0  0  0  0
  122.9180  105.4633  106.9845 H   0  0  0  0  0  0  0  0  0  0  0  0
  125.6467  106.3770  109.3595 H   0  0  0  0  0  0  0  0  0  0  0  0
  123.6497  108.3305  106.0849 H   0  0  0  0  0  0  0  0  0  0  0  0
  120.6344  111.2037  110.5185 H   0  0  0  0  0  0  0  0  0  0  0  0
  119.3326  111.0020  111.6986 H   0  0  0  0  0  0  0  0  0  0  0  0
  119.1730  110.3083  110.0773 H   0  0  0  0  0  0  0  0  0  0  0  0
  122.2548  110.0804  112.3431 H   0  0  0  0  0  0  0  0  0  0  0  0
  121.7813  108.5229  113.0395 H   0  0  0  0  0  0  0  0  0  0  0  0
  120.8371  109.9747  113.3976 H   0  0  0  0  0  0  0  0  0  0  0  0
  119.6815  108.5544  111.7276 H   0  0  0  0  0  0  0  0  0  0  0  0
  122.3768  107.2784  104.0466 H   0  0  0  0  0  0  0  0  0  0  0  0
  121.3977  107.1257  105.4860 H   0  0  0  0  0  0  0  0  0  0  0  0
  1  3  2  0  0  0  0
  1  5  1  0  0  0  0
  2  4  1  0  0  0  0
  2  5  2  0  0  0  0
  3  6  1  0  0  0  0
  4  6  2  0  0  0  0
  5 11  1  0  0  0  0
  6 16  1  0  0  0  0
  7  8  1  0  0  0  0
  7 17  1  0  0  0  0
  7 19  2  0  0  0  0
  8 13  1  0  0  0  0
  9 10  1  0  0  0  0
  9 12  1  0  0  0  0
 10 12  1  0  0  0  0
 11 13  1  0  0  0  0
 11 17  1  0  0  0  0
 12 17  1  0  0  0  0
 13 18  1  0  0  0  0
 14 16  1  0  0  0  0
 15 16  1  0  0  0  0
  1 20  1  0  0  0  0
  2 21  1  0  0  0  0
  3 22  1  0  0  0  0
  4 23  1  0  0  0  0
  8 24  1  0  0  0  0
  8 25  1  0  0  0  0
  9 26  1  0  0  0  0
  9 27  1  0  0  0  0
 10 28  1  0  0  0  0
 10 29  1  0  0  0  0
 11 30  1  0  0  0  0
 12 31  1  0  0  0  0
 13 32  1  0  0  0  0
 14 33  1  0  0  0  0
 14 34  1  0  0  0  0
 14 35  1  0  0  0  0
 15 36  1  0  0  0  0
 15 37  1  0  0  0  0
 15 38  1  0  0  0  0
 16 39  1  0  0  0  0
 18 40  1  0  0  0  0
 18 41  1  0  0  0  0
M  END
> <FRED Chemgauss4 score>
-3.619543

$$$$
C89491263	P139889590
  -OEChem-05182014473D

 40 41  0     1  0  0  0  0  0999 V2000
  120.4405  108.6557  108.2051 C   0  0  0  0  0  0  0  0  0  0  0  0
  118.8491  108.4904  105.9198 C   0  0  0  0  0  0  0  0  0  0  0  0
  120.8603  107.8910  107.1167 C   0  0  0  0  0  0  0  0  0  0  0  0
  120.0647  107.8084  105.9740 C   0  0  0  0  0  0  0  0  0  0  0  0
  119.2249  109.3377  108.1509 C   0  0  0  0  0  0  0  0  0  0  0  0
  118.4292  109.2551  107.0082 C   0  0  0  0  0  0  0  0  0  0  0  0
  126.3450  105.6916  108.9064 C   0  0  0  0  0  0  0  0  0  0  0  0
  124.9126  106.0048  109.3372 C   0  0  0  0  0  0  0  0  0  0  0  0
  126.5032  106.2524  107.4932 C   0  0  0  0  0  0  0  0  0  0  0  0
  124.1865  106.4089  108.0535 C   0  0  2  0  0  0  0  0  0  0  0  0
  125.2815  107.1459  107.2734 C   0  0  2  0  0  0  0  0  0  0  0  0
  122.9472  107.2481  108.3238 C   0  0  0  0  0  0  0  0  0  0  0  0
  124.9636  107.3467  105.7997 C   0  0  0  0  0  0  0  0  0  0  0  0
  117.5850  109.7256  109.8294 C   0  0  0  0  0  0  0  0  0  0  0  0
  120.4714  107.0407  104.8599 N   0  0  0  0  0  0  0  0  0  0  0  0
  122.0790  107.2154  107.1927 N   0  0  0  0  0  0  0  0  0  0  0  0
  126.0750  107.9654  105.1744 O   0  0  0  0  0  0  0  0  0  0  0  0
  118.8162  110.0839  109.2133 O   0  0  0  0  0  0  0  0  0  0  0  0
  117.2597  109.9068  106.9506 F   0  0  0  0  0  0  0  0  0  0  0  0
  117.6693  110.0656  111.1415 F   0  0  0  0  0  0  0  0  0  0  0  0
  116.5877  110.4761  109.3000 F   0  0  0  0  0  0  0  0  0  0  0  0
  121.0568  108.7232  109.0987 H   0  0  0  0  0  0  0  0  0  0  0  0
  118.2203  108.4338  105.0349 H   0  0  0  0  0  0  0  0  0  0  0  0
  127.0609  106.1501  109.5974 H   0  0  0  0  0  0  0  0  0  0  0  0
  126.5316  104.6122  108.9108 H   0  0  0  0  0  0  0  0  0  0  0  0
  124.4371  105.1474  109.8245 H   0  0  0  0  0  0  0  0  0  0  0  0
  124.9210  106.8311  110.0587 H   0  0  0  0  0  0  0  0  0  0  0  0
  127.4403  106.8064  107.3781 H   0  0  0  0  0  0  0  0  0  0  0  0
  126.5190  105.4256  106.7723 H   0  0  0  0  0  0  0  0  0  0  0  0
  123.8887  105.5009  107.5117 H   0  0  0  0  0  0  0  0  0  0  0  0
  125.4708  108.1262  107.7318 H   0  0  0  0  0  0  0  0  0  0  0  0
  123.2481  108.2726  108.5105 H   0  0  0  0  0  0  0  0  0  0  0  0
  122.4239  106.8469  109.1838 H   0  0  0  0  0  0  0  0  0  0  0  0
  124.0876  107.9884  105.6874 H   0  0  0  0  0  0  0  0  0  0  0  0
  124.7739  106.3844  105.3205 H   0  0  0  0  0  0  0  0  0  0  0  0
  117.3578  108.6564  109.7593 H   0  0  0  0  0  0  0  0  0  0  0  0
  119.8595  106.9631  104.0744 H   0  0  0  0  0  0  0  0  0  0  0  0
  121.3186  106.5146  104.9164 H   0  0  0  0  0  0  0  0  0  0  0  0
  122.3525  106.6668  106.3746 H   0  0  0  0  0  0  0  0  0  0  0  0
  125.8452  108.0813  104.2370 H   0  0  0  0  0  0  0  0  0  0  0  0
  1  3  1  0  0  0  0
  1  5  2  0  0  0  0
  2  4  1  0  0  0  0
  2  6  2  0  0  0  0
  3  4  2  0  0  0  0
  3 16  1  0  0  0  0
  4 15  1  0  0  0  0
  5  6  1  0  0  0  0
  5 18  1  0  0  0  0
  6 19  1  0  0  0  0
  7  8  1  0  0  0  0
  7  9  1  0  0  0  0
  8 10  1  0  0  0  0
  9 11  1  0  0  0  0
 10 11  1  0  0  0  0
 10 12  1  0  0  0  0
 11 13  1  0  0  0  0
 12 16  1  0  0  0  0
 13 17  1  0  0  0  0
 14 18  1  0  0  0  0
 14 20  1  0  0  0  0
 14 21  1  0  0  0  0
  1 22  1  0  0  0  0
  2 23  1  0  0  0  0
  7 24  1  0  0  0  0
  7 25  1  0  0  0  0
  8 26  1  0  0  0  0
  8 27  1  0  0  0  0
  9 28  1  0  0  0  0
  9 29  1  0  0  0  0
 10 30  1  0  0  0  0
 11 31  1  0  0  0  0
 12 32  1  0  0  0  0
 12 33  1  0  0  0  0
 13 34  1  0  0  0  0
 13 35  1  0  0  0  0
 14 36  1  0  0  0  0
 15 37  1  0  0  0  0
 15 38  1  0  0  0  0
 16 39  1  0  0  0  0
 17 40  1  0  0  0  0
M  END
> <FRED Chemgauss4 score>
-3.614754

$$$$
C93829841	P147036827
  -OEChem-05182014473D

 51 53  0     1  0  0  0  0  0999 V2000
  125.4360  106.0332  107.8793 C   0  0  0  0  0  0  0  0  0  0  0  0
  116.8080  107.0781  105.7488 C   0  0  0  0  0  0  0  0  0  0  0  0
  118.1343  106.3323  105.8675 C   0  0  0  0  0  0  0  0  0  0  0  0
  123.0897  106.7251  105.5078 C   0  0  0  0  0  0  0  0  0  0  0  0
  124.1978  105.6874  105.7319 C   0  0  0  0  0  0  0  0  0  0  0  0
  119.9728  109.2023  108.6480 C   0  0  0  0  0  0  0  0  0  0  0  0
  122.9365  106.0447  107.7903 C   0  0  0  0  0  0  0  0  0  0  0  0
  117.0526  108.4315  106.4074 C   0  0  0  0  0  0  0  0  0  0  0  0
  118.9170  109.4807  107.5783 C   0  0  0  0  0  0  0  0  0  0  0  0
  121.3532  108.7639  108.1409 C   0  0  0  0  0  0  0  0  0  0  0  0
  120.3871  106.8344  106.9369 C   0  0  0  0  0  0  0  0  0  0  0  0
  122.7656  107.2720  106.8961 C   0  0  2  0  0  0  0  0  0  0  0  0
  119.1362  107.4126  106.2691 C   0  0  2  0  0  0  0  0  0  0  0  0
  124.2207  105.4088  107.2457 C   0  0  2  0  0  0  0  0  0  0  0  0
  125.6598  101.9720  107.3431 C   0  0  0  0  0  0  0  0  0  0  0  0
  125.5490  103.4227  107.0179 C   0  0  0  0  0  0  0  0  0  0  0  0
  118.2993  108.2325  107.1462 N   0  0  2  0  0  0  0  0  0  0  0  0
  121.4292  107.8613  106.9876 N   0  0  2  0  0  0  0  0  0  0  0  0
  125.5233  105.8246  109.2355 N   0  0  0  0  0  0  0  0  0  0  0  0
  124.3197  103.9896  107.5561 N   0  0  0  0  0  0  0  0  0  0  0  0
  126.2690  106.6531  107.2226 O   0  0  0  0  0  0  0  0  0  0  0  0
  116.5188  107.2046  104.7001 H   0  0  0  0  0  0  0  0  0  0  0  0
  116.0129  106.5201  106.2553 H   0  0  0  0  0  0  0  0  0  0  0  0
  118.0537  105.5555  106.6387 H   0  0  0  0  0  0  0  0  0  0  0  0
  118.4094  105.8442  104.9269 H   0  0  0  0  0  0  0  0  0  0  0  0
  123.4006  107.5137  104.8148 H   0  0  0  0  0  0  0  0  0  0  0  0
  122.2157  106.2272  105.0679 H   0  0  0  0  0  0  0  0  0  0  0  0
  123.9672  104.7882  105.1475 H   0  0  0  0  0  0  0  0  0  0  0  0
  125.1594  106.0637  105.3642 H   0  0  0  0  0  0  0  0  0  0  0  0
  120.1121  110.1156  109.2416 H   0  0  0  0  0  0  0  0  0  0  0  0
  119.5904  108.4516  109.3534 H   0  0  0  0  0  0  0  0  0  0  0  0
  123.0038  106.3201  108.8492 H   0  0  0  0  0  0  0  0  0  0  0  0
  122.0819  105.3643  107.6724 H   0  0  0  0  0  0  0  0  0  0  0  0
  117.1573  109.2060  105.6369 H   0  0  0  0  0  0  0  0  0  0  0  0
  116.2259  108.7094  107.0687 H   0  0  0  0  0  0  0  0  0  0  0  0
  118.1458  110.1075  108.0442 H   0  0  0  0  0  0  0  0  0  0  0  0
  119.3335  110.0547  106.7416 H   0  0  0  0  0  0  0  0  0  0  0  0
  121.9117  109.6718  107.8783 H   0  0  0  0  0  0  0  0  0  0  0  0
  121.8762  108.3240  109.0015 H   0  0  0  0  0  0  0  0  0  0  0  0
  120.1786  106.4074  107.9262 H   0  0  0  0  0  0  0  0  0  0  0  0
  120.7228  105.9972  106.3099 H   0  0  0  0  0  0  0  0  0  0  0  0
  123.5135  108.0342  107.1707 H   0  0  0  0  0  0  0  0  0  0  0  0
  119.4196  107.9736  105.3653 H   0  0  0  0  0  0  0  0  0  0  0  0
  125.6698  101.8141  108.4270 H   0  0  0  0  0  0  0  0  0  0  0  0
  124.8289  101.4090  106.9040 H   0  0  0  0  0  0  0  0  0  0  0  0
  126.5946  101.5701  106.9344 H   0  0  0  0  0  0  0  0  0  0  0  0
  125.5394  103.5731  105.9342 H   0  0  0  0  0  0  0  0  0  0  0  0
  126.3878  103.9810  107.4438 H   0  0  0  0  0  0  0  0  0  0  0  0
  124.7941  105.2879  109.6936 H   0  0  0  0  0  0  0  0  0  0  0  0
  126.2877  106.1859  109.7968 H   0  0  0  0  0  0  0  0  0  0  0  0
  123.5204  103.5011  107.1530 H   0  0  0  0  0  0  0  0  0  0  0  0
  1 14  1  0  0  0  0
  1 19  1  0  0  0  0
  1 21  2  0  0  0  0
  2  3  1  0  0  0  0
  2  8  1  0  0  0  0
  3 13  1  0  0  0  0
  4  5  1  0  0  0  0
  4 12  1  0  0  0  0
  5 14  1  0  0  0  0
  6  9  1  0  0  0  0
  6 10  1  0  0  0  0
  7 12  1  0  0  0  0
  7 14  1  0  0  0  0
  8 17  1  0  0  0  0
  9 17  1  0  0  0  0
 10 18  1  0  0  0  0
 11 13  1  0  0  0  0
 11 18  1  0  0  0  0
 12 18  1  0  0  0  0
 13 17  1  0  0  0  0
 14 20  1  0  0  0  0
 15 16  1  0  0  0  0
 16 20  1  0  0  0  0
  2 22  1  0  0  0  0
  2 23  1  0  0  0  0
  3 24  1  0  0  0  0
  3 25  1  0  0  0  0
  4 26  1  0  0  0  0
  4 27  1  0  0  0  0
  5 28  1  0  0  0  0
  5 29  1  0  0  0  0
  6 30  1  0  0  0  0
  6 31  1  0  0  0  0
  7 32  1  0  0  0  0
  7 33  1  0  0  0  0
  8 34  1  0  0  0  0
  8 35  1  0  0  0  0
  9 36  1  0  0  0  0
  9 37  1  0  0  0  0
 10 38  1  0  0  0  0
 10 39  1  0  0  0  0
 11 40  1  0  0  0  0
 11 41  1  0  0  0  0
 12 42  1  0  0  0  0
 13 43  1  0  0  0  0
 15 44  1  0  0  0  0
 15 45  1  0  0  0  0
 15 46  1  0  0  0  0
 16 47  1  0  0  0  0
 16 48  1  0  0  0  0
 19 49  1  0  0  0  0
 19 50  1  0  0  0  0
 20 51  1  0  0  0  0
M  END
> <FRED Chemgauss4 score>
-3.608162

$$$$
C01719293	P06382694
  -OEChem-05182014473D

 16 16  0     0  0  0  0  0  0999 V2000
  122.8235  106.4907  107.5558 C   0  0  0  0  0  0  0  0  0  0  0  0
  124.2149  107.3006  106.0835 C   0  0  0  0  0  0  0  0  0  0  0  0
  125.2286  104.6764  108.1545 C   0  0  0  0  0  0  0  0  0  0  0  0
  122.3456  105.7636  108.7664 C   0  0  0  0  0  0  0  0  0  0  0  0
  122.0372  107.0887  106.7048 N   0  0  0  0  0  0  0  0  0  0  0  0
  122.8881  107.6102  105.7636 N   0  0  0  0  0  0  0  0  0  0  0  0
  124.1319  106.5766  107.2478 N   0  0  0  0  0  0  0  0  0  0  0  0
  125.1619  106.0463  107.9486 N   0  0  0  0  0  0  0  0  0  0  0  0
  126.0946  104.0603  108.7632 O   0  0  0  0  0  0  0  0  0  0  0  0
  125.5451  107.7460  105.1987 S   0  0  0  0  0  0  0  0  0  0  0  0
  124.3738  104.1586  107.6880 H   0  0  0  0  0  0  0  0  0  0  0  0
  122.1594  104.7170  108.5223 H   0  0  0  0  0  0  0  0  0  0  0  0
  121.4221  106.2153  109.1319 H   0  0  0  0  0  0  0  0  0  0  0  0
  123.0977  105.8187  109.5547 H   0  0  0  0  0  0  0  0  0  0  0  0
  122.5292  108.1339  104.9756 H   0  0  0  0  0  0  0  0  0  0  0  0
  125.8922  106.6607  108.3272 H   0  0  0  0  0  0  0  0  0  0  0  0
  1  4  1  0  0  0  0
  1  5  2  0  0  0  0
  1  7  1  0  0  0  0
  2  6  1  0  0  0  0
  2  7  1  0  0  0  0
  2 10  2  0  0  0  0
  3  8  1  0  0  0  0
  3  9  2  0  0  0  0
  5  6  1  0  0  0  0
  7  8  1  0  0  0  0
  3 11  1  0  0  0  0
  4 12  1  0  0  0  0
  4 13  1  0  0  0  0
  4 14  1  0  0  0  0
  6 15  1  0  0  0  0
  8 16  1  0  0  0  0
M  END
> <FRED Chemgauss4 score>
-3.597679

$$$$
C97617202	P154726500
  -OEChem-05182014473D

 37 38  0     1  0  0  0  0  0999 V2000
  126.4986  105.9781  109.4961 C   0  0  0  0  0  0  0  0  0  0  0  0
  123.0809  106.5788  106.3012 C   0  0  0  0  0  0  0  0  0  0  0  0
  127.0180  104.8015  110.0115 C   0  0  0  0  0  0  0  0  0  0  0  0
  125.1946  107.2491  105.4412 C   0  0  0  0  0  0  0  0  0  0  0  0
  123.5121  106.7257  103.9669 C   0  0  0  0  0  0  0  0  0  0  0  0
  125.6588  103.5134  108.6805 C   0  0  0  0  0  0  0  0  0  0  0  0
  125.5091  105.8818  108.5240 C   0  0  0  0  0  0  0  0  0  0  0  0
  124.3880  106.9898  106.5375 C   0  0  0  0  0  0  0  0  0  0  0  0
  122.6267  106.4417  104.9942 C   0  0  0  0  0  0  0  0  0  0  0  0
  125.0755  104.6296  108.1029 C   0  0  0  0  0  0  0  0  0  0  0  0
  120.4451  103.8136  104.8172 C   0  0  0  0  0  0  0  0  0  0  0  0
  120.4635  105.1503  102.6807 C   0  0  0  0  0  0  0  0  0  0  0  0
  124.9038  107.1462  107.9237 C   0  0  1  0  0  0  0  0  0  0  0  0
  121.1930  104.8389  103.9786 C   0  0  0  0  0  0  0  0  0  0  0  0
  126.6223  103.5673  109.6274 N   0  0  0  0  0  0  0  0  0  0  0  0
  124.7889  107.1272  104.1574 N   0  0  0  0  0  0  0  0  0  0  0  0
  123.6669  109.0387  108.5205 N   0  0  0  0  0  0  0  0  0  0  0  0
  123.8566  107.6637  108.8269 N   0  0  0  0  0  0  0  0  0  0  0  0
  121.3449  106.0388  104.7309 O   0  0  0  0  0  0  0  0  0  0  0  0
  124.1248  104.4976  107.1701 F   0  0  0  0  0  0  0  0  0  0  0  0
  126.8581  106.9399  109.8457 H   0  0  0  0  0  0  0  0  0  0  0  0
  122.4146  106.3647  107.1329 H   0  0  0  0  0  0  0  0  0  0  0  0
  127.7908  104.8220  110.7729 H   0  0  0  0  0  0  0  0  0  0  0  0
  126.2235  107.5732  105.5639 H   0  0  0  0  0  0  0  0  0  0  0  0
  123.2115  106.6366  102.9276 H   0  0  0  0  0  0  0  0  0  0  0  0
  125.3559  102.5141  108.3862 H   0  0  0  0  0  0  0  0  0  0  0  0
  119.4358  104.1594  105.0602 H   0  0  0  0  0  0  0  0  0  0  0  0
  120.3692  102.8630  104.2784 H   0  0  0  0  0  0  0  0  0  0  0  0
  120.9779  103.6035  105.7512 H   0  0  0  0  0  0  0  0  0  0  0  0
  119.4546  105.5280  102.8727 H   0  0  0  0  0  0  0  0  0  0  0  0
  120.3884  104.2508  102.0604 H   0  0  0  0  0  0  0  0  0  0  0  0
  121.0097  105.8945  102.0905 H   0  0  0  0  0  0  0  0  0  0  0  0
  125.6777  107.9369  107.9429 H   0  0  0  0  0  0  0  0  0  0  0  0
  122.1967  104.4641  103.7529 H   0  0  0  0  0  0  0  0  0  0  0  0
  124.2157  109.2876  107.6980 H   0  0  0  0  0  0  0  0  0  0  0  0
  122.6918  109.1709  108.2549 H   0  0  0  0  0  0  0  0  0  0  0  0
  124.1778  107.5615  109.7819 H   0  0  0  0  0  0  0  0  0  0  0  0
  1  3  2  0  0  0  0
  1  7  1  0  0  0  0
  2  8  2  0  0  0  0
  2  9  1  0  0  0  0
  3 15  1  0  0  0  0
  4  8  1  0  0  0  0
  4 16  2  0  0  0  0
  5  9  2  0  0  0  0
  5 16  1  0  0  0  0
  6 10  1  0  0  0  0
  6 15  2  0  0  0  0
  7 10  2  0  0  0  0
  7 13  1  0  0  0  0
  8 13  1  0  0  0  0
  9 19  1  0  0  0  0
 10 20  1  0  0  0  0
 11 14  1  0  0  0  0
 12 14  1  0  0  0  0
 13 18  1  0  0  0  0
 14 19  1  0  0  0  0
 17 18  1  0  0  0  0
  1 21  1  0  0  0  0
  2 22  1  0  0  0  0
  3 23  1  0  0  0  0
  4 24  1  0  0  0  0
  5 25  1  0  0  0  0
  6 26  1  0  0  0  0
 11 27  1  0  0  0  0
 11 28  1  0  0  0  0
 11 29  1  0  0  0  0
 12 30  1  0  0  0  0
 12 31  1  0  0  0  0
 12 32  1  0  0  0  0
 13 33  1  0  0  0  0
 14 34  1  0  0  0  0
 17 35  1  0  0  0  0
 17 36  1  0  0  0  0
 18 37  1  0  0  0  0
M  END
> <FRED Chemgauss4 score>
-3.597031

$$$$
C74241079	P115716858
  -OEChem-05182014473D

 34 34  0     1  0  0  0  0  0999 V2000
  125.1159  106.6906  108.4291 C   0  0  0  0  0  0  0  0  0  0  0  0
  126.2186  104.8833  108.6490 C   0  0  0  0  0  0  0  0  0  0  0  0
  124.7862  105.9237  107.3365 C   0  0  0  0  0  0  0  0  0  0  0  0
  120.8202  107.1616  108.0970 C   0  0  0  0  0  0  0  0  0  0  0  0
  121.2874  106.0491  104.8473 C   0  0  0  0  0  0  0  0  0  0  0  0
  125.5075  103.6289  106.6054 C   0  0  0  0  0  0  0  0  0  0  0  0
  121.9539  106.3183  107.6215 C   0  0  0  0  0  0  0  0  0  0  0  0
  121.8588  107.2970  105.4294 C   0  0  0  0  0  0  0  0  0  0  0  0
  124.5653  106.8411  104.9665 C   0  0  0  0  0  0  0  0  0  0  0  0
  123.8583  106.1851  106.1628 C   0  0  2  0  0  0  0  0  0  0  0  0
  126.0082  106.0374  109.2420 N   0  0  0  0  0  0  0  0  0  0  0  0
  125.5006  104.7691  107.4910 N   0  0  0  0  0  0  0  0  0  0  0  0
  124.7648  108.2532  105.1631 N   0  0  0  0  0  0  0  0  0  0  0  0
  122.7163  106.9999  106.5761 N   0  0  0  0  0  0  0  0  0  0  0  0
  124.7575  107.6802  108.6738 H   0  0  0  0  0  0  0  0  0  0  0  0
  126.8727  104.0998  109.0067 H   0  0  0  0  0  0  0  0  0  0  0  0
  121.1845  108.1059  108.5159 H   0  0  0  0  0  0  0  0  0  0  0  0
  120.1226  107.3745  107.2797 H   0  0  0  0  0  0  0  0  0  0  0  0
  120.2689  106.6332  108.8839 H   0  0  0  0  0  0  0  0  0  0  0  0
  122.0824  105.3799  104.5008 H   0  0  0  0  0  0  0  0  0  0  0  0
  120.6679  105.5237  105.5822 H   0  0  0  0  0  0  0  0  0  0  0  0
  120.6550  106.2966  103.9863 H   0  0  0  0  0  0  0  0  0  0  0  0
  124.7187  102.9452  106.9298 H   0  0  0  0  0  0  0  0  0  0  0  0
  125.3261  103.9632  105.5801 H   0  0  0  0  0  0  0  0  0  0  0  0
  126.4839  103.1389  106.6549 H   0  0  0  0  0  0  0  0  0  0  0  0
  121.5831  105.3771  107.2045 H   0  0  0  0  0  0  0  0  0  0  0  0
  122.6413  106.0935  108.4424 H   0  0  0  0  0  0  0  0  0  0  0  0
  121.0596  107.9606  105.7732 H   0  0  0  0  0  0  0  0  0  0  0  0
  122.4642  107.8286  104.6893 H   0  0  0  0  0  0  0  0  0  0  0  0
  125.5606  106.4057  104.8212 H   0  0  0  0  0  0  0  0  0  0  0  0
  124.0095  106.7164  104.0310 H   0  0  0  0  0  0  0  0  0  0  0  0
  123.4527  105.2229  105.8236 H   0  0  0  0  0  0  0  0  0  0  0  0
  124.8652  108.8503  104.3587 H   0  0  0  0  0  0  0  0  0  0  0  0
  125.0030  108.5909  106.0813 H   0  0  0  0  0  0  0  0  0  0  0  0
  1  3  2  0  0  0  0
  1 11  1  0  0  0  0
  2 11  2  0  0  0  0
  2 12  1  0  0  0  0
  3 10  1  0  0  0  0
  3 12  1  0  0  0  0
  4  7  1  0  0  0  0
  5  8  1  0  0  0  0
  6 12  1  0  0  0  0
  7 14  1  0  0  0  0
  8 14  1  0  0  0  0
  9 10  1  0  0  0  0
  9 13  1  0  0  0  0
 10 14  1  0  0  0  0
  1 15  1  0  0  0  0
  2 16  1  0  0  0  0
  4 17  1  0  0  0  0
  4 18  1  0  0  0  0
  4 19  1  0  0  0  0
  5 20  1  0  0  0  0
  5 21  1  0  0  0  0
  5 22  1  0  0  0  0
  6 23  1  0  0  0  0
  6 24  1  0  0  0  0
  6 25  1  0  0  0  0
  7 26  1  0  0  0  0
  7 27  1  0  0  0  0
  8 28  1  0  0  0  0
  8 29  1  0  0  0  0
  9 30  1  0  0  0  0
  9 31  1  0  0  0  0
 10 32  1  0  0  0  0
 13 33  1  0  0  0  0
 13 34  1  0  0  0  0
M  END
> <FRED Chemgauss4 score>
-3.568655

$$$$
C50586414	P75655837
  -OEChem-05182014473D

 29 29  0     1  0  0  0  0  0999 V2000
  119.3460  107.9961  107.4828 C   0  0  0  0  0  0  0  0  0  0  0  0
  119.5425  107.5212  106.1723 C   0  0  0  0  0  0  0  0  0  0  0  0
  120.5717  107.8553  108.0864 C   0  0  0  0  0  0  0  0  0  0  0  0
  118.5576  107.4364  105.0785 C   0  0  0  0  0  0  0  0  0  0  0  0
  121.0299  108.1704  109.4536 C   0  0  0  0  0  0  0  0  0  0  0  0
  125.2371  107.8543  106.8372 C   0  0  0  0  0  0  0  0  0  0  0  0
  122.8705  106.9731  107.2972 C   0  0  2  0  0  0  0  0  0  0  0  0
  123.7871  107.7943  106.3429 C   0  0  2  0  0  0  0  0  0  0  0  0
  123.0512  105.4567  107.1523 C   0  0  0  0  0  0  0  0  0  0  0  0
  120.7945  107.1097  105.9552 N   0  0  0  0  0  0  0  0  0  0  0  0
  121.3959  107.3257  107.1375 N   0  0  0  0  0  0  0  0  0  0  0  0
  123.8112  107.2103  104.9974 N   0  0  0  0  0  0  0  0  0  0  0  0
  122.2781  104.7839  108.0349 F   0  0  0  0  0  0  0  0  0  0  0  0
  122.6879  105.0357  105.9185 F   0  0  0  0  0  0  0  0  0  0  0  0
  124.3294  105.0743  107.3587 F   0  0  0  0  0  0  0  0  0  0  0  0
  117.9084  108.5998  108.1413 Cl  0  0  0  0  0  0  0  0  0  0  0  0
  118.5480  108.3612  104.4775 H   0  0  0  0  0  0  0  0  0  0  0  0
  118.7680  106.5959  104.3941 H   0  0  0  0  0  0  0  0  0  0  0  0
  117.5325  107.2719  105.4542 H   0  0  0  0  0  0  0  0  0  0  0  0
  120.8943  107.3081  110.1268 H   0  0  0  0  0  0  0  0  0  0  0  0
  122.0970  108.4502  109.4784 H   0  0  0  0  0  0  0  0  0  0  0  0
  120.4812  109.0239  109.8876 H   0  0  0  0  0  0  0  0  0  0  0  0
  125.6594  106.8479  106.9410 H   0  0  0  0  0  0  0  0  0  0  0  0
  125.3078  108.3510  107.8116 H   0  0  0  0  0  0  0  0  0  0  0  0
  125.8784  108.3949  106.1341 H   0  0  0  0  0  0  0  0  0  0  0  0
  123.1651  107.2223  108.3270 H   0  0  0  0  0  0  0  0  0  0  0  0
  123.4104  108.8205  106.2554 H   0  0  0  0  0  0  0  0  0  0  0  0
  124.5988  107.4043  104.4232 H   0  0  0  0  0  0  0  0  0  0  0  0
  122.9656  106.8239  104.6459 H   0  0  0  0  0  0  0  0  0  0  0  0
  1  2  1  0  0  0  0
  1  3  2  0  0  0  0
  1 16  1  0  0  0  0
  2  4  1  0  0  0  0
  2 10  2  0  0  0  0
  3  5  1  0  0  0  0
  3 11  1  0  0  0  0
  6  8  1  0  0  0  0
  7  8  1  0  0  0  0
  7  9  1  0  0  0  0
  7 11  1  0  0  0  0
  8 12  1  0  0  0  0
  9 13  1  0  0  0  0
  9 14  1  0  0  0  0
  9 15  1  0  0  0  0
 10 11  1  0  0  0  0
  4 17  1  0  0  0  0
  4 18  1  0  0  0  0
  4 19  1  0  0  0  0
  5 20  1  0  0  0  0
  5 21  1  0  0  0  0
  5 22  1  0  0  0  0
  6 23  1  0  0  0  0
  6 24  1  0  0  0  0
  6 25  1  0  0  0  0
  7 26  1  0  0  0  0
  8 27  1  0  0  0  0
 12 28  1  0  0  0  0
 12 29  1  0  0  0  0
M  END
> <FRED Chemgauss4 score>
-3.563572

$$$$
C98234770	P156239239
  -OEChem-05182014473D

 19 19  0     0  0  0  0  0  0999 V2000
  124.5605  107.3735  105.7287 C   0  0  0  0  0  0  0  0  0  0  0  0
  122.1985  107.2317  106.0757 C   0  0  0  0  0  0  0  0  0  0  0  0
  123.4065  107.5732  106.5417 C   0  0  0  0  0  0  0  0  0  0  0  0
  123.4852  108.1584  107.9199 C   0  0  0  0  0  0  0  0  0  0  0  0
  119.8786  106.9085  105.9704 C   0  0  0  0  0  0  0  0  0  0  0  0
  120.5268  106.4339  104.6382 C   0  0  0  0  0  0  0  0  0  0  0  0
  125.4999  107.2112  105.0669 N   0  0  0  0  0  0  0  0  0  0  0  0
  121.0131  107.3708  106.7529 N   0  0  0  0  0  0  0  0  0  0  0  0
  121.9437  106.6860  104.8426 N   0  0  0  0  0  0  0  0  0  0  0  0
  124.2552  107.4449  108.8102 N   0  0  0  0  0  0  0  0  0  0  0  0
  122.9046  109.1967  108.2286 O   0  0  0  0  0  0  0  0  0  0  0  0
  119.1667  107.7208  105.7949 H   0  0  0  0  0  0  0  0  0  0  0  0
  119.3656  106.0838  106.4746 H   0  0  0  0  0  0  0  0  0  0  0  0
  120.3391  105.3695  104.4658 H   0  0  0  0  0  0  0  0  0  0  0  0
  120.1460  107.0085  103.7883 H   0  0  0  0  0  0  0  0  0  0  0  0
  120.9539  107.7535  107.6865 H   0  0  0  0  0  0  0  0  0  0  0  0
  122.6694  106.4927  104.1658 H   0  0  0  0  0  0  0  0  0  0  0  0
  124.7155  106.5924  108.5093 H   0  0  0  0  0  0  0  0  0  0  0  0
  124.3648  107.7674  109.7662 H   0  0  0  0  0  0  0  0  0  0  0  0
  1  3  1  0  0  0  0
  1  7  3  0  0  0  0
  2  3  2  0  0  0  0
  2  8  1  0  0  0  0
  2  9  1  0  0  0  0
  3  4  1  0  0  0  0
  4 10  1  0  0  0  0
  4 11  2  0  0  0  0
  5  6  1  0  0  0  0
  5  8  1  0  0  0  0
  6  9  1  0  0  0  0
  5 12  1  0  0  0  0
  5 13  1  0  0  0  0
  6 14  1  0  0  0  0
  6 15  1  0  0  0  0
  8 16  1  0  0  0  0
  9 17  1  0  0  0  0
 10 18  1  0  0  0  0
 10 19  1  0  0  0  0
M  END
> <FRED Chemgauss4 score>
-3.552259

$$$$
C77727057	P121295132
  -OEChem-05182014473D

 33 34  0     0  0  0  0  0  0999 V2000
  125.3958  105.4962  108.1972 C   0  0  0  0  0  0  0  0  0  0  0  0
  118.6342  105.9850  104.1300 C   0  0  0  0  0  0  0  0  0  0  0  0
  126.1166  103.3417  108.6880 C   0  0  0  0  0  0  0  0  0  0  0  0
  125.8083  104.5798  109.2073 C   0  0  0  0  0  0  0  0  0  0  0  0
  117.7055  105.3170  103.3096 C   0  0  0  0  0  0  0  0  0  0  0  0
  125.4048  104.9235  106.9442 C   0  0  0  0  0  0  0  0  0  0  0  0
  119.8601  105.5945  103.6492 C   0  0  0  0  0  0  0  0  0  0  0  0
  121.5124  106.7790  105.1025 C   0  0  0  0  0  0  0  0  0  0  0  0
  122.9991  106.9011  105.2510 C   0  0  0  0  0  0  0  0  0  0  0  0
  116.2360  105.3765  103.3861 C   0  0  0  0  0  0  0  0  0  0  0  0
  120.5683  104.0715  101.7778 C   0  0  0  0  0  0  0  0  0  0  0  0
  125.0412  105.5484  105.6284 C   0  0  0  0  0  0  0  0  0  0  0  0
  118.2912  104.5598  102.3782 N   0  0  0  0  0  0  0  0  0  0  0  0
  119.6012  104.7496  102.6103 N   0  0  0  0  0  0  0  0  0  0  0  0
  121.1669  105.9361  104.0676 N   0  0  0  0  0  0  0  0  0  0  0  0
  123.6123  105.6891  105.4734 N   0  0  0  0  0  0  0  0  0  0  0  0
  120.8284  107.4042  105.8956 O   0  0  0  0  0  0  0  0  0  0  0  0
  123.4953  108.0115  105.1479 O   0  0  0  0  0  0  0  0  0  0  0  0
  125.9088  103.2876  106.9891 S   0  0  0  0  0  0  0  0  0  0  0  0
  125.9032  105.0526  111.0266 Br  0  0  0  0  0  0  0  0  0  0  0  0
  125.1058  106.5247  108.3749 H   0  0  0  0  0  0  0  0  0  0  0  0
  118.4407  106.6560  104.9548 H   0  0  0  0  0  0  0  0  0  0  0  0
  126.4543  102.4623  109.2190 H   0  0  0  0  0  0  0  0  0  0  0  0
  115.8347  106.1908  102.7587 H   0  0  0  0  0  0  0  0  0  0  0  0
  115.7624  104.4359  103.0525 H   0  0  0  0  0  0  0  0  0  0  0  0
  115.8785  105.5448  104.4178 H   0  0  0  0  0  0  0  0  0  0  0  0
  120.7933  103.1066  102.2396 H   0  0  0  0  0  0  0  0  0  0  0  0
  120.1507  103.9283  100.7773 H   0  0  0  0  0  0  0  0  0  0  0  0
  121.4729  104.6816  101.7043 H   0  0  0  0  0  0  0  0  0  0  0  0
  125.4900  106.5435  105.5363 H   0  0  0  0  0  0  0  0  0  0  0  0
  125.4110  104.9462  104.7918 H   0  0  0  0  0  0  0  0  0  0  0  0
  121.9348  105.5147  103.5491 H   0  0  0  0  0  0  0  0  0  0  0  0
  123.0450  104.8484  105.5333 H   0  0  0  0  0  0  0  0  0  0  0  0
  1  4  1  0  0  0  0
  1  6  2  0  0  0  0
  2  5  1  0  0  0  0
  2  7  2  0  0  0  0
  3  4  2  0  0  0  0
  3 19  1  0  0  0  0
  4 20  1  0  0  0  0
  5 10  1  0  0  0  0
  5 13  2  0  0  0  0
  6 12  1  0  0  0  0
  6 19  1  0  0  0  0
  7 14  1  0  0  0  0
  7 15  1  0  0  0  0
  8  9  1  0  0  0  0
  8 15  1  0  0  0  0
  8 17  2  0  0  0  0
  9 16  1  0  0  0  0
  9 18  2  0  0  0  0
 11 14  1  0  0  0  0
 12 16  1  0  0  0  0
 13 14  1  0  0  0  0
  1 21  1  0  0  0  0
  2 22  1  0  0  0  0
  3 23  1  0  0  0  0
 10 24  1  0  0  0  0
 10 25  1  0  0  0  0
 10 26  1  0  0  0  0
 11 27  1  0  0  0  0
 11 28  1  0  0  0  0
 11 29  1  0  0  0  0
 12 30  1  0  0  0  0
 12 31  1  0  0  0  0
 15 32  1  0  0  0  0
 16 33  1  0  0  0  0
M  END
> <FRED Chemgauss4 score>
-3.546566

$$$$
C95023555	P148959325
  -OEChem-05182014473D

 33 34  0     1  0  0  0  0  0999 V2000
  120.2676  104.7010  106.4888 C   0  0  0  0  0  0  0  0  0  0  0  0
  119.6759  107.0694  105.1383 C   0  0  0  0  0  0  0  0  0  0  0  0
  121.3001  105.5085  106.0117 C   0  0  0  0  0  0  0  0  0  0  0  0
  121.0043  106.6926  105.3365 C   0  0  0  0  0  0  0  0  0  0  0  0
  118.9392  105.0777  106.2906 C   0  0  0  0  0  0  0  0  0  0  0  0
  118.6434  106.2619  105.6154 C   0  0  0  0  0  0  0  0  0  0  0  0
  124.8041  104.3930  105.8016 C   0  0  0  0  0  0  0  0  0  0  0  0
  123.3684  104.2846  105.2919 C   0  0  0  0  0  0  0  0  0  0  0  0
  123.3935  105.4787  107.3958 C   0  0  0  0  0  0  0  0  0  0  0  0
  124.6219  104.5646  107.3065 C   0  0  2  0  0  0  0  0  0  0  0  0
  127.2815  106.9963  108.0453 C   0  0  0  0  0  0  0  0  0  0  0  0
  125.8472  105.1353  107.9980 C   0  0  0  0  0  0  0  0  0  0  0  0
  122.6060  105.1182  106.2179 N   0  0  3  0  0  0  0  0  0  0  0  0
  122.0349  107.5249  104.8452 N   0  0  0  0  0  0  0  0  0  0  0  0
  126.1391  106.4052  107.4382 O   0  0  0  0  0  0  0  0  0  0  0  0
  117.7042  104.0355  106.9050 Cl  0  0  0  0  0  0  0  0  0  0  0  0
  117.0181  106.7822  105.3389 Cl  0  0  0  0  0  0  0  0  0  0  0  0
  120.5043  103.7784  107.0148 H   0  0  0  0  0  0  0  0  0  0  0  0
  119.4511  107.9942  104.6108 H   0  0  0  0  0  0  0  0  0  0  0  0
  125.4019  103.5139  105.5432 H   0  0  0  0  0  0  0  0  0  0  0  0
  125.2887  105.2753  105.3652 H   0  0  0  0  0  0  0  0  0  0  0  0
  123.2846  104.6371  104.2588 H   0  0  0  0  0  0  0  0  0  0  0  0
  123.0181  103.2473  105.3455 H   0  0  0  0  0  0  0  0  0  0  0  0
  122.8450  105.2987  108.3272 H   0  0  0  0  0  0  0  0  0  0  0  0
  123.6649  106.5393  107.3448 H   0  0  0  0  0  0  0  0  0  0  0  0
  124.3770  103.5897  107.7497 H   0  0  0  0  0  0  0  0  0  0  0  0
  127.4745  107.9704  107.5893 H   0  0  0  0  0  0  0  0  0  0  0  0
  128.1462  106.3415  107.9113 H   0  0  0  0  0  0  0  0  0  0  0  0
  127.0887  107.1280  109.1127 H   0  0  0  0  0  0  0  0  0  0  0  0
  126.7064  104.4765  107.8521 H   0  0  0  0  0  0  0  0  0  0  0  0
  125.6589  105.2531  109.0677 H   0  0  0  0  0  0  0  0  0  0  0  0
  121.7923  108.3421  104.3247 H   0  0  0  0  0  0  0  0  0  0  0  0
  122.9845  107.2319  104.9455 H   0  0  0  0  0  0  0  0  0  0  0  0
  1  3  1  0  0  0  0
  1  5  2  0  0  0  0
  2  4  1  0  0  0  0
  2  6  2  0  0  0  0
  3  4  2  0  0  0  0
  3 13  1  0  0  0  0
  4 14  1  0  0  0  0
  5  6  1  0  0  0  0
  5 16  1  0  0  0  0
  6 17  1  0  0  0  0
  7  8  1  0  0  0  0
  7 10  1  0  0  0  0
  8 13  1  0  0  0  0
  9 10  1  0  0  0  0
  9 13  1  0  0  0  0
 10 12  1  0  0  0  0
 11 15  1  0  0  0  0
 12 15  1  0  0  0  0
  1 18  1  0  0  0  0
  2 19  1  0  0  0  0
  7 20  1  0  0  0  0
  7 21  1  0  0  0  0
  8 22  1  0  0  0  0
  8 23  1  0  0  0  0
  9 24  1  0  0  0  0
  9 25  1  0  0  0  0
 10 26  1  0  0  0  0
 11 27  1  0  0  0  0
 11 28  1  0  0  0  0
 11 29  1  0  0  0  0
 12 30  1  0  0  0  0
 12 31  1  0  0  0  0
 14 32  1  0  0  0  0
 14 33  1  0  0  0  0
M  END
> <FRED Chemgauss4 score>
-3.527208

$$$$
C04775726	P07275946
  -OEChem-05182014473D

 12 11  0     0  0  0  0  0  0999 V2000
  123.1995  106.3148  105.7969 C   0  0  0  0  0  0  0  0  0  0  0  0
  124.5750  106.8922  105.9168 C   0  0  0  0  0  0  0  0  0  0  0  0
  123.0999  105.0714  106.3493 N   0  0  0  0  0  0  0  0  0  0  0  0
  124.7390  107.6319  107.0513 N   0  0  0  0  0  0  0  0  0  0  0  0
  122.3448  106.9787  105.2326 O   0  0  0  0  0  0  0  0  0  0  0  0
  125.3741  106.6637  105.0229 O   0  0  0  0  0  0  0  0  0  0  0  0
  121.8410  104.4638  106.2603 O   0  0  0  0  0  0  0  0  0  0  0  0
  126.0011  108.2152  107.2216 O   0  0  0  0  0  0  0  0  0  0  0  0
  123.8875  104.6159  106.7962 H   0  0  0  0  0  0  0  0  0  0  0  0
  123.9943  107.7518  107.7285 H   0  0  0  0  0  0  0  0  0  0  0  0
  121.3479  105.1569  105.7895 H   0  0  0  0  0  0  0  0  0  0  0  0
  126.4452  107.9032  106.4149 H   0  0  0  0  0  0  0  0  0  0  0  0
  1  2  1  0  0  0  0
  1  3  1  0  0  0  0
  1  5  2  0  0  0  0
  2  4  1  0  0  0  0
  2  6  2  0  0  0  0
  3  7  1  0  0  0  0
  4  8  1  0  0  0  0
  3  9  1  0  0  0  0
  4 10  1  0  0  0  0
  7 11  1  0  0  0  0
  8 12  1  0  0  0  0
M  END
> <FRED Chemgauss4 score>
-3.509376

$$$$
C87303022	P136588315
  -OEChem-05182014473D

 37 38  0     1  0  0  0  0  0999 V2000
  126.8593  106.6021  109.2228 C   0  0  0  0  0  0  0  0  0  0  0  0
  125.4646  106.6232  109.2239 C   0  0  0  0  0  0  0  0  0  0  0  0
  127.5475  106.0383  108.1485 C   0  0  0  0  0  0  0  0  0  0  0  0
  125.4463  105.5163  107.0764 C   0  0  0  0  0  0  0  0  0  0  0  0
  124.7581  106.0803  108.1507 C   0  0  0  0  0  0  0  0  0  0  0  0
  126.8410  105.4954  107.0753 C   0  0  0  0  0  0  0  0  0  0  0  0
  120.8880  105.4851  104.2297 C   0  0  0  0  0  0  0  0  0  0  0  0
  120.2995  104.5756  105.0833 C   0  0  0  0  0  0  0  0  0  0  0  0
  121.8900  106.0804  106.0876 C   0  0  0  0  0  0  0  0  0  0  0  0
  120.6290  105.6110  102.7808 C   0  0  0  0  0  0  0  0  0  0  0  0
  119.2979  103.5256  104.8107 C   0  0  0  0  0  0  0  0  0  0  0  0
  122.6675  106.7513  109.4089 C   0  0  0  0  0  0  0  0  0  0  0  0
  123.0557  108.1663  106.7583 C   0  0  0  0  0  0  0  0  0  0  0  0
  123.2670  106.1023  108.1525 C   0  0  1  0  0  0  0  0  0  0  0  0
  121.8000  106.3491  104.8039 N   0  0  0  0  0  0  0  0  0  0  0  0
  127.5370  104.9256  105.9889 N   0  0  0  0  0  0  0  0  0  0  0  0
  122.7222  106.7628  106.9783 N   0  0  0  0  0  0  0  0  0  0  0  0
  120.9066  104.8009  106.6714 S   0  0  0  0  0  0  0  0  0  0  0  0
  127.4094  107.0250  110.0586 H   0  0  0  0  0  0  0  0  0  0  0  0
  124.9365  107.0646  110.0652 H   0  0  0  0  0  0  0  0  0  0  0  0
  128.6344  106.0274  108.1578 H   0  0  0  0  0  0  0  0  0  0  0  0
  124.8939  105.0937  106.2402 H   0  0  0  0  0  0  0  0  0  0  0  0
  119.8041  106.3149  102.5856 H   0  0  0  0  0  0  0  0  0  0  0  0
  121.5156  105.9718  102.2329 H   0  0  0  0  0  0  0  0  0  0  0  0
  120.3605  104.6434  102.3242 H   0  0  0  0  0  0  0  0  0  0  0  0
  119.7840  102.5731  104.5439 H   0  0  0  0  0  0  0  0  0  0  0  0
  118.6479  103.3381  105.6822 H   0  0  0  0  0  0  0  0  0  0  0  0
  118.6242  103.8023  103.9818 H   0  0  0  0  0  0  0  0  0  0  0  0
  123.0227  107.7817  109.5191 H   0  0  0  0  0  0  0  0  0  0  0  0
  121.5729  106.7729  109.3614 H   0  0  0  0  0  0  0  0  0  0  0  0
  122.9393  106.2013  110.3169 H   0  0  0  0  0  0  0  0  0  0  0  0
  123.7134  108.5254  107.5542 H   0  0  0  0  0  0  0  0  0  0  0  0
  122.1469  108.7742  106.7518 H   0  0  0  0  0  0  0  0  0  0  0  0
  123.5656  108.2878  105.7988 H   0  0  0  0  0  0  0  0  0  0  0  0
  122.8699  105.0729  108.1033 H   0  0  0  0  0  0  0  0  0  0  0  0
  128.5363  104.9593  105.9780 H   0  0  0  0  0  0  0  0  0  0  0  0
  127.0201  104.5825  105.2047 H   0  0  0  0  0  0  0  0  0  0  0  0
  1  2  2  0  0  0  0
  1  3  1  0  0  0  0
  2  5  1  0  0  0  0
  3  6  2  0  0  0  0
  4  5  2  0  0  0  0
  4  6  1  0  0  0  0
  5 14  1  0  0  0  0
  6 16  1  0  0  0  0
  7  8  2  0  0  0  0
  7 10  1  0  0  0  0
  7 15  1  0  0  0  0
  8 11  1  0  0  0  0
  8 18  1  0  0  0  0
  9 15  2  0  0  0  0
  9 17  1  0  0  0  0
  9 18  1  0  0  0  0
 12 14  1  0  0  0  0
 13 17  1  0  0  0  0
 14 17  1  0  0  0  0
  1 19  1  0  0  0  0
  2 20  1  0  0  0  0
  3 21  1  0  0  0  0
  4 22  1  0  0  0  0
 10 23  1  0  0  0  0
 10 24  1  0  0  0  0
 10 25  1  0  0  0  0
 11 26  1  0  0  0  0
 11 27  1  0  0  0  0
 11 28  1  0  0  0  0
 12 29  1  0  0  0  0
 12 30  1  0  0  0  0
 12 31  1  0  0  0  0
 13 32  1  0  0  0  0
 13 33  1  0  0  0  0
 13 34  1  0  0  0  0
 14 35  1  0  0  0  0
 16 36  1  0  0  0  0
 16 37  1  0  0  0  0
M  END
> <FRED Chemgauss4 score>
-3.503375

$$$$
C39118106	P138006491
  -OEChem-05182014473D

 18 18  0     1  0  0  0  0  0999 V2000
  123.0811  108.3411  107.1913 C   0  0  0  0  0  0  0  0  0  0  0  0
  123.3764  107.0649  107.9742 C   0  0  0  0  0  0  0  0  0  0  0  0
  125.4308  106.7700  106.5929 C   0  0  0  0  0  0  0  0  0  0  0  0
  125.0709  108.0646  105.8628 C   0  0  2  0  0  0  0  0  0  0  0  0
  123.6209  108.2598  105.8308 N   0  5  0  0  0  0  0  0  0  0  0  0
  125.5293  107.9773  104.4795 N   0  0  0  0  0  0  0  0  0  0  0  0
  124.8543  106.8282  107.9747 N   0  3  0  0  0  0  0  0  0  0  0  0
  121.9945  108.4849  107.1617 H   0  0  0  0  0  0  0  0  0  0  0  0
  123.4841  109.2075  107.7322 H   0  0  0  0  0  0  0  0  0  0  0  0
  123.0652  107.1497  109.0194 H   0  0  0  0  0  0  0  0  0  0  0  0
  122.9086  106.1820  107.5250 H   0  0  0  0  0  0  0  0  0  0  0  0
  125.0134  105.8760  106.1142 H   0  0  0  0  0  0  0  0  0  0  0  0
  126.5127  106.6457  106.7058 H   0  0  0  0  0  0  0  0  0  0  0  0
  125.5825  108.9102  106.3403 H   0  0  0  0  0  0  0  0  0  0  0  0
  126.3850  107.4989  104.2978 H   0  0  0  0  0  0  0  0  0  0  0  0
  125.0902  108.5624  103.8017 H   0  0  0  0  0  0  0  0  0  0  0  0
  125.3223  107.5722  108.5111 H   0  0  0  0  0  0  0  0  0  0  0  0
  125.0617  105.9510  108.4715 H   0  0  0  0  0  0  0  0  0  0  0  0
  1  2  1  0  0  0  0
  1  5  1  0  0  0  0
  2  7  1  0  0  0  0
  3  4  1  0  0  0  0
  3  7  1  0  0  0  0
  4  5  1  0  0  0  0
  4  6  1  0  0  0  0
  1  8  1  0  0  0  0
  1  9  1  0  0  0  0
  2 10  1  0  0  0  0
  2 11  1  0  0  0  0
  3 12  1  0  0  0  0
  3 13  1  0  0  0  0
  4 14  1  0  0  0  0
  6 15  1  0  0  0  0
  6 16  1  0  0  0  0
  7 17  1  0  0  0  0
  7 18  1  0  0  0  0
M  CHG  2   5  -1   7   1
M  END
> <FRED Chemgauss4 score>
-3.477001

$$$$
C05190256	P07671255
  -OEChem-05182014473D

 16 16  0     0  0  0  0  0  0999 V2000
  125.7599  105.4914  107.2237 C   0  0  0  0  0  0  0  0  0  0  0  0
  124.4382  104.4628  108.8825 C   0  0  0  0  0  0  0  0  0  0  0  0
  123.5893  105.4945  108.1550 C   0  0  0  0  0  0  0  0  0  0  0  0
  124.0066  106.9792  106.1469 C   0  0  0  0  0  0  0  0  0  0  0  0
  125.7520  104.5969  108.3065 N   0  0  0  0  0  0  0  0  0  0  0  0
  124.4566  106.0003  107.1117 N   0  0  0  0  0  0  0  0  0  0  0  0
  126.7281  105.7627  106.5257 O   0  0  0  0  0  0  0  0  0  0  0  0
  122.9810  106.4100  105.3562 O   0  0  0  0  0  0  0  0  0  0  0  0
  124.4896  104.6429  109.9596 H   0  0  0  0  0  0  0  0  0  0  0  0
  124.0863  103.4427  108.7023 H   0  0  0  0  0  0  0  0  0  0  0  0
  122.6894  105.0545  107.7153 H   0  0  0  0  0  0  0  0  0  0  0  0
  123.3086  106.3233  108.8127 H   0  0  0  0  0  0  0  0  0  0  0  0
  124.8516  107.2610  105.5139 H   0  0  0  0  0  0  0  0  0  0  0  0
  123.6223  107.8483  106.6862 H   0  0  0  0  0  0  0  0  0  0  0  0
  126.5666  104.0739  108.6117 H   0  0  0  0  0  0  0  0  0  0  0  0
  122.7007  107.0898  104.7199 H   0  0  0  0  0  0  0  0  0  0  0  0
  1  5  1  0  0  0  0
  1  6  1  0  0  0  0
  1  7  2  0  0  0  0
  2  3  1  0  0  0  0
  2  5  1  0  0  0  0
  3  6  1  0  0  0  0
  4  6  1  0  0  0  0
  4  8  1  0  0  0  0
  2  9  1  0  0  0  0
  2 10  1  0  0  0  0
  3 11  1  0  0  0  0
  3 12  1  0  0  0  0
  4 13  1  0  0  0  0
  4 14  1  0  0  0  0
  5 15  1  0  0  0  0
  8 16  1  0  0  0  0
M  END
> <FRED Chemgauss4 score>
-3.450723

$$$$
C87448493	P136805577
  -OEChem-05182014473D

 19 19  0     0  0  0  0  0  0999 V2000
  126.6043  105.8313  107.9876 C   0  0  0  0  0  0  0  0  0  0  0  0
  122.7785  106.4659  105.6933 C   0  0  0  0  0  0  0  0  0  0  0  0
  120.7618  105.9802  105.9259 C   0  0  0  0  0  0  0  0  0  0  0  0
  124.2580  106.3966  105.8087 C   0  0  0  0  0  0  0  0  0  0  0  0
  119.4535  105.3941  106.2582 C   0  0  0  0  0  0  0  0  0  0  0  0
  126.1725  105.1456  106.7710 C   0  0  0  0  0  0  0  0  0  0  0  0
  126.9503  106.3740  108.9530 N   0  0  0  0  0  0  0  0  0  0  0  0
  121.9514  105.5477  106.2741 N   0  0  0  0  0  0  0  0  0  0  0  0
  122.1755  107.4394  105.0076 N   0  0  0  0  0  0  0  0  0  0  0  0
  120.8865  107.1055  105.1722 N   0  0  0  0  0  0  0  0  0  0  0  0
  124.7573  105.3357  106.5474 N   0  0  0  0  0  0  0  0  0  0  0  0
  124.9427  107.2672  105.2779 O   0  0  0  0  0  0  0  0  0  0  0  0
  119.0556  105.8080  107.2010 H   0  0  0  0  0  0  0  0  0  0  0  0
  118.7002  105.5791  105.4711 H   0  0  0  0  0  0  0  0  0  0  0  0
  119.5044  104.2961  106.3736 H   0  0  0  0  0  0  0  0  0  0  0  0
  126.7005  105.5296  105.8935 H   0  0  0  0  0  0  0  0  0  0  0  0
  126.3547  104.0693  106.8394 H   0  0  0  0  0  0  0  0  0  0  0  0
  120.1677  107.6816  104.7502 H   0  0  0  0  0  0  0  0  0  0  0  0
  124.1261  104.6896  107.0099 H   0  0  0  0  0  0  0  0  0  0  0  0
  1  6  1  0  0  0  0
  1  7  3  0  0  0  0
  2  4  1  0  0  0  0
  2  8  1  0  0  0  0
  2  9  2  0  0  0  0
  3  5  1  0  0  0  0
  3  8  2  0  0  0  0
  3 10  1  0  0  0  0
  4 11  1  0  0  0  0
  4 12  2  0  0  0  0
  6 11  1  0  0  0  0
  9 10  1  0  0  0  0
  5 13  1  0  0  0  0
  5 14  1  0  0  0  0
  5 15  1  0  0  0  0
  6 16  1  0  0  0  0
  6 17  1  0  0  0  0
 10 18  1  0  0  0  0
 11 19  1  0  0  0  0
M  END
> <FRED Chemgauss4 score>
-3.448010

$$$$
C97647104	P154815275
  -OEChem-05182014473D

 47 48  0     1  0  0  0  0  0999 V2000
  121.5503  105.1823  108.2159 C   0  0  0  0  0  0  0  0  0  0  0  0
  125.5054  106.5599  107.4513 C   0  0  0  0  0  0  0  0  0  0  0  0
  124.9691  104.1350  107.2104 C   0  0  0  0  0  0  0  0  0  0  0  0
  123.2527  105.9136  106.5377 C   0  0  0  0  0  0  0  0  0  0  0  0
  122.7018  104.7920  109.1301 C   0  0  0  0  0  0  0  0  0  0  0  0
  126.7014  106.1452  108.3052 C   0  0  0  0  0  0  0  0  0  0  0  0
  126.1853  103.8459  108.0860 C   0  0  0  0  0  0  0  0  0  0  0  0
  121.9706  105.0991  106.7472 C   0  0  2  0  0  0  0  0  0  0  0  0
  124.3665  105.5207  107.5289 C   0  0  0  0  0  0  0  0  0  0  0  0
  117.9530  106.6700  106.1514 C   0  0  0  0  0  0  0  0  0  0  0  0
  121.4844  109.1682  106.2139 C   0  0  0  0  0  0  0  0  0  0  0  0
  119.0951  107.4723  105.5386 C   0  0  0  0  0  0  0  0  0  0  0  0
  120.8532  105.5918  105.8302 C   0  0  1  0  0  0  0  0  0  0  0  0
  120.4609  107.0556  106.1029 C   0  0  1  0  0  0  0  0  0  0  0  0
  120.9564  104.0280  104.0953 N   0  0  0  0  0  0  0  0  0  0  0  0
  121.2164  105.3911  104.4463 N   0  0  0  0  0  0  0  0  0  0  0  0
  127.1769  104.8574  107.9198 O   0  0  0  0  0  0  0  0  0  0  0  0
  123.8626  105.5780  108.8746 O   0  0  0  0  0  0  0  0  0  0  0  0
  121.4776  107.9061  105.5672 O   0  0  0  0  0  0  0  0  0  0  0  0
  120.6858  104.5367  108.4070 H   0  0  0  0  0  0  0  0  0  0  0  0
  121.2485  106.2120  108.4466 H   0  0  0  0  0  0  0  0  0  0  0  0
  125.1549  107.5419  107.7907 H   0  0  0  0  0  0  0  0  0  0  0  0
  125.8344  106.6595  106.4089 H   0  0  0  0  0  0  0  0  0  0  0  0
  125.2847  104.1196  106.1591 H   0  0  0  0  0  0  0  0  0  0  0  0
  124.2425  103.3282  107.3422 H   0  0  0  0  0  0  0  0  0  0  0  0
  123.6034  105.8075  105.5035 H   0  0  0  0  0  0  0  0  0  0  0  0
  123.0095  106.9757  106.6809 H   0  0  0  0  0  0  0  0  0  0  0  0
  122.4141  104.9646  110.1725 H   0  0  0  0  0  0  0  0  0  0  0  0
  122.9394  103.7272  109.0430 H   0  0  0  0  0  0  0  0  0  0  0  0
  127.5204  106.8578  108.1636 H   0  0  0  0  0  0  0  0  0  0  0  0
  126.4540  106.1389  109.3731 H   0  0  0  0  0  0  0  0  0  0  0  0
  125.9134  103.7683  109.1451 H   0  0  0  0  0  0  0  0  0  0  0  0
  126.6339  102.8917  107.7915 H   0  0  0  0  0  0  0  0  0  0  0  0
  122.1686  104.0495  106.4965 H   0  0  0  0  0  0  0  0  0  0  0  0
  117.9509  106.7889  107.2396 H   0  0  0  0  0  0  0  0  0  0  0  0
  118.0515  105.6026  105.9307 H   0  0  0  0  0  0  0  0  0  0  0  0
  116.9856  107.0136  105.7713 H   0  0  0  0  0  0  0  0  0  0  0  0
  122.2700  109.7944  105.7840 H   0  0  0  0  0  0  0  0  0  0  0  0
  121.6588  109.0294  107.2838 H   0  0  0  0  0  0  0  0  0  0  0  0
  120.5151  109.6495  106.0641 H   0  0  0  0  0  0  0  0  0  0  0  0
  119.0727  107.3349  104.4526 H   0  0  0  0  0  0  0  0  0  0  0  0
  118.9069  108.5326  105.7442 H   0  0  0  0  0  0  0  0  0  0  0  0
  119.9721  104.9597  105.9922 H   0  0  0  0  0  0  0  0  0  0  0  0
  120.4639  107.2208  107.1870 H   0  0  0  0  0  0  0  0  0  0  0  0
  121.8316  103.5739  103.8353 H   0  0  0  0  0  0  0  0  0  0  0  0
  120.6171  103.5288  104.9166 H   0  0  0  0  0  0  0  0  0  0  0  0
  120.6544  105.9973  103.8431 H   0  0  0  0  0  0  0  0  0  0  0  0
  1  5  1  0  0  0  0
  1  8  1  0  0  0  0
  2  6  1  0  0  0  0
  2  9  1  0  0  0  0
  3  7  1  0  0  0  0
  3  9  1  0  0  0  0
  4  8  1  0  0  0  0
  4  9  1  0  0  0  0
  5 18  1  0  0  0  0
  6 17  1  0  0  0  0
  7 17  1  0  0  0  0
  8 13  1  0  0  0  0
  9 18  1  0  0  0  0
 10 12  1  0  0  0  0
 11 19  1  0  0  0  0
 12 14  1  0  0  0  0
 13 14  1  0  0  0  0
 13 16  1  0  0  0  0
 14 19  1  0  0  0  0
 15 16  1  0  0  0  0
  1 20  1  0  0  0  0
  1 21  1  0  0  0  0
  2 22  1  0  0  0  0
  2 23  1  0  0  0  0
  3 24  1  0  0  0  0
  3 25  1  0  0  0  0
  4 26  1  0  0  0  0
  4 27  1  0  0  0  0
  5 28  1  0  0  0  0
  5 29  1  0  0  0  0
  6 30  1  0  0  0  0
  6 31  1  0  0  0  0
  7 32  1  0  0  0  0
  7 33  1  0  0  0  0
  8 34  1  0  0  0  0
 10 35  1  0  0  0  0
 10 36  1  0  0  0  0
 10 37  1  0  0  0  0
 11 38  1  0  0  0  0
 11 39  1  0  0  0  0
 11 40  1  0  0  0  0
 12 41  1  0  0  0  0
 12 42  1  0  0  0  0
 13 43  1  0  0  0  0
 14 44  1  0  0  0  0
 15 45  1  0  0  0  0
 15 46  1  0  0  0  0
 16 47  1  0  0  0  0
M  END
> <FRED Chemgauss4 score>
-3.412686

$$$$
C84211952	P131773227
  -OEChem-05182014473D

 30 30  0     1  0  0  0  0  0999 V2000
  123.0515  106.8477  105.9446 C   0  0  0  0  0  0  0  0  0  0  0  0
  125.4261  104.9631  107.1562 C   0  0  0  0  0  0  0  0  0  0  0  0
  125.7260  108.5682  107.8968 C   0  0  0  0  0  0  0  0  0  0  0  0
  125.9608  107.3657  106.9926 C   0  0  0  0  0  0  0  0  0  0  0  0
  123.4040  108.0135  108.1400 C   0  0  0  0  0  0  0  0  0  0  0  0
  123.5794  106.7165  107.3436 C   0  0  2  0  0  0  0  0  0  0  0  0
  120.9869  106.3926  104.6118 C   0  0  0  0  0  0  0  0  0  0  0  0
  121.8157  104.6854  106.1858 C   0  0  0  0  0  0  0  0  0  0  0  0
  124.3564  109.0561  107.7559 N   0  0  0  0  0  0  0  0  0  0  0  0
  124.9848  106.2952  107.2231 N   0  0  0  0  0  0  0  0  0  0  0  0
  124.7494  104.0556  107.9447 N   0  0  0  0  0  0  0  0  0  0  0  0
  121.9929  106.0090  105.5940 N   0  0  0  0  0  0  0  0  0  0  0  0
  123.5641  107.6718  105.1826 O   0  0  0  0  0  0  0  0  0  0  0  0
  126.3581  104.5858  106.4394 O   0  0  0  0  0  0  0  0  0  0  0  0
  125.9282  108.3064  108.9427 H   0  0  0  0  0  0  0  0  0  0  0  0
  126.4218  109.3684  107.6228 H   0  0  0  0  0  0  0  0  0  0  0  0
  125.8766  107.6558  105.9379 H   0  0  0  0  0  0  0  0  0  0  0  0
  126.9799  106.9925  107.1391 H   0  0  0  0  0  0  0  0  0  0  0  0
  122.3872  108.4003  108.0051 H   0  0  0  0  0  0  0  0  0  0  0  0
  123.5237  107.8000  109.2100 H   0  0  0  0  0  0  0  0  0  0  0  0
  122.9911  105.9404  107.8397 H   0  0  0  0  0  0  0  0  0  0  0  0
  121.3000  106.0810  103.6119 H   0  0  0  0  0  0  0  0  0  0  0  0
  120.8494  107.4773  104.6155 H   0  0  0  0  0  0  0  0  0  0  0  0
  120.0303  105.9173  104.8451 H   0  0  0  0  0  0  0  0  0  0  0  0
  121.1977  104.7554  107.0847 H   0  0  0  0  0  0  0  0  0  0  0  0
  122.7856  104.2601  106.4578 H   0  0  0  0  0  0  0  0  0  0  0  0
  121.3265  104.0153  105.4737 H   0  0  0  0  0  0  0  0  0  0  0  0
  124.2238  109.8697  108.3560 H   0  0  0  0  0  0  0  0  0  0  0  0
  123.9854  104.4016  108.5163 H   0  0  0  0  0  0  0  0  0  0  0  0
  124.9643  103.0678  107.9910 H   0  0  0  0  0  0  0  0  0  0  0  0
  1  6  1  0  0  0  0
  1 12  1  0  0  0  0
  1 13  2  0  0  0  0
  2 10  1  0  0  0  0
  2 11  1  0  0  0  0
  2 14  2  0  0  0  0
  3  4  1  0  0  0  0
  3  9  1  0  0  0  0
  4 10  1  0  0  0  0
  5  6  1  0  0  0  0
  5  9  1  0  0  0  0
  6 10  1  0  0  0  0
  7 12  1  0  0  0  0
  8 12  1  0  0  0  0
  3 15  1  0  0  0  0
  3 16  1  0  0  0  0
  4 17  1  0  0  0  0
  4 18  1  0  0  0  0
  5 19  1  0  0  0  0
  5 20  1  0  0  0  0
  6 21  1  0  0  0  0
  7 22  1  0  0  0  0
  7 23  1  0  0  0  0
  7 24  1  0  0  0  0
  8 25  1  0  0  0  0
  8 26  1  0  0  0  0
  8 27  1  0  0  0  0
  9 28  1  0  0  0  0
 11 29  1  0  0  0  0
 11 30  1  0  0  0  0
M  END
> <FRED Chemgauss4 score>
-3.381192

$$$$
C34797558	P51637068
  -OEChem-05182014473D

 24 25  0     1  0  0  0  0  0999 V2000
  127.2966  106.4272  109.0187 C   0  0  0  0  0  0  0  0  0  0  0  0
  127.6160  106.5286  107.6826 C   0  0  0  0  0  0  0  0  0  0  0  0
  125.0723  106.4999  108.4926 C   0  0  0  0  0  0  0  0  0  0  0  0
  125.3916  106.6021  107.1565 C   0  0  0  0  0  0  0  0  0  0  0  0
  124.3157  106.6969  106.1463 C   0  0  0  0  0  0  0  0  0  0  0  0
  122.6160  106.2439  104.9616 C   0  0  0  0  0  0  0  0  0  0  0  0
  120.6852  104.6782  105.4235 C   0  0  0  0  0  0  0  0  0  0  0  0
  121.4118  105.5331  104.3883 C   0  0  1  0  0  0  0  0  0  0  0  0
  124.1609  107.7352  105.3016 N   0  5  0  0  0  0  0  0  0  0  0  0
  126.0190  106.4110  109.4477 N   0  0  0  0  0  0  0  0  0  0  0  0
  126.6692  106.6179  106.7275 N   0  0  0  0  0  0  0  0  0  0  0  0
  123.3742  105.7629  105.9560 N   0  0  0  0  0  0  0  0  0  0  0  0
  123.0604  107.4425  104.5354 N   0  0  0  0  0  0  0  0  0  0  0  0
  120.4194  106.4746  103.7841 N   0  3  0  0  0  0  0  0  0  0  0  0
  128.0574  106.3565  109.7862 H   0  0  0  0  0  0  0  0  0  0  0  0
  128.6429  106.5392  107.3384 H   0  0  0  0  0  0  0  0  0  0  0  0
  124.0490  106.4851  108.8510 H   0  0  0  0  0  0  0  0  0  0  0  0
  120.3489  105.2693  106.2827 H   0  0  0  0  0  0  0  0  0  0  0  0
  119.8027  104.1999  104.9838 H   0  0  0  0  0  0  0  0  0  0  0  0
  121.3401  103.8854  105.8020 H   0  0  0  0  0  0  0  0  0  0  0  0
  121.7218  104.8881  103.5578 H   0  0  0  0  0  0  0  0  0  0  0  0
  120.3593  106.3277  102.7751 H   0  0  0  0  0  0  0  0  0  0  0  0
  120.6983  107.4421  103.9563 H   0  0  0  0  0  0  0  0  0  0  0  0
  119.4945  106.3247  104.1909 H   0  0  0  0  0  0  0  0  0  0  0  0
  1  2  2  0  0  0  0
  1 10  1  0  0  0  0
  2 11  1  0  0  0  0
  3  4  1  0  0  0  0
  3 10  2  0  0  0  0
  4  5  1  0  0  0  0
  4 11  2  0  0  0  0
  5  9  1  0  0  0  0
  5 12  2  0  0  0  0
  6  8  1  0  0  0  0
  6 12  1  0  0  0  0
  6 13  2  0  0  0  0
  7  8  1  0  0  0  0
  8 14  1  0  0  0  0
  9 13  1  0  0  0  0
  1 15  1  0  0  0  0
  2 16  1  0  0  0  0
  3 17  1  0  0  0  0
  7 18  1  0  0  0  0
  7 19  1  0  0  0  0
  7 20  1  0  0  0  0
  8 21  1  0  0  0  0
 14 22  1  0  0  0  0
 14 23  1  0  0  0  0
 14 24  1  0  0  0  0
M  CHG  2   9  -1  14   1
M  END
> <FRED Chemgauss4 score>
-3.366788

$$$$
C42613227	P89359521
  -OEChem-05182014473D

 39 39  0     0  0  0  0  0  0999 V2000
  119.1363  104.8784  102.9650 C   0  0  0  0  0  0  0  0  0  0  0  0
  118.0400  104.5647  102.5871 C   0  0  0  0  0  0  0  0  0  0  0  0
  121.6081  104.9912  102.7408 C   0  0  0  0  0  0  0  0  0  0  0  0
  122.7477  105.4849  103.4390 C   0  0  0  0  0  0  0  0  0  0  0  0
  120.4353  105.2517  103.4149 C   0  0  0  0  0  0  0  0  0  0  0  0
  122.4025  106.1043  104.6202 C   0  0  0  0  0  0  0  0  0  0  0  0
  123.2763  106.7400  105.6190 C   0  0  0  0  0  0  0  0  0  0  0  0
  125.9641  105.6798  107.6866 C   0  0  0  0  0  0  0  0  0  0  0  0
  127.0563  102.7702  108.6940 C   0  0  0  0  0  0  0  0  0  0  0  0
  127.7002  104.2706  110.6124 C   0  0  0  0  0  0  0  0  0  0  0  0
  123.4159  104.5576  106.7555 C   0  0  0  0  0  0  0  0  0  0  0  0
  116.7066  104.1801  102.1267 C   0  0  0  0  0  0  0  0  0  0  0  0
  124.6711  106.4539  107.7184 C   0  0  0  0  0  0  0  0  0  0  0  0
  127.3510  104.1971  109.1331 C   0  0  0  0  0  0  0  0  0  0  0  0
  115.7693  105.2537  102.3034 N   0  0  0  0  0  0  0  0  0  0  0  0
  126.1877  105.0182  108.8856 N   0  0  0  0  0  0  0  0  0  0  0  0
  123.7753  105.9616  106.6617 N   0  0  0  0  0  0  0  0  0  0  0  0
  123.5185  107.9344  105.4490 O   0  0  0  0  0  0  0  0  0  0  0  0
  126.7098  105.6495  106.7112 O   0  0  0  0  0  0  0  0  0  0  0  0
  120.7106  106.0885  104.8833 S   0  0  0  0  0  0  0  0  0  0  0  0
  121.6576  104.4722  101.7913 H   0  0  0  0  0  0  0  0  0  0  0  0
  123.7670  105.3886  103.0867 H   0  0  0  0  0  0  0  0  0  0  0  0
  126.2286  102.3472  109.2725 H   0  0  0  0  0  0  0  0  0  0  0  0
  126.7886  102.7256  107.6323 H   0  0  0  0  0  0  0  0  0  0  0  0
  127.9334  102.1300  108.8391 H   0  0  0  0  0  0  0  0  0  0  0  0
  126.8831  103.8730  111.2244 H   0  0  0  0  0  0  0  0  0  0  0  0
  127.8809  105.3059  110.9194 H   0  0  0  0  0  0  0  0  0  0  0  0
  128.5977  103.6851  110.8414 H   0  0  0  0  0  0  0  0  0  0  0  0
  124.1374  103.9476  106.2057 H   0  0  0  0  0  0  0  0  0  0  0  0
  122.4212  104.3930  106.3325 H   0  0  0  0  0  0  0  0  0  0  0  0
  123.4094  104.2382  107.8011 H   0  0  0  0  0  0  0  0  0  0  0  0
  116.3325  103.3196  102.6891 H   0  0  0  0  0  0  0  0  0  0  0  0
  116.7141  103.9219  101.0639 H   0  0  0  0  0  0  0  0  0  0  0  0
  124.1872  106.3230  108.6908 H   0  0  0  0  0  0  0  0  0  0  0  0
  124.8710  107.5167  107.5535 H   0  0  0  0  0  0  0  0  0  0  0  0
  128.1809  104.5993  108.5419 H   0  0  0  0  0  0  0  0  0  0  0  0
  115.8301  105.8310  103.1282 H   0  0  0  0  0  0  0  0  0  0  0  0
  114.9484  105.2930  101.7186 H   0  0  0  0  0  0  0  0  0  0  0  0
  125.4994  105.1160  109.6264 H   0  0  0  0  0  0  0  0  0  0  0  0
  1  2  3  0  0  0  0
  1  5  1  0  0  0  0
  2 12  1  0  0  0  0
  3  4  1  0  0  0  0
  3  5  2  0  0  0  0
  4  6  2  0  0  0  0
  5 20  1  0  0  0  0
  6  7  1  0  0  0  0
  6 20  1  0  0  0  0
  7 17  1  0  0  0  0
  7 18  2  0  0  0  0
  8 13  1  0  0  0  0
  8 16  1  0  0  0  0
  8 19  2  0  0  0  0
  9 14  1  0  0  0  0
 10 14  1  0  0  0  0
 11 17  1  0  0  0  0
 12 15  1  0  0  0  0
 13 17  1  0  0  0  0
 14 16  1  0  0  0  0
  3 21  1  0  0  0  0
  4 22  1  0  0  0  0
  9 23  1  0  0  0  0
  9 24  1  0  0  0  0
  9 25  1  0  0  0  0
 10 26  1  0  0  0  0
 10 27  1  0  0  0  0
 10 28  1  0  0  0  0
 11 29  1  0  0  0  0
 11 30  1  0  0  0  0
 11 31  1  0  0  0  0
 12 32  1  0  0  0  0
 12 33  1  0  0  0  0
 13 34  1  0  0  0  0
 13 35  1  0  0  0  0
 14 36  1  0  0  0  0
 15 37  1  0  0  0  0
 15 38  1  0  0  0  0
 16 39  1  0  0  0  0
M  END
> <FRED Chemgauss4 score>
-3.340849

$$$$
C94465098	P148064370
  -OEChem-05182014473D

 44 45  0     1  0  0  0  0  0999 V2000
  123.8511  107.9029  106.2824 C   0  0  0  0  0  0  0  0  0  0  0  0
  126.7750  102.9654  110.5772 C   0  0  0  0  0  0  0  0  0  0  0  0
  125.4117  103.6236  110.6569 C   0  0  0  0  0  0  0  0  0  0  0  0
  126.8759  102.6069  109.1052 C   0  0  0  0  0  0  0  0  0  0  0  0
  125.5093  103.2761  107.2070 C   0  0  0  0  0  0  0  0  0  0  0  0
  124.6779  104.4016  106.5686 C   0  0  0  0  0  0  0  0  0  0  0  0
  123.9324  104.7018  108.8695 C   0  0  0  0  0  0  0  0  0  0  0  0
  125.3566  104.4295  109.3644 C   0  0  2  0  0  0  0  0  0  0  0  0
  119.0970  107.2935  105.6068 C   0  0  0  0  0  0  0  0  0  0  0  0
  122.9828  106.2352  104.5892 C   0  0  0  0  0  0  0  0  0  0  0  0
  122.7095  105.7324  107.0507 C   0  0  0  0  0  0  0  0  0  0  0  0
  120.4192  106.6052  105.6342 C   0  0  0  0  0  0  0  0  0  0  0  0
  122.7845  106.8382  105.9700 C   0  0  1  0  0  0  0  0  0  0  0  0
  126.2209  103.7194  108.4032 N   0  0  1  0  0  0  0  0  0  0  0  0
  124.0130  105.2903  107.5326 N   0  0  2  0  0  0  0  0  0  0  0  0
  123.7353  108.4956  107.5212 N   0  0  0  0  0  0  0  0  0  0  0  0
  121.4889  107.5381  105.9351 N   0  0  0  0  0  0  0  0  0  0  0  0
  124.7416  108.2056  105.4884 O   0  0  0  0  0  0  0  0  0  0  0  0
  127.5519  103.6625  110.8703 H   0  0  0  0  0  0  0  0  0  0  0  0
  126.8285  102.0804  111.1997 H   0  0  0  0  0  0  0  0  0  0  0  0
  124.6083  102.9003  110.7465 H   0  0  0  0  0  0  0  0  0  0  0  0
  125.3821  104.2918  111.5156 H   0  0  0  0  0  0  0  0  0  0  0  0
  127.9216  102.4983  108.7884 H   0  0  0  0  0  0  0  0  0  0  0  0
  126.3741  101.6457  108.9246 H   0  0  0  0  0  0  0  0  0  0  0  0
  124.8727  102.4248  107.4325 H   0  0  0  0  0  0  0  0  0  0  0  0
  126.2477  102.9371  106.4822 H   0  0  0  0  0  0  0  0  0  0  0  0
  125.3587  105.0013  105.9266 H   0  0  0  0  0  0  0  0  0  0  0  0
  123.9335  103.9628  105.8667 H   0  0  0  0  0  0  0  0  0  0  0  0
  123.3358  103.7889  108.8576 H   0  0  0  0  0  0  0  0  0  0  0  0
  123.4571  105.4034  109.5554 H   0  0  0  0  0  0  0  0  0  0  0  0
  125.8298  105.4476  109.5634 H   0  0  0  0  0  0  0  0  0  0  0  0
  118.8741  107.7502  106.5772 H   0  0  0  0  0  0  0  0  0  0  0  0
  119.0753  108.0661  104.8306 H   0  0  0  0  0  0  0  0  0  0  0  0
  118.3052  106.5680  105.3849 H   0  0  0  0  0  0  0  0  0  0  0  0
  122.2219  105.4761  104.3670 H   0  0  0  0  0  0  0  0  0  0  0  0
  122.9265  107.0007  103.8038 H   0  0  0  0  0  0  0  0  0  0  0  0
  123.9594  105.7393  104.4983 H   0  0  0  0  0  0  0  0  0  0  0  0
  122.1347  106.0694  107.9212 H   0  0  0  0  0  0  0  0  0  0  0  0
  122.1816  104.8547  106.6570 H   0  0  0  0  0  0  0  0  0  0  0  0
  120.6355  106.1515  104.6623 H   0  0  0  0  0  0  0  0  0  0  0  0
  120.4339  105.8233  106.3992 H   0  0  0  0  0  0  0  0  0  0  0  0
  122.9963  108.2212  108.1600 H   0  0  0  0  0  0  0  0  0  0  0  0
  124.3792  109.2051  107.8539 H   0  0  0  0  0  0  0  0  0  0  0  0
  121.3316  107.9645  106.8419 H   0  0  0  0  0  0  0  0  0  0  0  0
  1 13  1  0  0  0  0
  1 16  1  0  0  0  0
  1 18  2  0  0  0  0
  2  3  1  0  0  0  0
  2  4  1  0  0  0  0
  3  8  1  0  0  0  0
  4 14  1  0  0  0  0
  5  6  1  0  0  0  0
  5 14  1  0  0  0  0
  6 15  1  0  0  0  0
  7  8  1  0  0  0  0
  7 15  1  0  0  0  0
  8 14  1  0  0  0  0
  9 12  1  0  0  0  0
 10 13  1  0  0  0  0
 11 13  1  0  0  0  0
 11 15  1  0  0  0  0
 12 17  1  0  0  0  0
 13 17  1  0  0  0  0
  2 19  1  0  0  0  0
  2 20  1  0  0  0  0
  3 21  1  0  0  0  0
  3 22  1  0  0  0  0
  4 23  1  0  0  0  0
  4 24  1  0  0  0  0
  5 25  1  0  0  0  0
  5 26  1  0  0  0  0
  6 27  1  0  0  0  0
  6 28  1  0  0  0  0
  7 29  1  0  0  0  0
  7 30  1  0  0  0  0
  8 31  1  0  0  0  0
  9 32  1  0  0  0  0
  9 33  1  0  0  0  0
  9 34  1  0  0  0  0
 10 35  1  0  0  0  0
 10 36  1  0  0  0  0
 10 37  1  0  0  0  0
 11 38  1  0  0  0  0
 11 39  1  0  0  0  0
 12 40  1  0  0  0  0
 12 41  1  0  0  0  0
 16 42  1  0  0  0  0
 16 43  1  0  0  0  0
 17 44  1  0  0  0  0
M  END
> <FRED Chemgauss4 score>
-3.336731

$$$$
C39373033	P91080712
  -OEChem-05182014473D

 12 12  0     1  0  0  0  0  0999 V2000
  123.6272  106.7205  105.6009 C   0  0  0  0  0  0  0  0  0  0  0  0
  125.1697  106.1072  106.8782 C   0  0  0  0  0  0  0  0  0  0  0  0
  124.9558  107.3731  106.0199 C   0  0  1  0  0  0  0  0  0  0  0  0
  123.8593  105.6614  106.4226 N   0  0  0  0  0  0  0  0  0  0  0  0
  125.9379  107.4031  104.9407 N   0  0  0  0  0  0  0  0  0  0  0  0
  122.7137  106.9874  104.8545 O   0  0  0  0  0  0  0  0  0  0  0  0
  125.9698  105.4198  106.5880 H   0  0  0  0  0  0  0  0  0  0  0  0
  125.1988  106.2791  107.9579 H   0  0  0  0  0  0  0  0  0  0  0  0
  124.8382  108.3101  106.5705 H   0  0  0  0  0  0  0  0  0  0  0  0
  123.3103  104.8285  106.5852 H   0  0  0  0  0  0  0  0  0  0  0  0
  126.8970  107.2605  105.1741 H   0  0  0  0  0  0  0  0  0  0  0  0
  125.6519  107.7619  104.0551 H   0  0  0  0  0  0  0  0  0  0  0  0
  1  3  1  0  0  0  0
  1  4  1  0  0  0  0
  1  6  2  0  0  0  0
  2  3  1  0  0  0  0
  2  4  1  0  0  0  0
  3  5  1  0  0  0  0
  2  7  1  0  0  0  0
  2  8  1  0  0  0  0
  3  9  1  0  0  0  0
  4 10  1  0  0  0  0
  5 11  1  0  0  0  0
  5 12  1  0  0  0  0
M  END
> <FRED Chemgauss4 score>
-3.328862

$$$$
C43514538	P65814456
  -OEChem-05182014473D

 30 29  0     1  0  0  0  0  0999 V2000
  123.9000  104.4924  106.9677 C   0  0  0  0  0  0  0  0  0  0  0  0
  121.4301  104.5446  107.5237 C   0  0  0  0  0  0  0  0  0  0  0  0
  120.5284  107.1095  106.0580 C   0  0  0  0  0  0  0  0  0  0  0  0
  121.6463  108.6242  107.7319 C   0  0  0  0  0  0  0  0  0  0  0  0
  123.3567  107.2707  105.8866 C   0  0  0  0  0  0  0  0  0  0  0  0
  124.8569  107.0479  105.9451 C   0  0  0  0  0  0  0  0  0  0  0  0
  122.5575  105.1578  106.7048 C   0  0  1  0  0  0  0  0  0  0  0  0
  121.4119  107.1856  107.2948 C   0  0  0  0  0  0  0  0  0  0  0  0
  124.3455  104.5030  108.2627 N   0  0  0  0  0  0  0  0  0  0  0  0
  122.7091  106.5607  106.9989 N   0  0  2  0  0  0  0  0  0  0  0  0
  125.4753  107.7069  104.8472 O   0  0  0  0  0  0  0  0  0  0  0  0
  124.7955  103.7881  105.7408 S   0  0  0  0  0  0  0  0  0  0  0  0
  121.6535  104.5952  108.5945 H   0  0  0  0  0  0  0  0  0  0  0  0
  120.4904  105.0782  107.3439 H   0  0  0  0  0  0  0  0  0  0  0  0
  121.2591  103.4937  107.2663 H   0  0  0  0  0  0  0  0  0  0  0  0
  120.9751  107.6621  105.2251 H   0  0  0  0  0  0  0  0  0  0  0  0
  120.3773  106.0725  105.7376 H   0  0  0  0  0  0  0  0  0  0  0  0
  119.5408  107.5388  106.2590 H   0  0  0  0  0  0  0  0  0  0  0  0
  122.1123  109.2034  106.9273 H   0  0  0  0  0  0  0  0  0  0  0  0
  122.3065  108.6639  108.6045 H   0  0  0  0  0  0  0  0  0  0  0  0
  120.7055  109.1216  107.9930 H   0  0  0  0  0  0  0  0  0  0  0  0
  123.1099  108.3340  105.9684 H   0  0  0  0  0  0  0  0  0  0  0  0
  122.9498  106.8795  104.9492 H   0  0  0  0  0  0  0  0  0  0  0  0
  125.0804  105.9794  105.8671 H   0  0  0  0  0  0  0  0  0  0  0  0
  125.2854  107.4353  106.8751 H   0  0  0  0  0  0  0  0  0  0  0  0
  122.3018  105.0905  105.6412 H   0  0  0  0  0  0  0  0  0  0  0  0
  120.9461  106.6267  108.1138 H   0  0  0  0  0  0  0  0  0  0  0  0
  123.8140  104.9229  109.0181 H   0  0  0  0  0  0  0  0  0  0  0  0
  125.2290  104.0725  108.5144 H   0  0  0  0  0  0  0  0  0  0  0  0
  126.4286  107.5400  104.9221 H   0  0  0  0  0  0  0  0  0  0  0  0
  1  7  1  0  0  0  0
  1  9  1  0  0  0  0
  1 12  2  0  0  0  0
  2  7  1  0  0  0  0
  3  8  1  0  0  0  0
  4  8  1  0  0  0  0
  5  6  1  0  0  0  0
  5 10  1  0  0  0  0
  6 11  1  0  0  0  0
  7 10  1  0  0  0  0
  8 10  1  0  0  0  0
  2 13  1  0  0  0  0
  2 14  1  0  0  0  0
  2 15  1  0  0  0  0
  3 16  1  0  0  0  0
  3 17  1  0  0  0  0
  3 18  1  0  0  0  0
  4 19  1  0  0  0  0
  4 20  1  0  0  0  0
  4 21  1  0  0  0  0
  5 22  1  0  0  0  0
  5 23  1  0  0  0  0
  6 24  1  0  0  0  0
  6 25  1  0  0  0  0
  7 26  1  0  0  0  0
  8 27  1  0  0  0  0
  9 28  1  0  0  0  0
  9 29  1  0  0  0  0
 11 30  1  0  0  0  0
M  END
> <FRED Chemgauss4 score>
-3.281836

$$$$
C85182506	P133303268
  -OEChem-05182014473D

 28 29  0     1  0  0  0  0  0999 V2000
  121.4420  107.1170  106.9566 C   0  0  0  0  0  0  0  0  0  0  0  0
  120.6728  108.2685  108.5730 C   0  0  0  0  0  0  0  0  0  0  0  0
  122.5378  107.4788  107.7042 C   0  0  0  0  0  0  0  0  0  0  0  0
  126.1795  105.5974  106.4816 C   0  0  0  0  0  0  0  0  0  0  0  0
  124.4116  105.8850  108.2375 C   0  0  0  0  0  0  0  0  0  0  0  0
  125.6984  106.9099  105.8718 C   0  0  0  0  0  0  0  0  0  0  0  0
  124.0140  107.1906  107.5305 C   0  0  1  0  0  0  0  0  0  0  0  0
  125.8779  105.5117  107.9825 C   0  0  2  0  0  0  0  0  0  0  0  0
  122.7723  108.8334  109.8091 C   0  0  0  0  0  0  0  0  0  0  0  0
  120.2842  107.6120  107.5025 N   0  0  0  0  0  0  0  0  0  0  0  0
  122.0292  108.2164  108.7360 N   0  0  0  0  0  0  0  0  0  0  0  0
  126.7705  106.3789  108.7548 N   0  0  0  0  0  0  0  0  0  0  0  0
  124.3092  107.1096  106.1304 O   0  0  0  0  0  0  0  0  0  0  0  0
  121.4254  106.5254  106.0525 H   0  0  0  0  0  0  0  0  0  0  0  0
  120.0249  108.7954  109.2602 H   0  0  0  0  0  0  0  0  0  0  0  0
  125.6527  104.7717  105.9857 H   0  0  0  0  0  0  0  0  0  0  0  0
  127.2488  105.4568  106.2844 H   0  0  0  0  0  0  0  0  0  0  0  0
  124.2043  105.9506  109.3134 H   0  0  0  0  0  0  0  0  0  0  0  0
  123.7897  105.0640  107.8528 H   0  0  0  0  0  0  0  0  0  0  0  0
  126.2670  107.7665  106.2513 H   0  0  0  0  0  0  0  0  0  0  0  0
  125.8326  106.8835  104.7857 H   0  0  0  0  0  0  0  0  0  0  0  0
  124.5737  108.0468  107.9645 H   0  0  0  0  0  0  0  0  0  0  0  0
  126.0434  104.4703  108.3232 H   0  0  0  0  0  0  0  0  0  0  0  0
  122.8444  108.1123  110.6276 H   0  0  0  0  0  0  0  0  0  0  0  0
  123.7689  109.1069  109.4516 H   0  0  0  0  0  0  0  0  0  0  0  0
  122.2497  109.7359  110.1382 H   0  0  0  0  0  0  0  0  0  0  0  0
  127.7110  106.4725  108.4441 H   0  0  0  0  0  0  0  0  0  0  0  0
  126.4683  106.6717  109.6565 H   0  0  0  0  0  0  0  0  0  0  0  0
  1  3  2  0  0  0  0
  1 10  1  0  0  0  0
  2 10  2  0  0  0  0
  2 11  1  0  0  0  0
  3  7  1  0  0  0  0
  3 11  1  0  0  0  0
  4  6  1  0  0  0  0
  4  8  1  0  0  0  0
  5  7  1  0  0  0  0
  5  8  1  0  0  0  0
  6 13  1  0  0  0  0
  7 13  1  0  0  0  0
  8 12  1  0  0  0  0
  9 11  1  0  0  0  0
  1 14  1  0  0  0  0
  2 15  1  0  0  0  0
  4 16  1  0  0  0  0
  4 17  1  0  0  0  0
  5 18  1  0  0  0  0
  5 19  1  0  0  0  0
  6 20  1  0  0  0  0
  6 21  1  0  0  0  0
  7 22  1  0  0  0  0
  8 23  1  0  0  0  0
  9 24  1  0  0  0  0
  9 25  1  0  0  0  0
  9 26  1  0  0  0  0
 12 27  1  0  0  0  0
 12 28  1  0  0  0  0
M  END
> <FRED Chemgauss4 score>
-3.267126

$$$$
C94940105	P148828684
  -OEChem-05182014473D

 31 33  0     1  0  0  0  0  0999 V2000
  122.8037  104.3386  105.4797 C   0  0  0  0  0  0  0  0  0  0  0  0
  121.4864  104.8108  105.4268 C   0  0  0  0  0  0  0  0  0  0  0  0
  123.4926  104.2976  106.6934 C   0  0  0  0  0  0  0  0  0  0  0  0
  120.8427  105.2442  106.5868 C   0  0  0  0  0  0  0  0  0  0  0  0
  127.3283  105.3918  107.3111 C   0  0  0  0  0  0  0  0  0  0  0  0
  126.6029  105.0998  108.4420 C   0  0  0  0  0  0  0  0  0  0  0  0
  122.8503  104.7266  107.8509 C   0  0  0  0  0  0  0  0  0  0  0  0
  121.5332  105.1937  107.7896 C   0  0  0  0  0  0  0  0  0  0  0  0
  125.6100  106.6450  107.2242 C   0  0  0  0  0  0  0  0  0  0  0  0
  124.6752  107.6196  106.7622 C   0  0  0  0  0  0  0  0  0  0  0  0
  122.3127  104.8660  110.2268 C   0  0  0  0  0  0  0  0  0  0  0  0
  123.4774  104.7811  109.2217 C   0  0  2  0  0  0  0  0  0  0  0  0
  124.4305  105.9700  109.3501 C   0  0  0  0  0  0  0  0  0  0  0  0
  126.7051  106.3547  106.5574 N   0  0  0  0  0  0  0  0  0  0  0  0
  125.5052  105.9107  108.3727 N   0  0  0  0  0  0  0  0  0  0  0  0
  124.4175  108.7188  107.5715 N   0  0  0  0  0  0  0  0  0  0  0  0
  123.9016  107.4909  105.2658 S   0  0  0  0  0  0  0  0  0  0  0  0
  120.9232  105.6789  109.3780 S   0  0  0  0  0  0  0  0  0  0  0  0
  123.2938  104.0062  104.5688 H   0  0  0  0  0  0  0  0  0  0  0  0
  120.9631  104.8401  104.4751 H   0  0  0  0  0  0  0  0  0  0  0  0
  124.5169  103.9397  106.7257 H   0  0  0  0  0  0  0  0  0  0  0  0
  119.8211  105.6077  106.5373 H   0  0  0  0  0  0  0  0  0  0  0  0
  128.2675  104.9571  107.0012 H   0  0  0  0  0  0  0  0  0  0  0  0
  126.7673  104.4102  109.2586 H   0  0  0  0  0  0  0  0  0  0  0  0
  121.9827  103.8564  110.4977 H   0  0  0  0  0  0  0  0  0  0  0  0
  122.5793  105.3931  111.1478 H   0  0  0  0  0  0  0  0  0  0  0  0
  124.0394  103.8582  109.4112 H   0  0  0  0  0  0  0  0  0  0  0  0
  124.8732  105.9912  110.3485 H   0  0  0  0  0  0  0  0  0  0  0  0
  123.8858  106.9060  109.2071 H   0  0  0  0  0  0  0  0  0  0  0  0
  124.8713  108.8347  108.4720 H   0  0  0  0  0  0  0  0  0  0  0  0
  123.7594  109.4421  107.3006 H   0  0  0  0  0  0  0  0  0  0  0  0
  1  2  1  0  0  0  0
  1  3  2  0  0  0  0
  2  4  2  0  0  0  0
  3  7  1  0  0  0  0
  4  8  1  0  0  0  0
  5  6  2  0  0  0  0
  5 14  1  0  0  0  0
  6 15  1  0  0  0  0
  7  8  2  0  0  0  0
  7 12  1  0  0  0  0
  8 18  1  0  0  0  0
  9 10  1  0  0  0  0
  9 14  2  0  0  0  0
  9 15  1  0  0  0  0
 10 16  1  0  0  0  0
 10 17  2  0  0  0  0
 11 12  1  0  0  0  0
 11 18  1  0  0  0  0
 12 13  1  0  0  0  0
 13 15  1  0  0  0  0
  1 19  1  0  0  0  0
  2 20  1  0  0  0  0
  3 21  1  0  0  0  0
  4 22  1  0  0  0  0
  5 23  1  0  0  0  0
  6 24  1  0  0  0  0
 11 25  1  0  0  0  0
 11 26  1  0  0  0  0
 12 27  1  0  0  0  0
 13 28  1  0  0  0  0
 13 29  1  0  0  0  0
 16 30  1  0  0  0  0
 16 31  1  0  0  0  0
M  END
> <FRED Chemgauss4 score>
-3.255327

$$$$
C14232203	P106215939
  -OEChem-05182014473D

 43 45  0     1  0  0  0  0  0999 V2000
  119.3943  106.9377  107.2593 C   0  0  0  0  0  0  0  0  0  0  0  0
  124.2104  107.3421  109.1211 C   0  0  0  0  0  0  0  0  0  0  0  0
  120.6457  106.4625  106.8678 C   0  0  0  0  0  0  0  0  0  0  0  0
  123.7712  107.4900  107.8055 C   0  0  0  0  0  0  0  0  0  0  0  0
  118.5007  106.3758  105.0889 C   0  0  0  0  0  0  0  0  0  0  0  0
  125.0033  105.1187  108.6065 C   0  0  0  0  0  0  0  0  0  0  0  0
  119.7552  105.9024  104.6776 C   0  0  0  0  0  0  0  0  0  0  0  0
  118.3233  106.8956  106.3708 C   0  0  0  0  0  0  0  0  0  0  0  0
  124.8265  106.1565  109.5216 C   0  0  0  0  0  0  0  0  0  0  0  0
  124.5640  105.2665  107.2909 C   0  0  0  0  0  0  0  0  0  0  0  0
  120.8337  105.9432  105.5801 C   0  0  0  0  0  0  0  0  0  0  0  0
  123.9479  106.4522  106.8904 C   0  0  0  0  0  0  0  0  0  0  0  0
  119.8959  105.3024  103.3016 C   0  0  0  0  0  0  0  0  0  0  0  0
  121.3524  105.1657  102.8676 C   0  0  0  0  0  0  0  0  0  0  0  0
  122.1824  104.5689  103.9937 C   0  0  0  0  0  0  0  0  0  0  0  0
  116.9888  107.4195  106.7853 C   0  0  0  0  0  0  0  0  0  0  0  0
  125.2960  105.9989  110.9286 C   0  0  0  0  0  0  0  0  0  0  0  0
  124.7691  104.1365  106.3357 C   0  0  0  0  0  0  0  0  0  0  0  0
  122.1493  105.4761  105.1789 N   0  0  1  0  0  0  0  0  0  0  0  0
  122.7690  107.9808  105.1449 O   0  0  0  0  0  0  0  0  0  0  0  0
  124.4497  106.2852  104.3400 O   0  0  0  0  0  0  0  0  0  0  0  0
  123.3809  106.6733  105.2338 S   0  0  0  0  0  0  0  0  0  0  0  0
  119.2643  107.3446  108.2579 H   0  0  0  0  0  0  0  0  0  0  0  0
  124.0685  108.1557  109.8274 H   0  0  0  0  0  0  0  0  0  0  0  0
  121.4489  106.5123  107.5903 H   0  0  0  0  0  0  0  0  0  0  0  0
  123.2925  108.4184  107.5056 H   0  0  0  0  0  0  0  0  0  0  0  0
  117.6583  106.3471  104.4016 H   0  0  0  0  0  0  0  0  0  0  0  0
  125.4840  104.1952  108.9210 H   0  0  0  0  0  0  0  0  0  0  0  0
  119.4149  104.3130  103.3036 H   0  0  0  0  0  0  0  0  0  0  0  0
  119.3668  105.9210  102.5621 H   0  0  0  0  0  0  0  0  0  0  0  0
  121.4137  104.5320  101.9745 H   0  0  0  0  0  0  0  0  0  0  0  0
  121.7524  106.1516  102.5934 H   0  0  0  0  0  0  0  0  0  0  0  0
  121.8059  103.5785  104.2743 H   0  0  0  0  0  0  0  0  0  0  0  0
  123.2179  104.4635  103.6522 H   0  0  0  0  0  0  0  0  0  0  0  0
  116.9028  108.4850  106.5388 H   0  0  0  0  0  0  0  0  0  0  0  0
  116.1750  106.8798  106.2834 H   0  0  0  0  0  0  0  0  0  0  0  0
  116.8307  107.2986  107.8652 H   0  0  0  0  0  0  0  0  0  0  0  0
  124.5004  105.5712  111.5508 H   0  0  0  0  0  0  0  0  0  0  0  0
  126.1731  105.3413  110.9845 H   0  0  0  0  0  0  0  0  0  0  0  0
  125.5943  106.9636  111.3593 H   0  0  0  0  0  0  0  0  0  0  0  0
  123.9057  103.4616  106.3551 H   0  0  0  0  0  0  0  0  0  0  0  0
  124.9033  104.5036  105.3108 H   0  0  0  0  0  0  0  0  0  0  0  0
  125.6684  103.5617  106.5895 H   0  0  0  0  0  0  0  0  0  0  0  0
  1  3  1  0  0  0  0
  1  8  2  0  0  0  0
  2  4  2  0  0  0  0
  2  9  1  0  0  0  0
  3 11  2  0  0  0  0
  4 12  1  0  0  0  0
  5  7  2  0  0  0  0
  5  8  1  0  0  0  0
  6  9  2  0  0  0  0
  6 10  1  0  0  0  0
  7 11  1  0  0  0  0
  7 13  1  0  0  0  0
  8 16  1  0  0  0  0
  9 17  1  0  0  0  0
 10 12  2  0  0  0  0
 10 18  1  0  0  0  0
 11 19  1  0  0  0  0
 12 22  1  0  0  0  0
 13 14  1  0  0  0  0
 14 15  1  0  0  0  0
 15 19  1  0  0  0  0
 19 22  1  0  0  0  0
 20 22  2  0  0  0  0
 21 22  2  0  0  0  0
  1 23  1  0  0  0  0
  2 24  1  0  0  0  0
  3 25  1  0  0  0  0
  4 26  1  0  0  0  0
  5 27  1  0  0  0  0
  6 28  1  0  0  0  0
 13 29  1  0  0  0  0
 13 30  1  0  0  0  0
 14 31  1  0  0  0  0
 14 32  1  0  0  0  0
 15 33  1  0  0  0  0
 15 34  1  0  0  0  0
 16 35  1  0  0  0  0
 16 36  1  0  0  0  0
 16 37  1  0  0  0  0
 17 38  1  0  0  0  0
 17 39  1  0  0  0  0
 17 40  1  0  0  0  0
 18 41  1  0  0  0  0
 18 42  1  0  0  0  0
 18 43  1  0  0  0  0
M  END
> <FRED Chemgauss4 score>
-3.215938

$$$$
C39135257	P59285826
  -OEChem-05182014473D

 19 18  0     0  0  0  0  0  0999 V2000
  123.3420  108.0060  108.6287 C   0  0  0  0  0  0  0  0  0  0  0  0
  123.5333  107.7593  107.2290 C   0  0  0  0  0  0  0  0  0  0  0  0
  124.7129  108.0724  106.6166 C   0  0  0  0  0  0  0  0  0  0  0  0
  122.3965  107.1447  106.4635 C   0  0  0  0  0  0  0  0  0  0  0  0
  120.5429  105.6929  106.7023 C   0  0  0  0  0  0  0  0  0  0  0  0
  123.1854  108.2052  109.7613 N   0  0  0  0  0  0  0  0  0  0  0  0
  124.8731  107.8243  105.2632 N   0  0  0  0  0  0  0  0  0  0  0  0
  127.0137  108.8394  106.7736 N   0  0  0  0  0  0  0  0  0  0  0  0
  125.7612  108.6531  107.3237 N   0  0  0  0  0  0  0  0  0  0  0  0
  122.1658  107.3324  105.2781 O   0  0  0  0  0  0  0  0  0  0  0  0
  121.6676  106.3496  107.2971 O   0  0  0  0  0  0  0  0  0  0  0  0
  120.0342  105.0861  107.4553 H   0  0  0  0  0  0  0  0  0  0  0  0
  120.8829  105.0606  105.8782 H   0  0  0  0  0  0  0  0  0  0  0  0
  119.8525  106.4479  106.3188 H   0  0  0  0  0  0  0  0  0  0  0  0
  124.0999  107.4120  104.7561 H   0  0  0  0  0  0  0  0  0  0  0  0
  125.7346  108.0459  104.7820 H   0  0  0  0  0  0  0  0  0  0  0  0
  127.3153  107.9615  106.3529 H   0  0  0  0  0  0  0  0  0  0  0  0
  126.9335  109.5057  106.0066 H   0  0  0  0  0  0  0  0  0  0  0  0
  125.6413  108.8449  108.3112 H   0  0  0  0  0  0  0  0  0  0  0  0
  1  2  1  0  0  0  0
  1  6  3  0  0  0  0
  2  3  2  0  0  0  0
  2  4  1  0  0  0  0
  3  7  1  0  0  0  0
  3  9  1  0  0  0  0
  4 10  2  0  0  0  0
  4 11  1  0  0  0  0
  5 11  1  0  0  0  0
  8  9  1  0  0  0  0
  5 12  1  0  0  0  0
  5 13  1  0  0  0  0
  5 14  1  0  0  0  0
  7 15  1  0  0  0  0
  7 16  1  0  0  0  0
  8 17  1  0  0  0  0
  8 18  1  0  0  0  0
  9 19  1  0  0  0  0
M  END
> <FRED Chemgauss4 score>
-3.206639

$$$$
C65150707	P100121503
  -OEChem-05182014473D

 45 46  0     1  0  0  0  0  0999 V2000
  119.3310  106.0426  105.1811 C   0  0  0  0  0  0  0  0  0  0  0  0
  118.1196  105.5617  104.5620 C   0  0  0  0  0  0  0  0  0  0  0  0
  120.5016  106.0031  104.5318 C   0  0  0  0  0  0  0  0  0  0  0  0
  118.1511  105.0637  103.3161 C   0  0  0  0  0  0  0  0  0  0  0  0
  120.5577  105.4526  103.1443 C   0  0  0  0  0  0  0  0  0  0  0  0
  121.6923  106.5154  105.2389 C   0  0  0  0  0  0  0  0  0  0  0  0
  125.9832  105.7421  107.2915 C   0  0  0  0  0  0  0  0  0  0  0  0
  123.3746  103.3328  105.8679 C   0  0  0  0  0  0  0  0  0  0  0  0
  124.5970  103.7985  106.6547 C   0  0  0  0  0  0  0  0  0  0  0  0
  122.1440  104.1838  106.1805 C   0  0  0  0  0  0  0  0  0  0  0  0
  123.5907  106.1041  106.7559 C   0  0  0  0  0  0  0  0  0  0  0  0
  124.8432  105.2915  106.4321 C   0  0  1  0  0  0  0  0  0  0  0  0
  126.9436  103.5785  110.5174 C   0  0  0  0  0  0  0  0  0  0  0  0
  127.6759  104.8074  109.9973 C   0  0  0  0  0  0  0  0  0  0  0  0
  126.7323  105.9535  109.6530 C   0  0  0  0  0  0  0  0  0  0  0  0
  116.9452  104.5429  102.6018 C   0  0  0  0  0  0  0  0  0  0  0  0
  119.3471  105.0138  102.6296 N   0  0  0  0  0  0  0  0  0  0  0  0
  122.4303  105.6158  106.0046 N   0  0  0  0  0  0  0  0  0  0  0  0
  125.7627  105.5849  108.6466 N   0  0  0  0  0  0  0  0  0  0  0  0
  121.6165  105.4032  102.5231 O   0  0  0  0  0  0  0  0  0  0  0  0
  121.9587  107.7117  105.1113 O   0  0  0  0  0  0  0  0  0  0  0  0
  126.9921  106.1984  106.7665 O   0  0  0  0  0  0  0  0  0  0  0  0
  115.8431  104.6434  103.3740 F   0  0  0  0  0  0  0  0  0  0  0  0
  116.7161  105.2344  101.4658 F   0  0  0  0  0  0  0  0  0  0  0  0
  117.0970  103.2439  102.2687 F   0  0  0  0  0  0  0  0  0  0  0  0
  119.2420  106.4357  106.1891 H   0  0  0  0  0  0  0  0  0  0  0  0
  117.1999  105.6162  105.1339 H   0  0  0  0  0  0  0  0  0  0  0  0
  123.5888  103.3752  104.7913 H   0  0  0  0  0  0  0  0  0  0  0  0
  123.1605  102.2809  106.1066 H   0  0  0  0  0  0  0  0  0  0  0  0
  124.4553  103.5811  107.7119 H   0  0  0  0  0  0  0  0  0  0  0  0
  125.4694  103.2423  106.3114 H   0  0  0  0  0  0  0  0  0  0  0  0
  121.3253  103.9322  105.4899 H   0  0  0  0  0  0  0  0  0  0  0  0
  121.7734  103.9521  107.1833 H   0  0  0  0  0  0  0  0  0  0  0  0
  123.3894  106.0818  107.8312 H   0  0  0  0  0  0  0  0  0  0  0  0
  123.7375  107.1518  106.4709 H   0  0  0  0  0  0  0  0  0  0  0  0
  125.1351  105.4626  105.4062 H   0  0  0  0  0  0  0  0  0  0  0  0
  126.3702  103.8161  111.4191 H   0  0  0  0  0  0  0  0  0  0  0  0
  126.2451  103.2079  109.7602 H   0  0  0  0  0  0  0  0  0  0  0  0
  127.6409  102.7693  110.7552 H   0  0  0  0  0  0  0  0  0  0  0  0
  128.2354  104.5269  109.0974 H   0  0  0  0  0  0  0  0  0  0  0  0
  128.4077  105.1341  110.7457 H   0  0  0  0  0  0  0  0  0  0  0  0
  126.1708  106.2563  110.5424 H   0  0  0  0  0  0  0  0  0  0  0  0
  127.2831  106.8247  109.2848 H   0  0  0  0  0  0  0  0  0  0  0  0
  119.3347  104.6302  101.6888 H   0  0  0  0  0  0  0  0  0  0  0  0
  124.8769  105.1915  108.9498 H   0  0  0  0  0  0  0  0  0  0  0  0
  1  2  1  0  0  0  0
  1  3  2  0  0  0  0
  2  4  2  0  0  0  0
  3  5  1  0  0  0  0
  3  6  1  0  0  0  0
  4 16  1  0  0  0  0
  4 17  1  0  0  0  0
  5 17  1  0  0  0  0
  5 20  2  0  0  0  0
  6 18  1  0  0  0  0
  6 21  2  0  0  0  0
  7 12  1  0  0  0  0
  7 19  1  0  0  0  0
  7 22  2  0  0  0  0
  8  9  1  0  0  0  0
  8 10  1  0  0  0  0
  9 12  1  0  0  0  0
 10 18  1  0  0  0  0
 11 12  1  0  0  0  0
 11 18  1  0  0  0  0
 13 14  1  0  0  0  0
 14 15  1  0  0  0  0
 15 19  1  0  0  0  0
 16 23  1  0  0  0  0
 16 24  1  0  0  0  0
 16 25  1  0  0  0  0
  1 26  1  0  0  0  0
  2 27  1  0  0  0  0
  8 28  1  0  0  0  0
  8 29  1  0  0  0  0
  9 30  1  0  0  0  0
  9 31  1  0  0  0  0
 10 32  1  0  0  0  0
 10 33  1  0  0  0  0
 11 34  1  0  0  0  0
 11 35  1  0  0  0  0
 12 36  1  0  0  0  0
 13 37  1  0  0  0  0
 13 38  1  0  0  0  0
 13 39  1  0  0  0  0
 14 40  1  0  0  0  0
 14 41  1  0  0  0  0
 15 42  1  0  0  0  0
 15 43  1  0  0  0  0
 17 44  1  0  0  0  0
 19 45  1  0  0  0  0
M  END
> <FRED Chemgauss4 score>
-3.204902

$$$$
C44137234	P110141035
  -OEChem-05182014473D

 18 18  0     0  0  0  0  0  0999 V2000
  124.8590  106.8724  107.7809 C   0  0  0  0  0  0  0  0  0  0  0  0
  124.3410  104.5509  107.3988 C   0  0  0  0  0  0  0  0  0  0  0  0
  126.1311  106.6396  107.2776 C   0  0  0  0  0  0  0  0  0  0  0  0
  125.6262  104.3769  106.9052 C   0  0  0  0  0  0  0  0  0  0  0  0
  123.9577  105.8138  107.8401 C   0  0  0  0  0  0  0  0  0  0  0  0
  122.6253  106.0256  108.3596 C   0  0  0  0  0  0  0  0  0  0  0  0
  126.4740  105.4136  106.8594 N   0  3  0  0  0  0  0  0  0  0  0  0
  121.6323  106.3856  107.5188 N   0  0  0  0  0  0  0  0  0  0  0  0
  122.3921  105.8627  109.6778 N   0  3  0  0  0  0  0  0  0  0  0  0
  127.6588  105.2253  106.3971 O   0  5  0  0  0  0  0  0  0  0  0  0
  121.7800  106.6010  106.1228 O   0  5  0  0  0  0  0  0  0  0  0  0
  124.5816  107.8654  108.1204 H   0  0  0  0  0  0  0  0  0  0  0  0
  123.6546  103.7109  107.4363 H   0  0  0  0  0  0  0  0  0  0  0  0
  126.8902  107.4032  107.1959 H   0  0  0  0  0  0  0  0  0  0  0  0
  126.0037  103.4325  106.5426 H   0  0  0  0  0  0  0  0  0  0  0  0
  120.6918  106.5384  107.8655 H   0  0  0  0  0  0  0  0  0  0  0  0
  123.1321  105.5890  110.3149 H   0  0  0  0  0  0  0  0  0  0  0  0
  121.4624  106.0024  110.0575 H   0  0  0  0  0  0  0  0  0  0  0  0
  1  3  1  0  0  0  0
  1  5  2  0  0  0  0
  2  4  2  0  0  0  0
  2  5  1  0  0  0  0
  3  7  2  0  0  0  0
  4  7  1  0  0  0  0
  5  6  1  0  0  0  0
  6  8  1  0  0  0  0
  6  9  2  0  0  0  0
  7 10  1  0  0  0  0
  8 11  1  0  0  0  0
  1 12  1  0  0  0  0
  2 13  1  0  0  0  0
  3 14  1  0  0  0  0
  4 15  1  0  0  0  0
  8 16  1  0  0  0  0
  9 17  1  0  0  0  0
  9 18  1  0  0  0  0
M  CHG  4   7   1   9   1  10  -1  11  -1
M  END
> <FRED Chemgauss4 score>
-3.162725

$$$$
C18310963	P151024905
  -OEChem-05182014473D

 14 15  0     0  0  0  0  0  0999 V2000
  125.8146  107.1276  106.4641 C   0  0  0  0  0  0  0  0  0  0  0  0
  123.7499  107.1564  105.7459 C   0  0  0  0  0  0  0  0  0  0  0  0
  122.3951  106.9507  107.3745 C   0  0  0  0  0  0  0  0  0  0  0  0
  123.7786  106.9185  107.9689 C   0  0  0  0  0  0  0  0  0  0  0  0
  125.8380  107.2688  105.1506 N   0  0  0  0  0  0  0  0  0  0  0  0
  124.5184  107.2875  104.6907 N   0  0  0  0  0  0  0  0  0  0  0  0
  122.4316  107.0914  106.0685 N   0  0  0  0  0  0  0  0  0  0  0  0
  124.1312  106.7934  109.1923 N   0  0  0  0  0  0  0  0  0  0  0  0
  124.5271  107.0561  106.8487 N   0  0  0  0  0  0  0  0  0  0  0  0
  121.3034  106.8422  108.1836 N   0  0  0  0  0  0  0  0  0  0  0  0
  126.6652  107.0758  107.1278 H   0  0  0  0  0  0  0  0  0  0  0  0
  123.2974  106.7087  109.7884 H   0  0  0  0  0  0  0  0  0  0  0  0
  121.4441  106.7425  109.1658 H   0  0  0  0  0  0  0  0  0  0  0  0
  120.3966  106.8659  107.7693 H   0  0  0  0  0  0  0  0  0  0  0  0
  1  5  2  0  0  0  0
  1  9  1  0  0  0  0
  2  6  2  0  0  0  0
  2  7  1  0  0  0  0
  2  9  1  0  0  0  0
  3  4  1  0  0  0  0
  3  7  2  0  0  0  0
  3 10  1  0  0  0  0
  4  8  2  0  0  0  0
  4  9  1  0  0  0  0
  5  6  1  0  0  0  0
  1 11  1  0  0  0  0
  8 12  1  0  0  0  0
 10 13  1  0  0  0  0
 10 14  1  0  0  0  0
M  END
> <FRED Chemgauss4 score>
-3.139009

$$$$
C97135058	P153777836
  -OEChem-05182014473D

 28 29  0     1  0  0  0  0  0999 V2000
  121.3249  104.6090  104.5480 C   0  0  0  0  0  0  0  0  0  0  0  0
  120.2681  104.5518  105.4565 C   0  0  0  0  0  0  0  0  0  0  0  0
  122.4024  105.4628  104.7844 C   0  0  0  0  0  0  0  0  0  0  0  0
  120.2885  105.3485  106.6012 C   0  0  0  0  0  0  0  0  0  0  0  0
  122.4228  106.2595  105.9292 C   0  0  0  0  0  0  0  0  0  0  0  0
  121.3659  106.2023  106.8376 C   0  0  0  0  0  0  0  0  0  0  0  0
  124.8841  105.2782  107.4933 C   0  0  0  0  0  0  0  0  0  0  0  0
  124.7386  106.5301  106.9297 C   0  0  0  0  0  0  0  0  0  0  0  0
  123.8842  104.1921  107.4771 C   0  0  0  0  0  0  0  0  0  0  0  0
  123.5873  107.1653  106.1622 C   0  0  1  0  0  0  0  0  0  0  0  0
  121.3652  107.0463  108.0698 C   0  0  0  0  0  0  0  0  0  0  0  0
  126.0959  105.0445  108.1239 N   0  0  0  0  0  0  0  0  0  0  0  0
  126.8905  106.1008  108.0551 N   0  0  0  0  0  0  0  0  0  0  0  0
  124.1007  107.7138  104.8942 N   0  0  0  0  0  0  0  0  0  0  0  0
  120.2591  106.8709  108.8504 F   0  0  0  0  0  0  0  0  0  0  0  0
  122.4266  106.8072  108.8943 F   0  0  0  0  0  0  0  0  0  0  0  0
  121.4100  108.3806  107.7899 F   0  0  0  0  0  0  0  0  0  0  0  0
  126.1948  107.3850  107.2347 S   0  0  0  0  0  0  0  0  0  0  0  0
  121.3082  103.9892  103.6566 H   0  0  0  0  0  0  0  0  0  0  0  0
  119.4293  103.8870  105.2716 H   0  0  0  0  0  0  0  0  0  0  0  0
  123.2202  105.5011  104.0696 H   0  0  0  0  0  0  0  0  0  0  0  0
  119.4604  105.2965  107.3034 H   0  0  0  0  0  0  0  0  0  0  0  0
  124.0109  103.5490  106.5909 H   0  0  0  0  0  0  0  0  0  0  0  0
  123.9572  103.5495  108.3709 H   0  0  0  0  0  0  0  0  0  0  0  0
  122.8516  104.5809  107.4646 H   0  0  0  0  0  0  0  0  0  0  0  0
  123.2678  108.0586  106.7280 H   0  0  0  0  0  0  0  0  0  0  0  0
  125.0355  108.0418  104.8850 H   0  0  0  0  0  0  0  0  0  0  0  0
  123.4397  107.9150  104.1842 H   0  0  0  0  0  0  0  0  0  0  0  0
  1  2  1  0  0  0  0
  1  3  2  0  0  0  0
  2  4  2  0  0  0  0
  3  5  1  0  0  0  0
  4  6  1  0  0  0  0
  5  6  2  0  0  0  0
  5 10  1  0  0  0  0
  6 11  1  0  0  0  0
  7  8  2  0  0  0  0
  7  9  1  0  0  0  0
  7 12  1  0  0  0  0
  8 10  1  0  0  0  0
  8 18  1  0  0  0  0
 10 14  1  0  0  0  0
 11 15  1  0  0  0  0
 11 16  1  0  0  0  0
 11 17  1  0  0  0  0
 12 13  2  0  0  0  0
 13 18  1  0  0  0  0
  1 19  1  0  0  0  0
  2 20  1  0  0  0  0
  3 21  1  0  0  0  0
  4 22  1  0  0  0  0
  9 23  1  0  0  0  0
  9 24  1  0  0  0  0
  9 25  1  0  0  0  0
 10 26  1  0  0  0  0
 14 27  1  0  0  0  0
 14 28  1  0  0  0  0
M  END
> <FRED Chemgauss4 score>
-3.126465

$$$$
C97905000	P155397495
  -OEChem-05182014473D

 33 35  0     0  0  0  0  0  0999 V2000
  124.2948  108.4490  107.8344 C   0  0  0  0  0  0  0  0  0  0  0  0
  124.7506  107.1320  107.8525 C   0  0  0  0  0  0  0  0  0  0  0  0
  120.7897  104.4111  102.9324 C   0  0  0  0  0  0  0  0  0  0  0  0
  120.3439  105.8774  104.8000 C   0  0  0  0  0  0  0  0  0  0  0  0
  118.6645  104.2987  104.0759 C   0  0  0  0  0  0  0  0  0  0  0  0
  123.5075  108.8685  106.7705 C   0  0  0  0  0  0  0  0  0  0  0  0
  123.9754  104.7128  105.2283 C   0  0  0  0  0  0  0  0  0  0  0  0
  124.3848  106.2968  106.7846 C   0  0  0  0  0  0  0  0  0  0  0  0
  121.2010  105.4261  103.7963 C   0  0  0  0  0  0  0  0  0  0  0  0
  124.6223  104.9443  106.4231 C   0  0  0  0  0  0  0  0  0  0  0  0
  119.5215  103.8474  103.0722 C   0  0  0  0  0  0  0  0  0  0  0  0
  119.0757  105.3137  104.9399 C   0  0  0  0  0  0  0  0  0  0  0  0
  123.5909  106.8482  105.7832 C   0  0  0  0  0  0  0  0  0  0  0  0
  122.5692  106.0338  103.6451 C   0  0  0  0  0  0  0  0  0  0  0  0
  125.4162  103.9573  107.1819 C   0  0  0  0  0  0  0  0  0  0  0  0
  123.1249  108.1097  105.7173 N   0  0  0  0  0  0  0  0  0  0  0  0
  123.3536  105.8742  104.8494 N   0  0  0  0  0  0  0  0  0  0  0  0
  126.8421  104.1701  107.0618 N   0  0  0  0  0  0  0  0  0  0  0  0
  119.1268  102.8728  102.2425 F   0  0  0  0  0  0  0  0  0  0  0  0
  118.2527  105.7468  105.9039 F   0  0  0  0  0  0  0  0  0  0  0  0
  124.5509  109.1323  108.6370 H   0  0  0  0  0  0  0  0  0  0  0  0
  125.3679  106.7723  108.6694 H   0  0  0  0  0  0  0  0  0  0  0  0
  121.4501  104.0529  102.1473 H   0  0  0  0  0  0  0  0  0  0  0  0
  120.6559  106.6673  105.4781 H   0  0  0  0  0  0  0  0  0  0  0  0
  117.6778  103.8594  104.1850 H   0  0  0  0  0  0  0  0  0  0  0  0
  123.1434  109.8921  106.7404 H   0  0  0  0  0  0  0  0  0  0  0  0
  123.9062  103.8217  104.6184 H   0  0  0  0  0  0  0  0  0  0  0  0
  123.1178  105.5728  102.8147 H   0  0  0  0  0  0  0  0  0  0  0  0
  122.5041  107.1049  103.4182 H   0  0  0  0  0  0  0  0  0  0  0  0
  125.1800  103.9817  108.2605 H   0  0  0  0  0  0  0  0  0  0  0  0
  125.2222  102.9218  106.8511 H   0  0  0  0  0  0  0  0  0  0  0  0
  127.4583  103.3859  107.1726 H   0  0  0  0  0  0  0  0  0  0  0  0
  127.1926  105.1104  107.0753 H   0  0  0  0  0  0  0  0  0  0  0  0
  1  2  1  0  0  0  0
  1  6  2  0  0  0  0
  2  8  2  0  0  0  0
  3  9  1  0  0  0  0
  3 11  2  0  0  0  0
  4  9  2  0  0  0  0
  4 12  1  0  0  0  0
  5 11  1  0  0  0  0
  5 12  2  0  0  0  0
  6 16  1  0  0  0  0
  7 10  2  0  0  0  0
  7 17  1  0  0  0  0
  8 10  1  0  0  0  0
  8 13  1  0  0  0  0
  9 14  1  0  0  0  0
 10 15  1  0  0  0  0
 11 19  1  0  0  0  0
 12 20  1  0  0  0  0
 13 16  2  0  0  0  0
 13 17  1  0  0  0  0
 14 17  1  0  0  0  0
 15 18  1  0  0  0  0
  1 21  1  0  0  0  0
  2 22  1  0  0  0  0
  3 23  1  0  0  0  0
  4 24  1  0  0  0  0
  5 25  1  0  0  0  0
  6 26  1  0  0  0  0
  7 27  1  0  0  0  0
 14 28  1  0  0  0  0
 14 29  1  0  0  0  0
 15 30  1  0  0  0  0
 15 31  1  0  0  0  0
 18 32  1  0  0  0  0
 18 33  1  0  0  0  0
M  END
> <FRED Chemgauss4 score>
-3.112970

$$$$
C70199674	P108209758
  -OEChem-05182014473D

 18 17  0     0  0  0  0  0  0999 V2000
  119.9799  104.2421  106.5767 C   0  0  0  0  0  0  0  0  0  0  0  0
  120.8782  104.6972  105.9229 C   0  0  0  0  0  0  0  0  0  0  0  0
  124.6919  105.9643  106.2343 C   0  0  0  0  0  0  0  0  0  0  0  0
  121.9737  105.2485  105.1216 C   0  0  0  0  0  0  0  0  0  0  0  0
  123.3259  106.3016  106.8020 C   0  0  0  0  0  0  0  0  0  0  0  0
  125.2490  106.8688  105.4837 N   0  0  0  0  0  0  0  0  0  0  0  0
  125.2070  104.7372  106.5840 N   0  0  0  0  0  0  0  0  0  0  0  0
  122.4286  106.5167  105.6759 N   0  0  0  0  0  0  0  0  0  0  0  0
  124.4147  107.9855  105.3767 O   0  0  0  0  0  0  0  0  0  0  0  0
  119.1829  103.8389  107.1565 H   0  0  0  0  0  0  0  0  0  0  0  0
  121.6477  105.4059  104.0888 H   0  0  0  0  0  0  0  0  0  0  0  0
  122.8121  104.5452  105.0975 H   0  0  0  0  0  0  0  0  0  0  0  0
  123.3854  107.1990  107.4255 H   0  0  0  0  0  0  0  0  0  0  0  0
  122.9654  105.4713  107.4173 H   0  0  0  0  0  0  0  0  0  0  0  0
  124.7035  104.0968  107.1888 H   0  0  0  0  0  0  0  0  0  0  0  0
  126.1161  104.4384  106.2478 H   0  0  0  0  0  0  0  0  0  0  0  0
  121.6205  107.0552  105.9877 H   0  0  0  0  0  0  0  0  0  0  0  0
  124.9409  108.5679  104.8032 H   0  0  0  0  0  0  0  0  0  0  0  0
  1  2  3  0  0  0  0
  2  4  1  0  0  0  0
  3  5  1  0  0  0  0
  3  6  2  0  0  0  0
  3  7  1  0  0  0  0
  4  8  1  0  0  0  0
  5  8  1  0  0  0  0
  6  9  1  0  0  0  0
  1 10  1  0  0  0  0
  4 11  1  0  0  0  0
  4 12  1  0  0  0  0
  5 13  1  0  0  0  0
  5 14  1  0  0  0  0
  7 15  1  0  0  0  0
  7 16  1  0  0  0  0
  8 17  1  0  0  0  0
  9 18  1  0  0  0  0
M  END
> <FRED Chemgauss4 score>
-3.098800

$$$$
C54956955	P82741422
  -OEChem-05182014473D

 23 24  0     1  0  0  0  0  0999 V2000
  122.5260  106.4260  105.6296 C   0  0  0  0  0  0  0  0  0  0  0  0
  125.3395  106.1890  106.2415 C   0  0  0  0  0  0  0  0  0  0  0  0
  123.5816  106.5900  104.5642 C   0  0  0  0  0  0  0  0  0  0  0  0
  122.5934  105.0839  109.1554 C   0  0  0  0  0  0  0  0  0  0  0  0
  122.0070  105.3853  107.7856 C   0  0  0  0  0  0  0  0  0  0  0  0
  124.7853  104.8318  108.2610 C   0  0  0  0  0  0  0  0  0  0  0  0
  124.3315  105.2114  106.8428 C   0  0  1  0  0  0  0  0  0  0  0  0
  124.8338  106.9279  105.1913 N   0  0  0  0  0  0  0  0  0  0  0  0
  123.7348  104.1781  109.0385 N   0  0  0  0  0  0  0  0  0  0  0  0
  122.9997  105.8376  106.8125 N   0  0  0  0  0  0  0  0  0  0  0  0
  121.3449  106.6761  105.3898 O   0  0  0  0  0  0  0  0  0  0  0  0
  126.5200  106.2375  106.5814 O   0  0  0  0  0  0  0  0  0  0  0  0
  123.6966  105.6552  104.0081 H   0  0  0  0  0  0  0  0  0  0  0  0
  123.3084  107.4048  103.8887 H   0  0  0  0  0  0  0  0  0  0  0  0
  122.8956  106.0127  109.6552 H   0  0  0  0  0  0  0  0  0  0  0  0
  121.8263  104.6176  109.7829 H   0  0  0  0  0  0  0  0  0  0  0  0
  121.5424  104.4831  107.3670 H   0  0  0  0  0  0  0  0  0  0  0  0
  121.2175  106.1407  107.8704 H   0  0  0  0  0  0  0  0  0  0  0  0
  125.6473  104.1571  108.1940 H   0  0  0  0  0  0  0  0  0  0  0  0
  125.1357  105.7190  108.8060 H   0  0  0  0  0  0  0  0  0  0  0  0
  124.2867  104.3200  106.2044 H   0  0  0  0  0  0  0  0  0  0  0  0
  125.3571  107.7294  104.8523 H   0  0  0  0  0  0  0  0  0  0  0  0
  124.0911  103.9652  109.9699 H   0  0  0  0  0  0  0  0  0  0  0  0
  1  3  1  0  0  0  0
  1 10  1  0  0  0  0
  1 11  2  0  0  0  0
  2  7  1  0  0  0  0
  2  8  1  0  0  0  0
  2 12  2  0  0  0  0
  3  8  1  0  0  0  0
  4  5  1  0  0  0  0
  4  9  1  0  0  0  0
  5 10  1  0  0  0  0
  6  7  1  0  0  0  0
  6  9  1  0  0  0  0
  7 10  1  0  0  0  0
  3 13  1  0  0  0  0
  3 14  1  0  0  0  0
  4 15  1  0  0  0  0
  4 16  1  0  0  0  0
  5 17  1  0  0  0  0
  5 18  1  0  0  0  0
  6 19  1  0  0  0  0
  6 20  1  0  0  0  0
  7 21  1  0  0  0  0
  8 22  1  0  0  0  0
  9 23  1  0  0  0  0
M  END
> <FRED Chemgauss4 score>
-3.001882

$$$$
C39064009	P59184455
  -OEChem-05182014473D

 21 21  0     0  0  0  0  0  0999 V2000
  123.5750  107.2480  106.1629 C   0  0  0  0  0  0  0  0  0  0  0  0
  124.3692  106.1879  106.3621 C   0  0  0  0  0  0  0  0  0  0  0  0
  125.5507  106.3400  107.2083 C   0  0  0  0  0  0  0  0  0  0  0  0
  124.0512  104.8527  105.7508 C   0  0  0  0  0  0  0  0  0  0  0  0
  122.5780  104.7624  105.3103 C   0  0  0  0  0  0  0  0  0  0  0  0
  122.1123  106.0309  104.5851 C   0  0  0  0  0  0  0  0  0  0  0  0
  122.4539  107.1993  105.3757 N   0  0  0  0  0  0  0  0  0  0  0  0
  126.2600  106.9105  109.4138 N   0  0  0  0  0  0  0  0  0  0  0  0
  125.2417  106.7272  108.4996 N   0  0  0  0  0  0  0  0  0  0  0  0
  126.6830  106.1319  106.7657 O   0  0  0  0  0  0  0  0  0  0  0  0
  123.7529  108.2241  106.5974 H   0  0  0  0  0  0  0  0  0  0  0  0
  124.7039  104.6962  104.8834 H   0  0  0  0  0  0  0  0  0  0  0  0
  124.2559  104.0461  106.4643 H   0  0  0  0  0  0  0  0  0  0  0  0
  122.4319  103.8860  104.6691 H   0  0  0  0  0  0  0  0  0  0  0  0
  121.9530  104.6129  106.2011 H   0  0  0  0  0  0  0  0  0  0  0  0
  122.5988  106.1026  103.6057 H   0  0  0  0  0  0  0  0  0  0  0  0
  121.0306  105.9971  104.4197 H   0  0  0  0  0  0  0  0  0  0  0  0
  121.9352  108.0603  105.2422 H   0  0  0  0  0  0  0  0  0  0  0  0
  125.9698  107.6672  110.0319 H   0  0  0  0  0  0  0  0  0  0  0  0
  127.0631  107.2634  108.8947 H   0  0  0  0  0  0  0  0  0  0  0  0
  124.2883  106.8863  108.8108 H   0  0  0  0  0  0  0  0  0  0  0  0
  1  2  2  0  0  0  0
  1  7  1  0  0  0  0
  2  3  1  0  0  0  0
  2  4  1  0  0  0  0
  3  9  1  0  0  0  0
  3 10  2  0  0  0  0
  4  5  1  0  0  0  0
  5  6  1  0  0  0  0
  6  7  1  0  0  0  0
  8  9  1  0  0  0  0
  1 11  1  0  0  0  0
  4 12  1  0  0  0  0
  4 13  1  0  0  0  0
  5 14  1  0  0  0  0
  5 15  1  0  0  0  0
  6 16  1  0  0  0  0
  6 17  1  0  0  0  0
  7 18  1  0  0  0  0
  8 19  1  0  0  0  0
  8 20  1  0  0  0  0
  9 21  1  0  0  0  0
M  END
> <FRED Chemgauss4 score>
-2.907925

$$$$
C03640326	P46473025
  -OEChem-05182014473D

 16 16  0     0  0  0  0  0  0999 V2000
  122.7293  106.0452  104.5873 C   0  0  0  0  0  0  0  0  0  0  0  0
  121.4466  105.6352  104.2856 C   0  0  0  0  0  0  0  0  0  0  0  0
  122.8389  106.9478  105.6253 C   0  0  0  0  0  0  0  0  0  0  0  0
  120.5866  106.9449  105.9325 C   0  0  0  0  0  0  0  0  0  0  0  0
  124.1861  107.4490  106.0241 C   0  0  0  0  0  0  0  0  0  0  0  0
  120.3484  106.0663  104.9401 N   0  0  0  0  0  0  0  0  0  0  0  0
  121.7847  107.4207  106.3221 N   0  0  0  0  0  0  0  0  0  0  0  0
  119.4599  107.4180  106.6399 N   0  0  0  0  0  0  0  0  0  0  0  0
  124.7912  108.1074  104.9182 O   0  0  0  0  0  0  0  0  0  0  0  0
  123.5870  105.6769  104.0393 H   0  0  0  0  0  0  0  0  0  0  0  0
  121.2609  104.9272  103.4850 H   0  0  0  0  0  0  0  0  0  0  0  0
  124.1183  108.1579  106.8605 H   0  0  0  0  0  0  0  0  0  0  0  0
  124.8374  106.6242  106.3436 H   0  0  0  0  0  0  0  0  0  0  0  0
  118.5481  107.1273  106.3528 H   0  0  0  0  0  0  0  0  0  0  0  0
  119.5875  108.1067  107.3525 H   0  0  0  0  0  0  0  0  0  0  0  0
  125.6609  108.4163  105.2188 H   0  0  0  0  0  0  0  0  0  0  0  0
  1  2  1  0  0  0  0
  1  3  2  0  0  0  0
  2  6  2  0  0  0  0
  3  5  1  0  0  0  0
  3  7  1  0  0  0  0
  4  6  1  0  0  0  0
  4  7  2  0  0  0  0
  4  8  1  0  0  0  0
  5  9  1  0  0  0  0
  1 10  1  0  0  0  0
  2 11  1  0  0  0  0
  5 12  1  0  0  0  0
  5 13  1  0  0  0  0
  8 14  1  0  0  0  0
  8 15  1  0  0  0  0
  9 16  1  0  0  0  0
M  END
> <FRED Chemgauss4 score>
-2.878633

$$$$
C78452166	P122388941
  -OEChem-05182014473D

 45 46  0     1  0  0  0  0  0999 V2000
  118.6671  108.6975  105.9326 C   0  0  0  0  0  0  0  0  0  0  0  0
  118.0984  107.6425  106.6149 C   0  0  0  0  0  0  0  0  0  0  0  0
  120.0119  106.7056  106.0946 C   0  0  0  0  0  0  0  0  0  0  0  0
  125.6206  106.3721  106.5356 C   0  0  0  0  0  0  0  0  0  0  0  0
  122.2259  106.3607  108.1442 C   0  0  0  0  0  0  0  0  0  0  0  0
  125.0557  108.5062  107.6981 C   0  0  0  0  0  0  0  0  0  0  0  0
  124.3117  107.6815  108.7232 C   0  0  0  0  0  0  0  0  0  0  0  0
  124.4219  105.7066  107.2197 C   0  0  1  0  0  0  0  0  0  0  0  0
  116.7603  107.6401  107.2387 C   0  0  0  0  0  0  0  0  0  0  0  0
  125.1253  103.2966  107.1890 C   0  0  0  0  0  0  0  0  0  0  0  0
  126.1940  104.8959  108.8026 C   0  0  0  0  0  0  0  0  0  0  0  0
  121.6776  105.2058  107.3450 C   0  0  0  0  0  0  0  0  0  0  0  0
  124.9101  104.5283  108.0641 C   0  0  0  0  0  0  0  0  0  0  0  0
  121.1322  105.6710  105.9820 C   0  0  1  0  0  0  0  0  0  0  0  0
  120.6425  104.4588  105.1820 C   0  0  0  0  0  0  0  0  0  0  0  0
  118.8679  106.4993  106.7084 N   0  0  0  0  0  0  0  0  0  0  0  0
  125.9088  107.6728  106.8803 N   0  0  0  0  0  0  0  0  0  0  0  0
  123.5957  106.6117  108.0282 N   0  0  0  0  0  0  0  0  0  0  0  0
  126.3278  105.7363  105.7497 O   0  0  0  0  0  0  0  0  0  0  0  0
  121.4616  107.0210  108.8532 O   0  0  0  0  0  0  0  0  0  0  0  0
  122.2392  106.2149  105.2468 O   0  0  0  0  0  0  0  0  0  0  0  0
  120.2603  104.7960  103.9309 F   0  0  0  0  0  0  0  0  0  0  0  0
  121.6204  103.5303  105.0642 F   0  0  0  0  0  0  0  0  0  0  0  0
  119.5913  103.8590  105.7848 F   0  0  0  0  0  0  0  0  0  0  0  0
  120.2294  108.2520  105.3831 S   0  0  0  0  0  0  0  0  0  0  0  0
  118.2565  109.6779  105.7360 H   0  0  0  0  0  0  0  0  0  0  0  0
  124.3595  109.0139  107.0219 H   0  0  0  0  0  0  0  0  0  0  0  0
  125.6838  109.2614  108.1801 H   0  0  0  0  0  0  0  0  0  0  0  0
  125.0061  107.2092  109.4281 H   0  0  0  0  0  0  0  0  0  0  0  0
  123.6460  108.3230  109.3023 H   0  0  0  0  0  0  0  0  0  0  0  0
  123.7934  105.3106  106.4123 H   0  0  0  0  0  0  0  0  0  0  0  0
  115.9920  107.2923  106.5291 H   0  0  0  0  0  0  0  0  0  0  0  0
  116.7187  106.9853  108.1257 H   0  0  0  0  0  0  0  0  0  0  0  0
  116.4649  108.6445  107.5873 H   0  0  0  0  0  0  0  0  0  0  0  0
  125.8914  103.4771  106.4270 H   0  0  0  0  0  0  0  0  0  0  0  0
  124.1988  103.0155  106.6775 H   0  0  0  0  0  0  0  0  0  0  0  0
  125.4454  102.4425  107.7952 H   0  0  0  0  0  0  0  0  0  0  0  0
  127.0016  105.1384  108.1033 H   0  0  0  0  0  0  0  0  0  0  0  0
  126.5295  104.0652  109.4326 H   0  0  0  0  0  0  0  0  0  0  0  0
  126.0354  105.7643  109.4508 H   0  0  0  0  0  0  0  0  0  0  0  0
  122.4760  104.4680  107.2468 H   0  0  0  0  0  0  0  0  0  0  0  0
  120.8785  104.7735  107.9539 H   0  0  0  0  0  0  0  0  0  0  0  0
  124.1378  104.2956  108.8062 H   0  0  0  0  0  0  0  0  0  0  0  0
  126.7769  108.0734  106.5382 H   0  0  0  0  0  0  0  0  0  0  0  0
  122.5344  106.9889  105.7453 H   0  0  0  0  0  0  0  0  0  0  0  0
  1  2  2  0  0  0  0
  1 25  1  0  0  0  0
  2  9  1  0  0  0  0
  2 16  1  0  0  0  0
  3 14  1  0  0  0  0
  3 16  2  0  0  0  0
  3 25  1  0  0  0  0
  4  8  1  0  0  0  0
  4 17  1  0  0  0  0
  4 19  2  0  0  0  0
  5 12  1  0  0  0  0
  5 18  1  0  0  0  0
  5 20  2  0  0  0  0
  6  7  1  0  0  0  0
  6 17  1  0  0  0  0
  7 18  1  0  0  0  0
  8 13  1  0  0  0  0
  8 18  1  0  0  0  0
 10 13  1  0  0  0  0
 11 13  1  0  0  0  0
 12 14  1  0  0  0  0
 14 15  1  0  0  0  0
 14 21  1  0  0  0  0
 15 22  1  0  0  0  0
 15 23  1  0  0  0  0
 15 24  1  0  0  0  0
  1 26  1  0  0  0  0
  6 27  1  0  0  0  0
  6 28  1  0  0  0  0
  7 29  1  0  0  0  0
  7 30  1  0  0  0  0
  8 31  1  0  0  0  0
  9 32  1  0  0  0  0
  9 33  1  0  0  0  0
  9 34  1  0  0  0  0
 10 35  1  0  0  0  0
 10 36  1  0  0  0  0
 10 37  1  0  0  0  0
 11 38  1  0  0  0  0
 11 39  1  0  0  0  0
 11 40  1  0  0  0  0
 12 41  1  0  0  0  0
 12 42  1  0  0  0  0
 13 43  1  0  0  0  0
 17 44  1  0  0  0  0
 21 45  1  0  0  0  0
M  END
> <FRED Chemgauss4 score>
-2.873382

$$$$
C34865858	P90661520
  -OEChem-05182014473D

 17 16  0     0  0  0  0  0  0999 V2000
  123.4097  105.4564  107.0498 C   0  0  0  0  0  0  0  0  0  0  0  0
  124.5587  105.1210  107.1506 C   0  0  0  0  0  0  0  0  0  0  0  0
  122.0036  105.8662  106.9269 C   0  0  0  0  0  0  0  0  0  0  0  0
  125.9596  104.7079  107.2744 C   0  0  0  0  0  0  0  0  0  0  0  0
  121.8757  107.1369  106.0903 C   0  0  0  0  0  0  0  0  0  0  0  0
  126.8537  105.7479  106.7818 N   0  0  0  0  0  0  0  0  0  0  0  0
  122.3833  106.9100  104.7421 N   0  0  0  0  0  0  0  0  0  0  0  0
  121.5848  106.0312  107.9271 H   0  0  0  0  0  0  0  0  0  0  0  0
  121.4277  105.0533  106.4681 H   0  0  0  0  0  0  0  0  0  0  0  0
  126.1328  103.7828  106.7147 H   0  0  0  0  0  0  0  0  0  0  0  0
  126.1939  104.5045  108.3245 H   0  0  0  0  0  0  0  0  0  0  0  0
  122.4330  107.9588  106.5553 H   0  0  0  0  0  0  0  0  0  0  0  0
  120.8266  107.4485  106.0296 H   0  0  0  0  0  0  0  0  0  0  0  0
  126.5802  106.2598  105.9694 H   0  0  0  0  0  0  0  0  0  0  0  0
  127.7855  105.7776  107.1392 H   0  0  0  0  0  0  0  0  0  0  0  0
  123.1959  106.3409  104.6342 H   0  0  0  0  0  0  0  0  0  0  0  0
  122.0344  107.4847  104.0046 H   0  0  0  0  0  0  0  0  0  0  0  0
  1  2  3  0  0  0  0
  1  3  1  0  0  0  0
  2  4  1  0  0  0  0
  3  5  1  0  0  0  0
  4  6  1  0  0  0  0
  5  7  1  0  0  0  0
  3  8  1  0  0  0  0
  3  9  1  0  0  0  0
  4 10  1  0  0  0  0
  4 11  1  0  0  0  0
  5 12  1  0  0  0  0
  5 13  1  0  0  0  0
  6 14  1  0  0  0  0
  6 15  1  0  0  0  0
  7 16  1  0  0  0  0
  7 17  1  0  0  0  0
M  END
> <FRED Chemgauss4 score>
-2.856662

$$$$
C70184805	P108186127
  -OEChem-05182014473D

 23 23  0     1  0  0  0  0  0999 V2000
  120.9083  106.8487  104.9399 C   0  0  0  0  0  0  0  0  0  0  0  0
  120.4895  107.4183  106.1191 C   0  0  0  0  0  0  0  0  0  0  0  0
  122.6862  107.2635  106.0342 C   0  0  0  0  0  0  0  0  0  0  0  0
  126.0459  106.2661  107.7190 C   0  0  0  0  0  0  0  0  0  0  0  0
  121.7160  108.2822  108.1193 C   0  0  0  0  0  0  0  0  0  0  0  0
  124.5975  106.1542  107.2591 C   0  0  0  0  0  0  0  0  0  0  0  0
  124.1270  107.3970  106.4841 C   0  0  1  0  0  0  0  0  0  0  0  0
  122.2768  106.7549  104.8933 N   0  0  0  0  0  0  0  0  0  0  0  0
  121.6395  107.6781  106.8100 N   0  0  0  0  0  0  0  0  0  0  0  0
  124.9869  107.6791  105.3565 N   0  0  0  0  0  0  0  0  0  0  0  0
  120.2941  106.5014  104.1220 H   0  0  0  0  0  0  0  0  0  0  0  0
  119.5094  107.6517  106.5109 H   0  0  0  0  0  0  0  0  0  0  0  0
  126.1933  107.1573  108.3374 H   0  0  0  0  0  0  0  0  0  0  0  0
  126.3193  105.3907  108.3168 H   0  0  0  0  0  0  0  0  0  0  0  0
  126.7323  106.3187  106.8683 H   0  0  0  0  0  0  0  0  0  0  0  0
  121.6839  107.4813  108.8626 H   0  0  0  0  0  0  0  0  0  0  0  0
  122.6484  108.8470  108.2058 H   0  0  0  0  0  0  0  0  0  0  0  0
  120.8709  108.9634  108.2528 H   0  0  0  0  0  0  0  0  0  0  0  0
  124.4941  105.2510  106.6447 H   0  0  0  0  0  0  0  0  0  0  0  0
  123.9650  106.0096  108.1443 H   0  0  0  0  0  0  0  0  0  0  0  0
  124.2164  108.2705  107.1420 H   0  0  0  0  0  0  0  0  0  0  0  0
  125.9683  107.4833  105.4359 H   0  0  0  0  0  0  0  0  0  0  0  0
  124.6313  108.2443  104.6069 H   0  0  0  0  0  0  0  0  0  0  0  0
  1  2  2  0  0  0  0
  1  8  1  0  0  0  0
  2  9  1  0  0  0  0
  3  7  1  0  0  0  0
  3  8  2  0  0  0  0
  3  9  1  0  0  0  0
  4  6  1  0  0  0  0
  5  9  1  0  0  0  0
  6  7  1  0  0  0  0
  7 10  1  0  0  0  0
  1 11  1  0  0  0  0
  2 12  1  0  0  0  0
  4 13  1  0  0  0  0
  4 14  1  0  0  0  0
  4 15  1  0  0  0  0
  5 16  1  0  0  0  0
  5 17  1  0  0  0  0
  5 18  1  0  0  0  0
  6 19  1  0  0  0  0
  6 20  1  0  0  0  0
  7 21  1  0  0  0  0
 10 22  1  0  0  0  0
 10 23  1  0  0  0  0
M  END
> <FRED Chemgauss4 score>
-2.850474

$$$$
C13373498	P134222500
  -OEChem-05182014473D

 12 11  0     1  0  0  0  0  0999 V2000
  120.4607  105.3634  104.7161 C   0  0  0  0  0  0  0  0  0  0  0  0
  123.9777  106.5758  105.2910 C   0  0  0  0  0  0  0  0  0  0  0  0
  121.7886  105.8793  104.3415 C   0  0  0  0  0  0  0  0  0  0  0  0
  122.5281  106.4854  105.5441 C   0  0  2  0  0  0  0  0  0  0  0  0
  119.4145  104.9561  105.0091 N   0  0  0  0  0  0  0  0  0  0  0  0
  125.1196  106.6467  105.0960 N   0  0  0  0  0  0  0  0  0  0  0  0
  121.9958  107.8230  105.8098 N   0  0  0  0  0  0  0  0  0  0  0  0
  121.6771  106.6208  103.5398 H   0  0  0  0  0  0  0  0  0  0  0  0
  122.3718  105.0476  103.9254 H   0  0  0  0  0  0  0  0  0  0  0  0
  122.3568  105.8639  106.4319 H   0  0  0  0  0  0  0  0  0  0  0  0
  122.5723  108.4627  106.3088 H   0  0  0  0  0  0  0  0  0  0  0  0
  121.0222  107.9733  105.6672 H   0  0  0  0  0  0  0  0  0  0  0  0
  1  3  1  0  0  0  0
  1  5  3  0  0  0  0
  2  4  1  0  0  0  0
  2  6  3  0  0  0  0
  3  4  1  0  0  0  0
  4  7  1  0  0  0  0
  3  8  1  0  0  0  0
  3  9  1  0  0  0  0
  4 10  1  0  0  0  0
  7 11  1  0  0  0  0
  7 12  1  0  0  0  0
M  END
> <FRED Chemgauss4 score>
-2.757497

$$$$
C93756940	P146892601
  -OEChem-05182014473D

 53 54  0     1  0  0  0  0  0999 V2000
  118.9437  104.8656  106.0050 C   0  0  0  0  0  0  0  0  0  0  0  0
  121.0992  103.7996  104.0092 C   0  0  0  0  0  0  0  0  0  0  0  0
  123.7426  108.7367  106.7329 C   0  0  0  0  0  0  0  0  0  0  0  0
  122.2503  104.7561  104.3091 C   0  0  0  0  0  0  0  0  0  0  0  0
  125.1679  108.2305  106.4857 C   0  0  0  0  0  0  0  0  0  0  0  0
  119.8089  104.5519  103.6792 C   0  0  0  0  0  0  0  0  0  0  0  0
  120.6015  106.5068  105.0985 C   0  0  0  0  0  0  0  0  0  0  0  0
  122.6881  107.6236  106.7105 C   0  0  0  0  0  0  0  0  0  0  0  0
  124.2583  105.9579  105.8596 C   0  0  0  0  0  0  0  0  0  0  0  0
  121.8864  105.7321  105.4314 C   0  0  2  0  0  0  0  0  0  0  0  0
  125.2609  106.7275  106.7431 C   0  0  1  0  0  0  0  0  0  0  0  0
  119.4282  105.5710  104.7633 C   0  0  2  0  0  0  0  0  0  0  0  0
  116.7189  108.1323  104.8654 C   0  0  0  0  0  0  0  0  0  0  0  0
  126.6840  104.7925  106.7671 C   0  0  0  0  0  0  0  0  0  0  0  0
  127.5710  106.9440  107.3646 C   0  0  0  0  0  0  0  0  0  0  0  0
  117.8783  107.3150  105.3241 C   0  0  0  0  0  0  0  0  0  0  0  0
  122.9852  106.6678  105.6466 N   0  0  1  0  0  0  0  0  0  0  0  0
  117.8366  104.0769  105.7985 N   0  0  0  0  0  0  0  0  0  0  0  0
  118.2884  106.3663  104.3019 N   0  0  0  0  0  0  0  0  0  0  0  0
  126.6171  106.2315  106.5154 N   0  0  0  0  0  0  0  0  0  0  0  0
  119.5117  104.9858  107.0878 O   0  0  0  0  0  0  0  0  0  0  0  0
  121.3704  103.1534  103.1665 H   0  0  0  0  0  0  0  0  0  0  0  0
  120.9355  103.1413  104.8710 H   0  0  0  0  0  0  0  0  0  0  0  0
  123.7065  109.2571  107.7077 H   0  0  0  0  0  0  0  0  0  0  0  0
  123.4895  109.4991  105.9755 H   0  0  0  0  0  0  0  0  0  0  0  0
  123.1382  104.1741  104.5862 H   0  0  0  0  0  0  0  0  0  0  0  0
  122.5053  105.3080  103.3947 H   0  0  0  0  0  0  0  0  0  0  0  0
  125.4504  108.4620  105.4479 H   0  0  0  0  0  0  0  0  0  0  0  0
  125.8669  108.7785  107.1327 H   0  0  0  0  0  0  0  0  0  0  0  0
  119.9466  105.0669  102.7187 H   0  0  0  0  0  0  0  0  0  0  0  0
  119.0037  103.8209  103.5287 H   0  0  0  0  0  0  0  0  0  0  0  0
  120.3412  107.1601  105.9431 H   0  0  0  0  0  0  0  0  0  0  0  0
  120.7951  107.1691  104.2418 H   0  0  0  0  0  0  0  0  0  0  0  0
  122.7057  107.1226  107.6823 H   0  0  0  0  0  0  0  0  0  0  0  0
  121.6951  108.0651  106.5811 H   0  0  0  0  0  0  0  0  0  0  0  0
  124.7274  105.7147  104.8816 H   0  0  0  0  0  0  0  0  0  0  0  0
  124.0504  104.9798  106.3401 H   0  0  0  0  0  0  0  0  0  0  0  0
  121.7367  105.1670  106.3593 H   0  0  0  0  0  0  0  0  0  0  0  0
  125.0077  106.5322  107.7997 H   0  0  0  0  0  0  0  0  0  0  0  0
  116.9752  108.7045  103.9671 H   0  0  0  0  0  0  0  0  0  0  0  0
  115.8526  107.4963  104.6533 H   0  0  0  0  0  0  0  0  0  0  0  0
  116.4329  108.8440  105.6491 H   0  0  0  0  0  0  0  0  0  0  0  0
  127.7000  104.4278  106.5952 H   0  0  0  0  0  0  0  0  0  0  0  0
  126.0012  104.2600  106.0995 H   0  0  0  0  0  0  0  0  0  0  0  0
  126.4026  104.5762  107.8012 H   0  0  0  0  0  0  0  0  0  0  0  0
  128.5828  106.5689  107.1899 H   0  0  0  0  0  0  0  0  0  0  0  0
  127.3195  106.7999  108.4189 H   0  0  0  0  0  0  0  0  0  0  0  0
  127.5491  108.0142  107.1422 H   0  0  0  0  0  0  0  0  0  0  0  0
  117.6156  106.7464  106.2212 H   0  0  0  0  0  0  0  0  0  0  0  0
  118.7376  107.9532  105.5504 H   0  0  0  0  0  0  0  0  0  0  0  0
  117.4412  104.0274  104.8654 H   0  0  0  0  0  0  0  0  0  0  0  0
  117.3992  103.5422  106.5419 H   0  0  0  0  0  0  0  0  0  0  0  0
  118.5591  106.8681  103.4598 H   0  0  0  0  0  0  0  0  0  0  0  0
  1 12  1  0  0  0  0
  1 18  1  0  0  0  0
  1 21  2  0  0  0  0
  2  4  1  0  0  0  0
  2  6  1  0  0  0  0
  3  5  1  0  0  0  0
  3  8  1  0  0  0  0
  4 10  1  0  0  0  0
  5 11  1  0  0  0  0
  6 12  1  0  0  0  0
  7 10  1  0  0  0  0
  7 12  1  0  0  0  0
  8 17  1  0  0  0  0
  9 11  1  0  0  0  0
  9 17  1  0  0  0  0
 10 17  1  0  0  0  0
 11 20  1  0  0  0  0
 12 19  1  0  0  0  0
 13 16  1  0  0  0  0
 14 20  1  0  0  0  0
 15 20  1  0  0  0  0
 16 19  1  0  0  0  0
  2 22  1  0  0  0  0
  2 23  1  0  0  0  0
  3 24  1  0  0  0  0
  3 25  1  0  0  0  0
  4 26  1  0  0  0  0
  4 27  1  0  0  0  0
  5 28  1  0  0  0  0
  5 29  1  0  0  0  0
  6 30  1  0  0  0  0
  6 31  1  0  0  0  0
  7 32  1  0  0  0  0
  7 33  1  0  0  0  0
  8 34  1  0  0  0  0
  8 35  1  0  0  0  0
  9 36  1  0  0  0  0
  9 37  1  0  0  0  0
 10 38  1  0  0  0  0
 11 39  1  0  0  0  0
 13 40  1  0  0  0  0
 13 41  1  0  0  0  0
 13 42  1  0  0  0  0
 14 43  1  0  0  0  0
 14 44  1  0  0  0  0
 14 45  1  0  0  0  0
 15 46  1  0  0  0  0
 15 47  1  0  0  0  0
 15 48  1  0  0  0  0
 16 49  1  0  0  0  0
 16 50  1  0  0  0  0
 18 51  1  0  0  0  0
 18 52  1  0  0  0  0
 19 53  1  0  0  0  0
M  END
> <FRED Chemgauss4 score>
-2.619681

$$$$
C90748852	P141950415
  -OEChem-05182014473D

 33 34  0     1  0  0  0  0  0999 V2000
  121.7813  105.5006  106.4687 C   0  0  0  0  0  0  0  0  0  0  0  0
  122.9532  105.4128  107.1921 C   0  0  0  0  0  0  0  0  0  0  0  0
  121.7620  106.4606  105.4777 C   0  0  0  0  0  0  0  0  0  0  0  0
  123.8867  107.0937  105.9796 C   0  0  0  0  0  0  0  0  0  0  0  0
  126.5993  109.4835  106.6764 C   0  0  0  0  0  0  0  0  0  0  0  0
  125.1149  109.2315  106.5807 C   0  0  0  0  0  0  0  0  0  0  0  0
  127.1519  108.0768  106.7485 C   0  0  0  0  0  0  0  0  0  0  0  0
  125.0668  107.9875  105.7056 C   0  0  1  0  0  0  0  0  0  0  0  0
  122.9495  102.9611  107.7708 C   0  0  0  0  0  0  0  0  0  0  0  0
  122.0571  104.6430  109.4173 C   0  0  0  0  0  0  0  0  0  0  0  0
  124.5035  104.4469  109.0195 C   0  0  0  0  0  0  0  0  0  0  0  0
  123.1223  104.3906  108.3283 C   0  0  0  0  0  0  0  0  0  0  0  0
  124.0295  106.1964  106.9735 N   0  0  0  0  0  0  0  0  0  0  0  0
  122.8005  107.2775  105.2049 N   0  0  0  0  0  0  0  0  0  0  0  0
  126.2793  107.2514  105.9630 O   0  0  0  0  0  0  0  0  0  0  0  0
  120.4081  106.7467  104.4523 Cl  0  0  0  0  0  0  0  0  0  0  0  0
  120.3095  104.3662  106.8291 Br  0  0  0  0  0  0  0  0  0  0  0  0
  126.9500  109.9763  105.7619 H   0  0  0  0  0  0  0  0  0  0  0  0
  126.8868  110.1009  107.5313 H   0  0  0  0  0  0  0  0  0  0  0  0
  124.7113  109.0348  107.5825 H   0  0  0  0  0  0  0  0  0  0  0  0
  124.5566  110.0710  106.1551 H   0  0  0  0  0  0  0  0  0  0  0  0
  128.1728  108.0058  106.3632 H   0  0  0  0  0  0  0  0  0  0  0  0
  127.1373  107.6962  107.7754 H   0  0  0  0  0  0  0  0  0  0  0  0
  125.0665  108.2523  104.6391 H   0  0  0  0  0  0  0  0  0  0  0  0
  123.0655  102.2114  108.5622 H   0  0  0  0  0  0  0  0  0  0  0  0
  121.9604  102.8062  107.3260 H   0  0  0  0  0  0  0  0  0  0  0  0
  123.6956  102.7470  106.9964 H   0  0  0  0  0  0  0  0  0  0  0  0
  122.1395  103.9357  110.2497 H   0  0  0  0  0  0  0  0  0  0  0  0
  122.1559  105.6492  109.8412 H   0  0  0  0  0  0  0  0  0  0  0  0
  121.0444  104.5518  109.0071 H   0  0  0  0  0  0  0  0  0  0  0  0
  124.5751  103.7011  109.8204 H   0  0  0  0  0  0  0  0  0  0  0  0
  125.3167  104.2403  108.3140 H   0  0  0  0  0  0  0  0  0  0  0  0
  124.6870  105.4270  109.4751 H   0  0  0  0  0  0  0  0  0  0  0  0
  1  2  1  0  0  0  0
  1  3  2  0  0  0  0
  1 17  1  0  0  0  0
  2 12  1  0  0  0  0
  2 13  2  0  0  0  0
  3 14  1  0  0  0  0
  3 16  1  0  0  0  0
  4  8  1  0  0  0  0
  4 13  1  0  0  0  0
  4 14  2  0  0  0  0
  5  6  1  0  0  0  0
  5  7  1  0  0  0  0
  6  8  1  0  0  0  0
  7 15  1  0  0  0  0
  8 15  1  0  0  0  0
  9 12  1  0  0  0  0
 10 12  1  0  0  0  0
 11 12  1  0  0  0  0
  5 18  1  0  0  0  0
  5 19  1  0  0  0  0
  6 20  1  0  0  0  0
  6 21  1  0  0  0  0
  7 22  1  0  0  0  0
  7 23  1  0  0  0  0
  8 24  1  0  0  0  0
  9 25  1  0  0  0  0
  9 26  1  0  0  0  0
  9 27  1  0  0  0  0
 10 28  1  0  0  0  0
 10 29  1  0  0  0  0
 10 30  1  0  0  0  0
 11 31  1  0  0  0  0
 11 32  1  0  0  0  0
 11 33  1  0  0  0  0
M  END
> <FRED Chemgauss4 score>
-2.618820

$$$$
C56958872	P85524473
  -OEChem-05182014473D

 19 19  0     1  0  0  0  0  0999 V2000
  121.7987  107.0995  106.7802 C   0  0  0  0  0  0  0  0  0  0  0  0
  125.1089  105.0180  106.9550 C   0  0  0  0  0  0  0  0  0  0  0  0
  124.5303  106.2747  106.3361 C   0  0  0  0  0  0  0  0  0  0  0  0
  124.9279  106.6271  108.6044 C   0  0  0  0  0  0  0  0  0  0  0  0
  125.7960  105.5482  108.1263 N   0  0  0  0  0  0  0  0  0  0  0  0
  124.0841  107.0769  107.4837 N   0  0  2  0  0  0  0  0  0  0  0  0
  120.5179  106.8032  107.2122 N   0  0  0  0  0  0  0  0  0  0  0  0
  122.7478  106.8345  107.7552 N   0  0  0  0  0  0  0  0  0  0  0  0
  122.0353  107.5447  105.6579 O   0  0  0  0  0  0  0  0  0  0  0  0
  124.3392  104.2974  107.2271 H   0  0  0  0  0  0  0  0  0  0  0  0
  125.8272  104.5394  106.2868 H   0  0  0  0  0  0  0  0  0  0  0  0
  125.2829  106.8189  105.7336 H   0  0  0  0  0  0  0  0  0  0  0  0
  123.6869  106.0206  105.6595 H   0  0  0  0  0  0  0  0  0  0  0  0
  124.3294  106.2525  109.4487 H   0  0  0  0  0  0  0  0  0  0  0  0
  125.5326  107.4656  108.9735 H   0  0  0  0  0  0  0  0  0  0  0  0
  125.8298  104.8233  108.8411 H   0  0  0  0  0  0  0  0  0  0  0  0
  120.3803  106.4382  108.1487 H   0  0  0  0  0  0  0  0  0  0  0  0
  119.7141  106.9441  106.6096 H   0  0  0  0  0  0  0  0  0  0  0  0
  122.4952  106.4672  108.6666 H   0  0  0  0  0  0  0  0  0  0  0  0
  1  7  1  0  0  0  0
  1  8  1  0  0  0  0
  1  9  2  0  0  0  0
  2  3  1  0  0  0  0
  2  5  1  0  0  0  0
  3  6  1  0  0  0  0
  4  5  1  0  0  0  0
  4  6  1  0  0  0  0
  6  8  1  0  0  0  0
  2 10  1  0  0  0  0
  2 11  1  0  0  0  0
  3 12  1  0  0  0  0
  3 13  1  0  0  0  0
  4 14  1  0  0  0  0
  4 15  1  0  0  0  0
  5 16  1  0  0  0  0
  7 17  1  0  0  0  0
  7 18  1  0  0  0  0
  8 19  1  0  0  0  0
M  END
> <FRED Chemgauss4 score>
-2.612038

$$$$
C39223588	P59428200
  -OEChem-05182014473D

 15 16  0     1  0  0  0  0  0999 V2000
  122.1578  107.6153  106.9574 C   0  0  0  0  0  0  0  0  0  0  0  0
  124.1795  107.3941  106.5534 C   0  0  0  0  0  0  0  0  0  0  0  0
  125.4968  107.1745  105.9275 C   0  0  0  0  0  0  0  0  0  0  0  0
  124.4836  105.5874  108.1809 C   0  0  0  0  0  0  0  0  0  0  0  0
  124.0056  106.9912  107.9605 C   0  0  2  0  0  0  0  0  0  0  0  0
  122.5423  107.1044  108.0922 N   0  0  0  0  0  0  0  0  0  0  0  0
  123.1073  107.8075  105.9802 N   0  0  0  0  0  0  0  0  0  0  0  0
  126.1609  106.0958  106.4688 N   0  0  0  0  0  0  0  0  0  0  0  0
  125.5699  105.2354  107.3922 N   0  0  0  0  0  0  0  0  0  0  0  0
  125.8695  107.9230  105.0407 O   0  0  0  0  0  0  0  0  0  0  0  0
  123.9770  104.8361  109.0112 O   0  0  0  0  0  0  0  0  0  0  0  0
  121.1041  107.8598  106.7563 H   0  0  0  0  0  0  0  0  0  0  0  0
  124.5209  107.6822  108.6343 H   0  0  0  0  0  0  0  0  0  0  0  0
  127.1189  105.9207  106.1838 H   0  0  0  0  0  0  0  0  0  0  0  0
  125.9899  104.3140  107.4574 H   0  0  0  0  0  0  0  0  0  0  0  0
  1  6  2  0  0  0  0
  1  7  1  0  0  0  0
  2  3  1  0  0  0  0
  2  5  1  0  0  0  0
  2  7  2  0  0  0  0
  3  8  1  0  0  0  0
  3 10  2  0  0  0  0
  4  5  1  0  0  0  0
  4  9  1  0  0  0  0
  4 11  2  0  0  0  0
  5  6  1  0  0  0  0
  8  9  1  0  0  0  0
  1 12  1  0  0  0  0
  5 13  1  0  0  0  0
  8 14  1  0  0  0  0
  9 15  1  0  0  0  0
M  END
> <FRED Chemgauss4 score>
-2.503087

$$$$
C91396858	P143009131
  -OEChem-05182014473D

 50 51  0     1  0  0  0  0  0999 V2000
  124.2628  108.4891  106.4336 C   0  0  0  0  0  0  0  0  0  0  0  0
  118.9283  105.0030  105.0508 C   0  0  0  0  0  0  0  0  0  0  0  0
  125.3994  107.4735  106.5941 C   0  0  0  0  0  0  0  0  0  0  0  0
  118.9950  106.4364  105.5830 C   0  0  0  0  0  0  0  0  0  0  0  0
  121.3313  104.6209  105.7680 C   0  0  0  0  0  0  0  0  0  0  0  0
  122.8800  107.9131  106.7614 C   0  0  0  0  0  0  0  0  0  0  0  0
  123.7084  105.6193  106.8885 C   0  0  0  0  0  0  0  0  0  0  0  0
  119.9037  104.0489  105.7556 C   0  0  1  0  0  0  0  0  0  0  0  0
  121.3955  106.0533  106.3207 C   0  0  2  0  0  0  0  0  0  0  0  0
  124.9602  106.3041  107.4736 C   0  0  1  0  0  0  0  0  0  0  0  0
  120.4168  107.0018  105.6093 C   0  0  1  0  0  0  0  0  0  0  0  0
  119.4235  103.6955  107.1664 C   0  0  0  0  0  0  0  0  0  0  0  0
  125.5959  104.2193  108.4833 C   0  0  0  0  0  0  0  0  0  0  0  0
  127.2211  105.9680  108.2118 C   0  0  0  0  0  0  0  0  0  0  0  0
  119.9790  108.1714  103.4462 C   0  0  0  0  0  0  0  0  0  0  0  0
  122.7652  106.5510  106.2464 N   0  0  1  0  0  0  0  0  0  0  0  0
  126.0368  105.3290  107.6391 N   0  0  0  0  0  0  0  0  0  0  0  0
  120.8613  107.2502  104.2047 N   0  3  0  0  0  0  0  0  0  0  0  0
  124.4609  109.3609  107.0839 H   0  0  0  0  0  0  0  0  0  0  0  0
  124.2642  108.8782  105.4003 H   0  0  0  0  0  0  0  0  0  0  0  0
  117.9014  104.6293  105.1438 H   0  0  0  0  0  0  0  0  0  0  0  0
  119.1520  105.0070  103.9767 H   0  0  0  0  0  0  0  0  0  0  0  0
  125.6971  107.1155  105.5972 H   0  0  0  0  0  0  0  0  0  0  0  0
  126.2775  107.9740  107.0249 H   0  0  0  0  0  0  0  0  0  0  0  0
  118.3416  107.0773  104.9783 H   0  0  0  0  0  0  0  0  0  0  0  0
  118.5869  106.4600  106.6009 H   0  0  0  0  0  0  0  0  0  0  0  0
  121.9847  103.9630  106.3559 H   0  0  0  0  0  0  0  0  0  0  0  0
  121.7246  104.5988  104.7429 H   0  0  0  0  0  0  0  0  0  0  0  0
  122.7623  107.9159  107.8487 H   0  0  0  0  0  0  0  0  0  0  0  0
  122.1056  108.5628  106.3411 H   0  0  0  0  0  0  0  0  0  0  0  0
  124.0131  104.8285  106.1688 H   0  0  0  0  0  0  0  0  0  0  0  0
  123.1870  105.0864  107.7104 H   0  0  0  0  0  0  0  0  0  0  0  0
  119.9241  103.1108  105.1854 H   0  0  0  0  0  0  0  0  0  0  0  0
  121.1223  106.0260  107.3828 H   0  0  0  0  0  0  0  0  0  0  0  0
  124.7036  106.6904  108.4754 H   0  0  0  0  0  0  0  0  0  0  0  0
  120.4162  107.9863  106.0915 H   0  0  0  0  0  0  0  0  0  0  0  0
  119.3854  104.5957  107.7750 H   0  0  0  0  0  0  0  0  0  0  0  0
  120.1108  102.9844  107.6181 H   0  0  0  0  0  0  0  0  0  0  0  0
  118.4312  103.2540  107.1140 H   0  0  0  0  0  0  0  0  0  0  0  0
  126.4048  103.4940  108.6032 H   0  0  0  0  0  0  0  0  0  0  0  0
  124.7373  103.7170  108.0293 H   0  0  0  0  0  0  0  0  0  0  0  0
  125.3045  104.5880  109.4705 H   0  0  0  0  0  0  0  0  0  0  0  0
  128.0222  105.2342  108.3331 H   0  0  0  0  0  0  0  0  0  0  0  0
  126.9842  106.3953  109.1899 H   0  0  0  0  0  0  0  0  0  0  0  0
  127.5733  106.7684  107.5556 H   0  0  0  0  0  0  0  0  0  0  0  0
  118.9741  107.7451  103.4440 H   0  0  0  0  0  0  0  0  0  0  0  0
  119.9937  109.1394  103.9508 H   0  0  0  0  0  0  0  0  0  0  0  0
  120.3733  108.2518  102.4314 H   0  0  0  0  0  0  0  0  0  0  0  0
  121.8159  107.6283  104.2226 H   0  0  0  0  0  0  0  0  0  0  0  0
  120.9201  106.3504  103.7132 H   0  0  0  0  0  0  0  0  0  0  0  0
  1  3  1  0  0  0  0
  1  6  1  0  0  0  0
  2  4  1  0  0  0  0
  2  8  1  0  0  0  0
  3 10  1  0  0  0  0
  4 11  1  0  0  0  0
  5  8  1  0  0  0  0
  5  9  1  0  0  0  0
  6 16  1  0  0  0  0
  7 10  1  0  0  0  0
  7 16  1  0  0  0  0
  8 12  1  0  0  0  0
  9 11  1  0  0  0  0
  9 16  1  0  0  0  0
 10 17  1  0  0  0  0
 11 18  1  0  0  0  0
 13 17  1  0  0  0  0
 14 17  1  0  0  0  0
 15 18  1  0  0  0  0
  1 19  1  0  0  0  0
  1 20  1  0  0  0  0
  2 21  1  0  0  0  0
  2 22  1  0  0  0  0
  3 23  1  0  0  0  0
  3 24  1  0  0  0  0
  4 25  1  0  0  0  0
  4 26  1  0  0  0  0
  5 27  1  0  0  0  0
  5 28  1  0  0  0  0
  6 29  1  0  0  0  0
  6 30  1  0  0  0  0
  7 31  1  0  0  0  0
  7 32  1  0  0  0  0
  8 33  1  0  0  0  0
  9 34  1  0  0  0  0
 10 35  1  0  0  0  0
 11 36  1  0  0  0  0
 12 37  1  0  0  0  0
 12 38  1  0  0  0  0
 12 39  1  0  0  0  0
 13 40  1  0  0  0  0
 13 41  1  0  0  0  0
 13 42  1  0  0  0  0
 14 43  1  0  0  0  0
 14 44  1  0  0  0  0
 14 45  1  0  0  0  0
 15 46  1  0  0  0  0
 15 47  1  0  0  0  0
 15 48  1  0  0  0  0
 18 49  1  0  0  0  0
 18 50  1  0  0  0  0
M  CHG  1  18   1
M  END
> <FRED Chemgauss4 score>
-2.502109

$$$$
C36778321	P54653683
  -OEChem-05182014473D

 15 15  0     0  0  0  0  0  0999 V2000
  123.4408  106.6814  107.3185 C   0  0  0  0  0  0  0  0  0  0  0  0
  124.5575  106.5400  105.4296 C   0  0  0  0  0  0  0  0  0  0  0  0
  124.6292  106.1810  106.7534 C   0  0  0  0  0  0  0  0  0  0  0  0
  125.6978  105.4581  107.3714 C   0  0  0  0  0  0  0  0  0  0  0  0
  122.6708  107.3105  106.4268 N   0  0  0  0  0  0  0  0  0  0  0  0
  123.3769  107.2079  105.2879 N   0  0  0  0  0  0  0  0  0  0  0  0
  126.3507  103.9468  109.1481 N   0  0  0  0  0  0  0  0  0  0  0  0
  125.3775  104.6933  108.5094 N   0  0  0  0  0  0  0  0  0  0  0  0
  126.8765  105.4563  106.9412 O   0  0  0  0  0  0  0  0  0  0  0  0
  123.1005  106.6158  108.3424 H   0  0  0  0  0  0  0  0  0  0  0  0
  125.2227  106.3852  104.5916 H   0  0  0  0  0  0  0  0  0  0  0  0
  122.9917  107.6172  104.4458 H   0  0  0  0  0  0  0  0  0  0  0  0
  125.8912  103.1126  109.5109 H   0  0  0  0  0  0  0  0  0  0  0  0
  126.9932  103.6220  108.4269 H   0  0  0  0  0  0  0  0  0  0  0  0
  124.4268  104.6898  108.8629 H   0  0  0  0  0  0  0  0  0  0  0  0
  1  3  1  0  0  0  0
  1  5  2  0  0  0  0
  2  3  2  0  0  0  0
  2  6  1  0  0  0  0
  3  4  1  0  0  0  0
  4  8  1  0  0  0  0
  4  9  2  0  0  0  0
  5  6  1  0  0  0  0
  7  8  1  0  0  0  0
  1 10  1  0  0  0  0
  2 11  1  0  0  0  0
  6 12  1  0  0  0  0
  7 13  1  0  0  0  0
  7 14  1  0  0  0  0
  8 15  1  0  0  0  0
M  END
> <FRED Chemgauss4 score>
-2.442315

$$$$
C86781265	P135835082
  -OEChem-05182014473D

 20 20  0     0  0  0  0  0  0999 V2000
  124.2207  107.4241  106.1724 C   0  0  0  0  0  0  0  0  0  0  0  0
  122.5181  106.9703  107.4878 C   0  0  0  0  0  0  0  0  0  0  0  0
  123.8798  106.8161  107.3955 C   0  0  0  0  0  0  0  0  0  0  0  0
  126.1084  106.0110  108.2740 C   0  0  0  0  0  0  0  0  0  0  0  0
  120.7982  108.0288  106.0045 C   0  0  0  0  0  0  0  0  0  0  0  0
  123.1610  107.9268  105.5334 N   0  0  0  0  0  0  0  0  0  0  0  0
  122.1409  107.6350  106.3582 N   0  0  0  0  0  0  0  0  0  0  0  0
  127.9086  105.0607  109.5375 N   0  0  0  0  0  0  0  0  0  0  0  0
  124.7222  106.1826  108.3383 N   0  0  0  0  0  0  0  0  0  0  0  0
  126.5621  105.3328  109.4072 N   0  0  0  0  0  0  0  0  0  0  0  0
  126.8497  106.3874  107.3685 O   0  0  0  0  0  0  0  0  0  0  0  0
  125.1963  107.5236  105.7181 H   0  0  0  0  0  0  0  0  0  0  0  0
  121.8024  106.6711  108.2418 H   0  0  0  0  0  0  0  0  0  0  0  0
  120.6220  109.0286  106.4101 H   0  0  0  0  0  0  0  0  0  0  0  0
  120.6951  108.0343  104.9159 H   0  0  0  0  0  0  0  0  0  0  0  0
  120.0883  107.3127  106.4278 H   0  0  0  0  0  0  0  0  0  0  0  0
  127.9838  104.1709  110.0283 H   0  0  0  0  0  0  0  0  0  0  0  0
  128.2688  104.8945  108.5987 H   0  0  0  0  0  0  0  0  0  0  0  0
  124.2602  105.8073  109.1630 H   0  0  0  0  0  0  0  0  0  0  0  0
  125.9335  105.0316  110.1442 H   0  0  0  0  0  0  0  0  0  0  0  0
  1  3  1  0  0  0  0
  1  6  2  0  0  0  0
  2  3  2  0  0  0  0
  2  7  1  0  0  0  0
  3  9  1  0  0  0  0
  4  9  1  0  0  0  0
  4 10  1  0  0  0  0
  4 11  2  0  0  0  0
  5  7  1  0  0  0  0
  6  7  1  0  0  0  0
  8 10  1  0  0  0  0
  1 12  1  0  0  0  0
  2 13  1  0  0  0  0
  5 14  1  0  0  0  0
  5 15  1  0  0  0  0
  5 16  1  0  0  0  0
  8 17  1  0  0  0  0
  8 18  1  0  0  0  0
  9 19  1  0  0  0  0
 10 20  1  0  0  0  0
M  END
> <FRED Chemgauss4 score>
-2.404837

$$$$
C39941818	P60607622
  -OEChem-05182014473D

 56 59  0     1  0  0  0  0  0999 V2000
  120.9394  107.1584  105.4894 C   0  0  0  0  0  0  0  0  0  0  0  0
  125.8423  106.3749  107.5190 C   0  0  0  0  0  0  0  0  0  0  0  0
  119.5213  107.6859  105.5137 C   0  0  0  0  0  0  0  0  0  0  0  0
  115.7926  109.9387  106.4156 C   0  0  0  0  0  0  0  0  0  0  0  0
  117.2402  109.6793  105.9679 C   0  0  0  0  0  0  0  0  0  0  0  0
  118.5344  107.1806  109.1961 C   0  0  0  0  0  0  0  0  0  0  0  0
  122.7543  108.1658  107.8857 C   0  0  0  0  0  0  0  0  0  0  0  0
  115.5462  109.0469  107.6458 C   0  0  0  0  0  0  0  0  0  0  0  0
  117.0161  107.3796  108.9710 C   0  0  0  0  0  0  0  0  0  0  0  0
  121.6921  107.4947  108.7561 C   0  0  0  0  0  0  0  0  0  0  0  0
  122.8767  105.9553  106.5850 C   0  0  0  0  0  0  0  0  0  0  0  0
  121.3504  106.1433  106.5712 C   0  0  1  0  0  0  0  0  0  0  0  0
  119.1733  108.1303  106.9265 C   0  0  1  0  0  0  0  0  0  0  0  0
  117.8327  108.8582  107.1079 C   0  0  2  0  0  0  0  0  0  0  0  0
  119.3018  106.9144  107.8835 C   0  0  1  0  0  0  0  0  0  0  0  0
  123.6379  107.1557  107.1591 C   0  0  2  0  0  0  0  0  0  0  0  0
  116.6649  107.9865  107.5966 C   0  0  2  0  0  0  0  0  0  0  0  0
  120.7996  106.4589  108.0071 C   0  0  2  0  0  0  0  0  0  0  0  0
  126.7786  105.8963  108.5869 C   0  0  0  0  0  0  0  0  0  0  0  0
  116.2253  106.8755  106.6154 C   0  0  0  0  0  0  0  0  0  0  0  0
  120.8330  105.1407  108.8324 C   0  0  0  0  0  0  0  0  0  0  0  0
  121.6896  107.4641  104.5601 O   0  0  0  0  0  0  0  0  0  0  0  0
  126.1418  106.4675  106.3363 O   0  0  0  0  0  0  0  0  0  0  0  0
  124.6308  106.6831  108.0704 O   0  0  0  0  0  0  0  0  0  0  0  0
  119.4667  108.5337  104.8159 H   0  0  0  0  0  0  0  0  0  0  0  0
  118.8443  106.9042  105.1421 H   0  0  0  0  0  0  0  0  0  0  0  0
  115.6382  110.9930  106.6696 H   0  0  0  0  0  0  0  0  0  0  0  0
  115.0968  109.6920  105.6060 H   0  0  0  0  0  0  0  0  0  0  0  0
  117.2400  109.1308  105.0199 H   0  0  0  0  0  0  0  0  0  0  0  0
  117.7873  110.6148  105.8102 H   0  0  0  0  0  0  0  0  0  0  0  0
  118.9423  108.0781  109.6789 H   0  0  0  0  0  0  0  0  0  0  0  0
  118.6615  106.3627  109.9118 H   0  0  0  0  0  0  0  0  0  0  0  0
  122.2652  108.8182  107.1458 H   0  0  0  0  0  0  0  0  0  0  0  0
  123.3753  108.8475  108.4865 H   0  0  0  0  0  0  0  0  0  0  0  0
  115.6297  109.6621  108.5510 H   0  0  0  0  0  0  0  0  0  0  0  0
  114.5391  108.6160  107.6397 H   0  0  0  0  0  0  0  0  0  0  0  0
  116.5105  106.4134  109.0917 H   0  0  0  0  0  0  0  0  0  0  0  0
  116.6378  108.0102  109.7848 H   0  0  0  0  0  0  0  0  0  0  0  0
  122.1912  107.0121  109.6101 H   0  0  0  0  0  0  0  0  0  0  0  0
  121.0760  108.2946  109.1876 H   0  0  0  0  0  0  0  0  0  0  0  0
  123.1393  105.0566  107.1616 H   0  0  0  0  0  0  0  0  0  0  0  0
  123.2548  105.7415  105.5743 H   0  0  0  0  0  0  0  0  0  0  0  0
  120.9197  105.1930  106.2309 H   0  0  0  0  0  0  0  0  0  0  0  0
  119.9228  108.8744  107.1994 H   0  0  0  0  0  0  0  0  0  0  0  0
  118.0271  109.5874  107.9114 H   0  0  0  0  0  0  0  0  0  0  0  0
  118.8023  106.0601  107.4121 H   0  0  0  0  0  0  0  0  0  0  0  0
  124.1842  107.6741  106.3460 H   0  0  0  0  0  0  0  0  0  0  0  0
  127.3264  106.7435  109.0068 H   0  0  0  0  0  0  0  0  0  0  0  0
  127.4693  105.1584  108.1711 H   0  0  0  0  0  0  0  0  0  0  0  0
  126.2035  105.4217  109.3873 H   0  0  0  0  0  0  0  0  0  0  0  0
  117.0012  106.1223  106.5696 H   0  0  0  0  0  0  0  0  0  0  0  0
  116.0738  107.3129  105.6371 H   0  0  0  0  0  0  0  0  0  0  0  0
  115.3027  106.4375  106.9738 H   0  0  0  0  0  0  0  0  0  0  0  0
  120.2196  104.4075  108.3302 H   0  0  0  0  0  0  0  0  0  0  0  0
  120.4452  105.3454  109.8191 H   0  0  0  0  0  0  0  0  0  0  0  0
  121.8561  104.8005  108.8916 H   0  0  0  0  0  0  0  0  0  0  0  0
  1  3  1  0  0  0  0
  1 12  1  0  0  0  0
  1 22  2  0  0  0  0
  2 19  1  0  0  0  0
  2 23  2  0  0  0  0
  2 24  1  0  0  0  0
  3 13  1  0  0  0  0
  4  5  1  0  0  0  0
  4  8  1  0  0  0  0
  5 14  1  0  0  0  0
  6  9  1  0  0  0  0
  6 15  1  0  0  0  0
  7 10  1  0  0  0  0
  7 16  1  0  0  0  0
  8 17  1  0  0  0  0
  9 17  1  0  0  0  0
 10 18  1  0  0  0  0
 11 12  1  0  0  0  0
 11 16  1  0  0  0  0
 12 18  1  0  0  0  0
 13 14  1  0  0  0  0
 13 15  1  0  0  0  0
 14 17  1  0  0  0  0
 15 18  1  0  0  0  0
 16 24  1  0  0  0  0
 17 20  1  0  0  0  0
 18 21  1  0  0  0  0
  3 25  1  0  0  0  0
  3 26  1  0  0  0  0
  4 27  1  0  0  0  0
  4 28  1  0  0  0  0
  5 29  1  0  0  0  0
  5 30  1  0  0  0  0
  6 31  1  0  0  0  0
  6 32  1  0  0  0  0
  7 33  1  0  0  0  0
  7 34  1  0  0  0  0
  8 35  1  0  0  0  0
  8 36  1  0  0  0  0
  9 37  1  0  0  0  0
  9 38  1  0  0  0  0
 10 39  1  0  0  0  0
 10 40  1  0  0  0  0
 11 41  1  0  0  0  0
 11 42  1  0  0  0  0
 12 43  1  0  0  0  0
 13 44  1  0  0  0  0
 14 45  1  0  0  0  0
 15 46  1  0  0  0  0
 16 47  1  0  0  0  0
 19 48  1  0  0  0  0
 19 49  1  0  0  0  0
 19 50  1  0  0  0  0
 20 51  1  0  0  0  0
 20 52  1  0  0  0  0
 20 53  1  0  0  0  0
 21 54  1  0  0  0  0
 21 55  1  0  0  0  0
 21 56  1  0  0  0  0
M  END
> <FRED Chemgauss4 score>
-2.282511

$$$$
C05828092	P128165759
  -OEChem-05182014473D

 11 10  0     0  0  0  0  0  0999 V2000
  124.8212  107.1486  104.9696 C   0  0  0  0  0  0  0  0  0  0  0  0
  120.7958  106.8030  104.6944 C   0  0  0  0  0  0  0  0  0  0  0  0
  122.9054  106.0190  105.4422 C   0  0  0  0  0  0  0  0  0  0  0  0
  125.9745  107.2544  105.0441 N   0  0  0  0  0  0  0  0  0  0  0  0
  120.1965  107.6110  104.1159 N   0  0  0  0  0  0  0  0  0  0  0  0
  123.4881  107.0363  104.8775 N   0  0  0  0  0  0  0  0  0  0  0  0
  123.4892  104.9976  106.1520 N   0  0  0  0  0  0  0  0  0  0  0  0
  121.4801  105.8637  105.3651 N   0  0  0  0  0  0  0  0  0  0  0  0
  124.4931  104.9643  106.2937 H   0  0  0  0  0  0  0  0  0  0  0  0
  122.9448  104.2432  106.5553 H   0  0  0  0  0  0  0  0  0  0  0  0
  121.0409  105.0520  105.8156 H   0  0  0  0  0  0  0  0  0  0  0  0
  1  4  3  0  0  0  0
  1  6  1  0  0  0  0
  2  5  3  0  0  0  0
  2  8  1  0  0  0  0
  3  6  2  0  0  0  0
  3  7  1  0  0  0  0
  3  8  1  0  0  0  0
  7  9  1  0  0  0  0
  7 10  1  0  0  0  0
  8 11  1  0  0  0  0
M  END
> <FRED Chemgauss4 score>
-2.249980

$$$$
C50392648	P75365168
  -OEChem-05182014473D

 24 24  0     1  0  0  0  0  0999 V2000
  125.4910  106.2120  106.9454 C   0  0  0  0  0  0  0  0  0  0  0  0
  122.3149  106.4158  105.2328 C   0  0  0  0  0  0  0  0  0  0  0  0
  123.8830  104.5214  108.6896 C   0  0  0  0  0  0  0  0  0  0  0  0
  123.3590  105.9109  108.3584 C   0  0  0  0  0  0  0  0  0  0  0  0
  125.3874  104.5942  108.8645 C   0  0  0  0  0  0  0  0  0  0  0  0
  123.9928  106.4473  107.0797 C   0  0  2  0  0  0  0  0  0  0  0  0
  126.0476  105.2396  107.7473 N   0  0  0  0  0  0  0  0  0  0  0  0
  120.8902  106.0532  103.3488 N   0  0  0  0  0  0  0  0  0  0  0  0
  123.4074  105.8600  105.8985 N   0  0  0  0  0  0  0  0  0  0  0  0
  121.9546  105.6513  104.1289 N   0  0  0  0  0  0  0  0  0  0  0  0
  126.1460  106.7930  106.0763 O   0  0  0  0  0  0  0  0  0  0  0  0
  121.7477  107.4507  105.5825 O   0  0  0  0  0  0  0  0  0  0  0  0
  123.4134  104.1587  109.6106 H   0  0  0  0  0  0  0  0  0  0  0  0
  123.6305  103.8168  107.8915 H   0  0  0  0  0  0  0  0  0  0  0  0
  122.2597  105.8786  108.2588 H   0  0  0  0  0  0  0  0  0  0  0  0
  123.5651  106.5977  109.1963 H   0  0  0  0  0  0  0  0  0  0  0  0
  125.6474  105.1452  109.7709 H   0  0  0  0  0  0  0  0  0  0  0  0
  125.8117  103.5893  108.9435 H   0  0  0  0  0  0  0  0  0  0  0  0
  123.8349  107.5264  106.9995 H   0  0  0  0  0  0  0  0  0  0  0  0
  126.9991  104.9511  107.5384 H   0  0  0  0  0  0  0  0  0  0  0  0
  121.1054  105.7806  102.3907 H   0  0  0  0  0  0  0  0  0  0  0  0
  120.8853  107.0722  103.3571 H   0  0  0  0  0  0  0  0  0  0  0  0
  123.7832  104.9787  105.5578 H   0  0  0  0  0  0  0  0  0  0  0  0
  122.4688  104.8072  103.8996 H   0  0  0  0  0  0  0  0  0  0  0  0
  1  6  1  0  0  0  0
  1  7  1  0  0  0  0
  1 11  2  0  0  0  0
  2  9  1  0  0  0  0
  2 10  1  0  0  0  0
  2 12  2  0  0  0  0
  3  4  1  0  0  0  0
  3  5  1  0  0  0  0
  4  6  1  0  0  0  0
  5  7  1  0  0  0  0
  6  9  1  0  0  0  0
  8 10  1  0  0  0  0
  3 13  1  0  0  0  0
  3 14  1  0  0  0  0
  4 15  1  0  0  0  0
  4 16  1  0  0  0  0
  5 17  1  0  0  0  0
  5 18  1  0  0  0  0
  6 19  1  0  0  0  0
  7 20  1  0  0  0  0
  8 21  1  0  0  0  0
  8 22  1  0  0  0  0
  9 23  1  0  0  0  0
 10 24  1  0  0  0  0
M  END
> <FRED Chemgauss4 score>
-2.191629

$$$$
C71025116	P109616447
  -OEChem-05182014473D

 35 35  0     1  0  0  0  0  0999 V2000
  122.0737  105.0823  109.0418 C   0  0  0  0  0  0  0  0  0  0  0  0
  121.0197  105.9199  109.4065 C   0  0  0  0  0  0  0  0  0  0  0  0
  121.5723  107.4082  107.5854 C   0  0  0  0  0  0  0  0  0  0  0  0
  122.6264  106.5706  107.2207 C   0  0  0  0  0  0  0  0  0  0  0  0
  122.8771  105.4077  107.9489 C   0  0  0  0  0  0  0  0  0  0  0  0
  120.7689  107.0828  108.6783 C   0  0  0  0  0  0  0  0  0  0  0  0
  124.1839  108.2920  106.2192 C   0  0  0  0  0  0  0  0  0  0  0  0
  127.6785  104.7285  107.4540 C   0  0  0  0  0  0  0  0  0  0  0  0
  123.7088  103.4626  106.6508 C   0  0  0  0  0  0  0  0  0  0  0  0
  125.2586  104.7359  108.1426 C   0  0  0  0  0  0  0  0  0  0  0  0
  123.4709  106.9439  106.0460 C   0  0  2  0  0  0  0  0  0  0  0  0
  126.2489  105.0154  107.0149 C   0  0  1  0  0  0  0  0  0  0  0  0
  122.7113  106.9446  104.8084 N   0  0  0  0  0  0  0  0  0  0  0  0
  123.9320  104.5553  107.5977 N   0  0  3  0  0  0  0  0  0  0  0  0
  126.1505  106.3915  106.6527 O   0  0  0  0  0  0  0  0  0  0  0  0
  119.7565  107.8871  109.0283 F   0  0  0  0  0  0  0  0  0  0  0  0
  122.2599  104.1789  109.6172 H   0  0  0  0  0  0  0  0  0  0  0  0
  120.3937  105.6664  110.2570 H   0  0  0  0  0  0  0  0  0  0  0  0
  121.3683  108.3166  107.0249 H   0  0  0  0  0  0  0  0  0  0  0  0
  123.4582  109.0965  106.3814 H   0  0  0  0  0  0  0  0  0  0  0  0
  124.8657  108.2720  107.0768 H   0  0  0  0  0  0  0  0  0  0  0  0
  124.7826  108.5496  105.3382 H   0  0  0  0  0  0  0  0  0  0  0  0
  127.9492  105.3160  108.3365 H   0  0  0  0  0  0  0  0  0  0  0  0
  127.8123  103.6655  107.6835 H   0  0  0  0  0  0  0  0  0  0  0  0
  128.3820  104.9671  106.6490 H   0  0  0  0  0  0  0  0  0  0  0  0
  124.6360  102.9047  106.4956 H   0  0  0  0  0  0  0  0  0  0  0  0
  123.3713  103.8587  105.6893 H   0  0  0  0  0  0  0  0  0  0  0  0
  122.9470  102.7790  107.0352 H   0  0  0  0  0  0  0  0  0  0  0  0
  125.5378  103.8289  108.6896 H   0  0  0  0  0  0  0  0  0  0  0  0
  125.2336  105.5703  108.8511 H   0  0  0  0  0  0  0  0  0  0  0  0
  124.2565  106.1852  105.8878 H   0  0  0  0  0  0  0  0  0  0  0  0
  126.0045  104.4150  106.1309 H   0  0  0  0  0  0  0  0  0  0  0  0
  121.9945  106.2567  104.6880 H   0  0  0  0  0  0  0  0  0  0  0  0
  123.0523  107.4873  104.0396 H   0  0  0  0  0  0  0  0  0  0  0  0
  126.7770  106.5301  105.9259 H   0  0  0  0  0  0  0  0  0  0  0  0
  1  2  2  0  0  0  0
  1  5  1  0  0  0  0
  2  6  1  0  0  0  0
  3  4  1  0  0  0  0
  3  6  2  0  0  0  0
  4  5  2  0  0  0  0
  4 11  1  0  0  0  0
  5 14  1  0  0  0  0
  6 16  1  0  0  0  0
  7 11  1  0  0  0  0
  8 12  1  0  0  0  0
  9 14  1  0  0  0  0
 10 12  1  0  0  0  0
 10 14  1  0  0  0  0
 11 13  1  0  0  0  0
 12 15  1  0  0  0  0
  1 17  1  0  0  0  0
  2 18  1  0  0  0  0
  3 19  1  0  0  0  0
  7 20  1  0  0  0  0
  7 21  1  0  0  0  0
  7 22  1  0  0  0  0
  8 23  1  0  0  0  0
  8 24  1  0  0  0  0
  8 25  1  0  0  0  0
  9 26  1  0  0  0  0
  9 27  1  0  0  0  0
  9 28  1  0  0  0  0
 10 29  1  0  0  0  0
 10 30  1  0  0  0  0
 11 31  1  0  0  0  0
 12 32  1  0  0  0  0
 13 33  1  0  0  0  0
 13 34  1  0  0  0  0
 15 35  1  0  0  0  0
M  END
> <FRED Chemgauss4 score>
-2.149509

$$$$
C91671604	P143506818
  -OEChem-05182014473D

 39 40  0     1  0  0  0  0  0999 V2000
  125.6592  105.6414  108.7408 C   0  0  0  0  0  0  0  0  0  0  0  0
  125.3079  104.2999  108.8433 C   0  0  0  0  0  0  0  0  0  0  0  0
  125.4280  106.3260  107.5529 C   0  0  0  0  0  0  0  0  0  0  0  0
  124.7329  103.6939  107.7379 C   0  0  0  0  0  0  0  0  0  0  0  0
  124.8478  105.6292  106.5053 C   0  0  0  0  0  0  0  0  0  0  0  0
  125.7982  107.7312  107.4563 C   0  0  0  0  0  0  0  0  0  0  0  0
  119.5998  106.7647  104.9157 C   0  0  0  0  0  0  0  0  0  0  0  0
  121.2613  105.3922  103.8380 C   0  0  0  0  0  0  0  0  0  0  0  0
  120.6502  107.1842  105.9412 C   0  0  0  0  0  0  0  0  0  0  0  0
  122.2804  105.8363  104.8962 C   0  0  1  0  0  0  0  0  0  0  0  0
  124.3433  102.2552  107.8123 C   0  0  0  0  0  0  0  0  0  0  0  0
  119.5510  104.3518  105.2241 C   0  0  0  0  0  0  0  0  0  0  0  0
  123.6862  105.8868  104.3121 C   0  0  0  0  0  0  0  0  0  0  0  0
  124.4929  104.3262  106.5674 N   0  0  0  0  0  0  0  0  0  0  0  0
  119.8727  105.4510  104.3175 N   0  0  1  0  0  0  0  0  0  0  0  0
  125.1999  108.6008  108.3383 N   0  0  0  0  0  0  0  0  0  0  0  0
  124.6129  106.3100  105.3096 N   0  0  0  0  0  0  0  0  0  0  0  0
  121.9541  107.1506  105.3606 O   0  0  0  0  0  0  0  0  0  0  0  0
  126.9245  108.2635  106.3379 S   0  0  0  0  0  0  0  0  0  0  0  0
  126.1121  106.1419  109.5926 H   0  0  0  0  0  0  0  0  0  0  0  0
  125.4821  103.7549  109.7647 H   0  0  0  0  0  0  0  0  0  0  0  0
  118.6067  106.7556  105.4107 H   0  0  0  0  0  0  0  0  0  0  0  0
  119.5409  107.5382  104.1195 H   0  0  0  0  0  0  0  0  0  0  0  0
  121.3698  106.0237  102.9288 H   0  0  0  0  0  0  0  0  0  0  0  0
  121.5018  104.3558  103.5212 H   0  0  0  0  0  0  0  0  0  0  0  0
  120.4591  108.2104  106.2705 H   0  0  0  0  0  0  0  0  0  0  0  0
  120.6276  106.5414  106.8296 H   0  0  0  0  0  0  0  0  0  0  0  0
  122.2784  105.1465  105.7482 H   0  0  0  0  0  0  0  0  0  0  0  0
  123.3108  102.1580  108.1685 H   0  0  0  0  0  0  0  0  0  0  0  0
  124.4204  101.7712  106.8304 H   0  0  0  0  0  0  0  0  0  0  0  0
  125.0010  101.7000  108.4933 H   0  0  0  0  0  0  0  0  0  0  0  0
  119.7670  103.3936  104.7443 H   0  0  0  0  0  0  0  0  0  0  0  0
  118.4912  104.3803  105.4917 H   0  0  0  0  0  0  0  0  0  0  0  0
  120.1455  104.4296  106.1383 H   0  0  0  0  0  0  0  0  0  0  0  0
  123.7007  106.5931  103.4906 H   0  0  0  0  0  0  0  0  0  0  0  0
  123.9639  104.8989  103.9655 H   0  0  0  0  0  0  0  0  0  0  0  0
  124.5222  108.2989  109.0311 H   0  0  0  0  0  0  0  0  0  0  0  0
  125.4129  109.5926  108.3168 H   0  0  0  0  0  0  0  0  0  0  0  0
  125.1505  107.1659  105.1551 H   0  0  0  0  0  0  0  0  0  0  0  0
  1  2  2  0  0  0  0
  1  3  1  0  0  0  0
  2  4  1  0  0  0  0
  3  5  2  0  0  0  0
  3  6  1  0  0  0  0
  4 11  1  0  0  0  0
  4 14  2  0  0  0  0
  5 14  1  0  0  0  0
  5 17  1  0  0  0  0
  6 16  1  0  0  0  0
  6 19  2  0  0  0  0
  7  9  1  0  0  0  0
  7 15  1  0  0  0  0
  8 10  1  0  0  0  0
  8 15  1  0  0  0  0
  9 18  1  0  0  0  0
 10 13  1  0  0  0  0
 10 18  1  0  0  0  0
 12 15  1  0  0  0  0
 13 17  1  0  0  0  0
  1 20  1  0  0  0  0
  2 21  1  0  0  0  0
  7 22  1  0  0  0  0
  7 23  1  0  0  0  0
  8 24  1  0  0  0  0
  8 25  1  0  0  0  0
  9 26  1  0  0  0  0
  9 27  1  0  0  0  0
 10 28  1  0  0  0  0
 11 29  1  0  0  0  0
 11 30  1  0  0  0  0
 11 31  1  0  0  0  0
 12 32  1  0  0  0  0
 12 33  1  0  0  0  0
 12 34  1  0  0  0  0
 13 35  1  0  0  0  0
 13 36  1  0  0  0  0
 16 37  1  0  0  0  0
 16 38  1  0  0  0  0
 17 39  1  0  0  0  0
M  END
> <FRED Chemgauss4 score>
-1.996036

$$$$
C73602805	P114608525
  -OEChem-05182014473D

 55 58  0     0  0  0  0  0  0999 V2000
  116.9298  106.3528  104.0494 C   0  0  0  0  0  0  0  0  0  0  0  0
  115.6918  105.8808  103.6176 C   0  0  0  0  0  0  0  0  0  0  0  0
  117.0378  107.1153  105.2181 C   0  0  0  0  0  0  0  0  0  0  0  0
  114.5252  106.1544  104.3373 C   0  0  0  0  0  0  0  0  0  0  0  0
  114.2653  108.0676  107.4014 C   0  0  0  0  0  0  0  0  0  0  0  0
  115.8753  107.4039  105.9603 C   0  0  0  0  0  0  0  0  0  0  0  0
  115.6182  108.1272  107.1585 C   0  0  0  0  0  0  0  0  0  0  0  0
  114.6483  106.9178  105.5037 C   0  0  0  0  0  0  0  0  0  0  0  0
  116.4771  110.1555  108.2395 C   0  0  0  0  0  0  0  0  0  0  0  0
  116.5898  108.8316  108.0204 C   0  0  0  0  0  0  0  0  0  0  0  0
  119.8568  110.7920  109.5237 C   0  0  0  0  0  0  0  0  0  0  0  0
  117.4334  110.9528  109.0782 C   0  0  0  0  0  0  0  0  0  0  0  0
  117.6915  108.0270  108.6667 C   0  0  0  0  0  0  0  0  0  0  0  0
  118.3425  108.7757  109.8303 C   0  0  0  0  0  0  0  0  0  0  0  0
  121.3694  109.4176  107.5803 C   0  0  0  0  0  0  0  0  0  0  0  0
  122.2277  107.9330  109.2758 C   0  0  0  0  0  0  0  0  0  0  0  0
  121.4981  108.3014  106.5381 C   0  0  0  0  0  0  0  0  0  0  0  0
  122.3551  106.8167  108.2335 C   0  0  0  0  0  0  0  0  0  0  0  0
  121.0277  109.9254  109.9129 C   0  0  0  0  0  0  0  0  0  0  0  0
  122.7005  106.3105  105.9012 C   0  0  0  0  0  0  0  0  0  0  0  0
  124.0629  105.6527  106.0227 C   0  0  0  0  0  0  0  0  0  0  0  0
  113.6889  107.3359  106.3980 N   0  0  0  0  0  0  0  0  0  0  0  0
  118.6112  110.1671  109.4548 N   0  0  0  0  0  0  0  0  0  0  0  0
  121.1463  108.8597  108.9197 N   0  0  0  0  0  0  0  0  0  0  0  0
  122.5800  107.3755  106.8948 N   0  0  0  0  0  0  0  0  0  0  0  0
  120.0434  111.9880  109.2847 O   0  0  0  0  0  0  0  0  0  0  0  0
  125.0770  106.6159  105.7660 O   0  0  0  0  0  0  0  0  0  0  0  0
  117.8232  106.1253  103.4738 H   0  0  0  0  0  0  0  0  0  0  0  0
  115.6314  105.2901  102.7073 H   0  0  0  0  0  0  0  0  0  0  0  0
  118.0111  107.4747  105.5404 H   0  0  0  0  0  0  0  0  0  0  0  0
  113.5619  105.7856  104.0012 H   0  0  0  0  0  0  0  0  0  0  0  0
  113.6559  108.4782  108.1953 H   0  0  0  0  0  0  0  0  0  0  0  0
  115.6579  110.7064  107.7904 H   0  0  0  0  0  0  0  0  0  0  0  0
  117.7317  111.8412  108.5217 H   0  0  0  0  0  0  0  0  0  0  0  0
  116.9400  111.2699  109.9998 H   0  0  0  0  0  0  0  0  0  0  0  0
  117.3061  107.0705  109.0447 H   0  0  0  0  0  0  0  0  0  0  0  0
  118.4499  107.7944  107.9063 H   0  0  0  0  0  0  0  0  0  0  0  0
  117.6767  108.7961  110.6994 H   0  0  0  0  0  0  0  0  0  0  0  0
  119.2601  108.2654  110.1308 H   0  0  0  0  0  0  0  0  0  0  0  0
  122.2711  110.0450  107.5624 H   0  0  0  0  0  0  0  0  0  0  0  0
  120.5229  110.0559  107.2991 H   0  0  0  0  0  0  0  0  0  0  0  0
  122.0161  107.4733  110.2489 H   0  0  0  0  0  0  0  0  0  0  0  0
  123.1850  108.4641  109.3669 H   0  0  0  0  0  0  0  0  0  0  0  0
  120.5412  107.7696  106.4465 H   0  0  0  0  0  0  0  0  0  0  0  0
  121.7098  108.7613  105.5650 H   0  0  0  0  0  0  0  0  0  0  0  0
  123.2009  106.1775  108.5150 H   0  0  0  0  0  0  0  0  0  0  0  0
  121.4526  106.1906  108.2506 H   0  0  0  0  0  0  0  0  0  0  0  0
  120.8492  109.5031  110.9048 H   0  0  0  0  0  0  0  0  0  0  0  0
  121.9358  110.5330  109.9297 H   0  0  0  0  0  0  0  0  0  0  0  0
  122.5591  106.7499  104.9086 H   0  0  0  0  0  0  0  0  0  0  0  0
  121.9071  105.5801  106.0860 H   0  0  0  0  0  0  0  0  0  0  0  0
  124.1607  104.8536  105.2813 H   0  0  0  0  0  0  0  0  0  0  0  0
  124.2200  105.2337  107.0219 H   0  0  0  0  0  0  0  0  0  0  0  0
  112.7017  107.1320  106.3245 H   0  0  0  0  0  0  0  0  0  0  0  0
  125.9275  106.1564  105.8535 H   0  0  0  0  0  0  0  0  0  0  0  0
  1  2  1  0  0  0  0
  1  3  2  0  0  0  0
  2  4  2  0  0  0  0
  3  6  1  0  0  0  0
  4  8  1  0  0  0  0
  5  7  2  0  0  0  0
  5 22  1  0  0  0  0
  6  7  1  0  0  0  0
  6  8  2  0  0  0  0
  7 10  1  0  0  0  0
  8 22  1  0  0  0  0
  9 10  2  0  0  0  0
  9 12  1  0  0  0  0
 10 13  1  0  0  0  0
 11 19  1  0  0  0  0
 11 23  1  0  0  0  0
 11 26  2  0  0  0  0
 12 23  1  0  0  0  0
 13 14  1  0  0  0  0
 14 23  1  0  0  0  0
 15 17  1  0  0  0  0
 15 24  1  0  0  0  0
 16 18  1  0  0  0  0
 16 24  1  0  0  0  0
 17 25  1  0  0  0  0
 18 25  1  0  0  0  0
 19 24  1  0  0  0  0
 20 21  1  0  0  0  0
 20 25  1  0  0  0  0
 21 27  1  0  0  0  0
  1 28  1  0  0  0  0
  2 29  1  0  0  0  0
  3 30  1  0  0  0  0
  4 31  1  0  0  0  0
  5 32  1  0  0  0  0
  9 33  1  0  0  0  0
 12 34  1  0  0  0  0
 12 35  1  0  0  0  0
 13 36  1  0  0  0  0
 13 37  1  0  0  0  0
 14 38  1  0  0  0  0
 14 39  1  0  0  0  0
 15 40  1  0  0  0  0
 15 41  1  0  0  0  0
 16 42  1  0  0  0  0
 16 43  1  0  0  0  0
 17 44  1  0  0  0  0
 17 45  1  0  0  0  0
 18 46  1  0  0  0  0
 18 47  1  0  0  0  0
 19 48  1  0  0  0  0
 19 49  1  0  0  0  0
 20 50  1  0  0  0  0
 20 51  1  0  0  0  0
 21 52  1  0  0  0  0
 21 53  1  0  0  0  0
 22 54  1  0  0  0  0
 27 55  1  0  0  0  0
M  END
> <FRED Chemgauss4 score>
-1.969118

$$$$
C97715332	P155012524
  -OEChem-05182014473D

 43 44  0     1  0  0  0  0  0999 V2000
  124.8423  106.3993  107.8341 C   0  0  0  0  0  0  0  0  0  0  0  0
  125.8881  105.4959  107.6804 C   0  0  0  0  0  0  0  0  0  0  0  0
  125.7939  107.7166  106.0976 C   0  0  0  0  0  0  0  0  0  0  0  0
  121.5874  106.1642  104.5285 C   0  0  0  0  0  0  0  0  0  0  0  0
  124.7870  107.5333  107.0315 C   0  0  0  0  0  0  0  0  0  0  0  0
  120.8081  105.0797  104.8978 C   0  0  0  0  0  0  0  0  0  0  0  0
  121.0040  105.8330  107.1735 C   0  0  0  0  0  0  0  0  0  0  0  0
  120.5154  104.9181  106.2475 C   0  0  0  0  0  0  0  0  0  0  0  0
  126.8456  105.7703  106.7172 C   0  0  0  0  0  0  0  0  0  0  0  0
  121.7747  106.8837  106.7023 C   0  0  0  0  0  0  0  0  0  0  0  0
  120.3088  104.1278  103.8674 C   0  0  0  0  0  0  0  0  0  0  0  0
  120.7040  105.6813  108.6266 C   0  0  0  0  0  0  0  0  0  0  0  0
  127.9818  104.8222  106.5246 C   0  0  0  0  0  0  0  0  0  0  0  0
  120.4379  102.6627  106.9977 C   0  0  0  0  0  0  0  0  0  0  0  0
  122.3340  107.9096  107.6615 C   0  0  0  0  0  0  0  0  0  0  0  0
  123.6816  108.5187  107.1719 C   0  0  1  0  0  0  0  0  0  0  0  0
  126.8255  106.8613  105.9191 N   0  0  0  0  0  0  0  0  0  0  0  0
  122.0800  107.0736  105.3991 N   0  0  0  0  0  0  0  0  0  0  0  0
  124.2935  109.0605  109.3629 N   0  0  0  0  0  0  0  0  0  0  0  0
  124.0341  109.6281  108.0871 N   0  0  0  0  0  0  0  0  0  0  0  0
  119.7523  103.8662  106.6593 O   0  0  0  0  0  0  0  0  0  0  0  0
  124.0756  106.2119  108.5808 H   0  0  0  0  0  0  0  0  0  0  0  0
  125.9429  104.6074  108.3001 H   0  0  0  0  0  0  0  0  0  0  0  0
  125.8037  108.5830  105.4434 H   0  0  0  0  0  0  0  0  0  0  0  0
  121.8488  106.3421  103.4898 H   0  0  0  0  0  0  0  0  0  0  0  0
  121.0279  103.3122  103.7170 H   0  0  0  0  0  0  0  0  0  0  0  0
  119.3448  103.6896  104.1601 H   0  0  0  0  0  0  0  0  0  0  0  0
  120.1476  104.6293  102.9031 H   0  0  0  0  0  0  0  0  0  0  0  0
  121.4753  105.0727  109.1142 H   0  0  0  0  0  0  0  0  0  0  0  0
  120.6616  106.6566  109.1285 H   0  0  0  0  0  0  0  0  0  0  0  0
  119.7299  105.2004  108.7841 H   0  0  0  0  0  0  0  0  0  0  0  0
  127.7209  104.0610  105.7797 H   0  0  0  0  0  0  0  0  0  0  0  0
  128.8842  105.3467  106.1858 H   0  0  0  0  0  0  0  0  0  0  0  0
  128.2412  104.3167  107.4636 H   0  0  0  0  0  0  0  0  0  0  0  0
  119.7141  101.9055  107.3091 H   0  0  0  0  0  0  0  0  0  0  0  0
  121.1452  102.8605  107.8071 H   0  0  0  0  0  0  0  0  0  0  0  0
  120.9818  102.3047  106.1204 H   0  0  0  0  0  0  0  0  0  0  0  0
  122.4574  107.4191  108.6372 H   0  0  0  0  0  0  0  0  0  0  0  0
  121.5924  108.7023  107.8270 H   0  0  0  0  0  0  0  0  0  0  0  0
  123.4841  109.0043  106.1958 H   0  0  0  0  0  0  0  0  0  0  0  0
  124.2845  108.0430  109.2969 H   0  0  0  0  0  0  0  0  0  0  0  0
  125.2439  109.3137  109.6301 H   0  0  0  0  0  0  0  0  0  0  0  0
  123.2451  110.2588  108.1382 H   0  0  0  0  0  0  0  0  0  0  0  0
  1  2  2  0  0  0  0
  1  5  1  0  0  0  0
  2  9  1  0  0  0  0
  3  5  2  0  0  0  0
  3 17  1  0  0  0  0
  4  6  2  0  0  0  0
  4 18  1  0  0  0  0
  5 16  1  0  0  0  0
  6  8  1  0  0  0  0
  6 11  1  0  0  0  0
  7  8  2  0  0  0  0
  7 10  1  0  0  0  0
  7 12  1  0  0  0  0
  8 21  1  0  0  0  0
  9 13  1  0  0  0  0
  9 17  2  0  0  0  0
 10 15  1  0  0  0  0
 10 18  2  0  0  0  0
 14 21  1  0  0  0  0
 15 16  1  0  0  0  0
 16 20  1  0  0  0  0
 19 20  1  0  0  0  0
  1 22  1  0  0  0  0
  2 23  1  0  0  0  0
  3 24  1  0  0  0  0
  4 25  1  0  0  0  0
 11 26  1  0  0  0  0
 11 27  1  0  0  0  0
 11 28  1  0  0  0  0
 12 29  1  0  0  0  0
 12 30  1  0  0  0  0
 12 31  1  0  0  0  0
 13 32  1  0  0  0  0
 13 33  1  0  0  0  0
 13 34  1  0  0  0  0
 14 35  1  0  0  0  0
 14 36  1  0  0  0  0
 14 37  1  0  0  0  0
 15 38  1  0  0  0  0
 15 39  1  0  0  0  0
 16 40  1  0  0  0  0
 19 41  1  0  0  0  0
 19 42  1  0  0  0  0
 20 43  1  0  0  0  0
M  END
> <FRED Chemgauss4 score>
-1.877298

$$$$
C96333752	P151988969
  -OEChem-05182014473D

 23 23  0     1  0  0  0  0  0999 V2000
  122.4952  107.4396  106.9023 C   0  0  0  0  0  0  0  0  0  0  0  0
  125.3482  106.9703  106.5407 C   0  0  0  0  0  0  0  0  0  0  0  0
  123.0652  107.1573  105.5264 C   0  0  2  0  0  0  0  0  0  0  0  0
  124.6728  106.6556  107.8608 C   0  0  2  0  0  0  0  0  0  0  0  0
  122.6351  105.8040  104.9848 C   0  0  0  0  0  0  0  0  0  0  0  0
  124.6007  105.1627  108.1362 C   0  0  0  0  0  0  0  0  0  0  0  0
  124.5058  107.3308  105.5135 N   0  0  0  0  0  0  0  0  0  0  0  0
  123.3769  107.3023  107.9504 N   0  0  0  0  0  0  0  0  0  0  0  0
  123.8777  103.6231  109.7122 N   0  0  0  0  0  0  0  0  0  0  0  0
  121.3048  107.7101  107.0616 O   0  0  0  0  0  0  0  0  0  0  0  0
  126.5642  106.8450  106.3951 O   0  0  0  0  0  0  0  0  0  0  0  0
  124.4129  104.9640  109.5273 O   0  0  0  0  0  0  0  0  0  0  0  0
  122.6438  107.9507  104.8294 H   0  0  0  0  0  0  0  0  0  0  0  0
  125.3165  107.1199  108.6750 H   0  0  0  0  0  0  0  0  0  0  0  0
  123.0168  105.0050  105.6225 H   0  0  0  0  0  0  0  0  0  0  0  0
  123.0230  105.6625  103.9748 H   0  0  0  0  0  0  0  0  0  0  0  0
  121.5462  105.7396  104.9551 H   0  0  0  0  0  0  0  0  0  0  0  0
  125.5290  104.6768  107.8286 H   0  0  0  0  0  0  0  0  0  0  0  0
  123.7619  104.7190  107.5961 H   0  0  0  0  0  0  0  0  0  0  0  0
  124.9306  107.7578  104.6677 H   0  0  0  0  0  0  0  0  0  0  0  0
  123.0957  107.6890  108.8721 H   0  0  0  0  0  0  0  0  0  0  0  0
  124.5816  103.0720  109.2233 H   0  0  0  0  0  0  0  0  0  0  0  0
  123.0628  103.6613  109.1019 H   0  0  0  0  0  0  0  0  0  0  0  0
  1  3  1  0  0  0  0
  1  8  1  0  0  0  0
  1 10  2  0  0  0  0
  2  4  1  0  0  0  0
  2  7  1  0  0  0  0
  2 11  2  0  0  0  0
  3  5  1  0  0  0  0
  3  7  1  0  0  0  0
  4  6  1  0  0  0  0
  4  8  1  0  0  0  0
  6 12  1  0  0  0  0
  9 12  1  0  0  0  0
  3 13  1  0  0  0  0
  4 14  1  0  0  0  0
  5 15  1  0  0  0  0
  5 16  1  0  0  0  0
  5 17  1  0  0  0  0
  6 18  1  0  0  0  0
  6 19  1  0  0  0  0
  7 20  1  0  0  0  0
  8 21  1  0  0  0  0
  9 22  1  0  0  0  0
  9 23  1  0  0  0  0
M  END
> <FRED Chemgauss4 score>
-1.873136

$$$$
C97776773	P155157615
  -OEChem-05182014473D

 42 43  0     1  0  0  0  0  0999 V2000
  122.0398  106.1391  107.0949 C   0  0  0  0  0  0  0  0  0  0  0  0
  122.8117  106.3361  104.8539 C   0  0  0  0  0  0  0  0  0  0  0  0
  120.7805  107.2528  105.4126 C   0  0  0  0  0  0  0  0  0  0  0  0
  123.0213  105.8790  106.1450 C   0  0  0  0  0  0  0  0  0  0  0  0
  120.8949  106.8385  106.7298 C   0  0  0  0  0  0  0  0  0  0  0  0
  126.4228  107.2397  108.9312 C   0  0  0  0  0  0  0  0  0  0  0  0
  127.7324  106.5331  108.5993 C   0  0  0  0  0  0  0  0  0  0  0  0
  125.2327  106.4175  108.4460 C   0  0  0  0  0  0  0  0  0  0  0  0
  127.7735  106.1368  107.1297 C   0  0  0  0  0  0  0  0  0  0  0  0
  125.4059  106.0340  106.9746 C   0  0  2  0  0  0  0  0  0  0  0  0
  118.6303  108.8403  108.6906 C   0  0  0  0  0  0  0  0  0  0  0  0
  120.8502  108.0944  109.6219 C   0  0  0  0  0  0  0  0  0  0  0  0
  124.2806  105.1195  106.5106 C   0  0  1  0  0  0  0  0  0  0  0  0
  120.0260  108.3304  108.3654 C   0  0  0  0  0  0  0  0  0  0  0  0
  121.7126  107.0187  104.4618 N   0  0  0  0  0  0  0  0  0  0  0  0
  125.0534  103.1288  107.4623 N   0  0  0  0  0  0  0  0  0  0  0  0
  124.0117  104.1085  107.5098 N   0  0  0  0  0  0  0  0  0  0  0  0
  126.6421  105.3359  106.7887 O   0  0  0  0  0  0  0  0  0  0  0  0
  119.9212  107.1067  107.6347 O   0  0  0  0  0  0  0  0  0  0  0  0
  122.1644  105.7981  108.1194 H   0  0  0  0  0  0  0  0  0  0  0  0
  123.5428  106.1630  104.0702 H   0  0  0  0  0  0  0  0  0  0  0  0
  119.9089  107.8031  105.0722 H   0  0  0  0  0  0  0  0  0  0  0  0
  126.3490  107.4090  110.0110 H   0  0  0  0  0  0  0  0  0  0  0  0
  126.4068  108.2244  108.4482 H   0  0  0  0  0  0  0  0  0  0  0  0
  128.5846  107.1750  108.8454 H   0  0  0  0  0  0  0  0  0  0  0  0
  127.8081  105.6295  109.2167 H   0  0  0  0  0  0  0  0  0  0  0  0
  125.1680  105.5093  109.0589 H   0  0  0  0  0  0  0  0  0  0  0  0
  124.3038  106.9800  108.5918 H   0  0  0  0  0  0  0  0  0  0  0  0
  127.8051  107.0188  106.4794 H   0  0  0  0  0  0  0  0  0  0  0  0
  128.6728  105.5460  106.9286 H   0  0  0  0  0  0  0  0  0  0  0  0
  125.4104  106.9327  106.3448 H   0  0  0  0  0  0  0  0  0  0  0  0
  118.0907  108.1382  109.3334 H   0  0  0  0  0  0  0  0  0  0  0  0
  118.6874  109.8083  109.1999 H   0  0  0  0  0  0  0  0  0  0  0  0
  118.0459  108.9998  107.7776 H   0  0  0  0  0  0  0  0  0  0  0  0
  120.3635  107.3745  110.2870 H   0  0  0  0  0  0  0  0  0  0  0  0
  120.9919  109.0339  110.1667 H   0  0  0  0  0  0  0  0  0  0  0  0
  121.8498  107.7212  109.3732 H   0  0  0  0  0  0  0  0  0  0  0  0
  124.6330  104.5684  105.6281 H   0  0  0  0  0  0  0  0  0  0  0  0
  120.5386  109.0534  107.7226 H   0  0  0  0  0  0  0  0  0  0  0  0
  125.7483  103.4081  106.7704 H   0  0  0  0  0  0  0  0  0  0  0  0
  125.5412  103.1156  108.3571 H   0  0  0  0  0  0  0  0  0  0  0  0
  123.1196  103.6493  107.3125 H   0  0  0  0  0  0  0  0  0  0  0  0
  1  4  2  0  0  0  0
  1  5  1  0  0  0  0
  2  4  1  0  0  0  0
  2 15  2  0  0  0  0
  3  5  2  0  0  0  0
  3 15  1  0  0  0  0
  4 13  1  0  0  0  0
  5 19  1  0  0  0  0
  6  7  1  0  0  0  0
  6  8  1  0  0  0  0
  7  9  1  0  0  0  0
  8 10  1  0  0  0  0
  9 18  1  0  0  0  0
 10 13  1  0  0  0  0
 10 18  1  0  0  0  0
 11 14  1  0  0  0  0
 12 14  1  0  0  0  0
 13 17  1  0  0  0  0
 14 19  1  0  0  0  0
 16 17  1  0  0  0  0
  1 20  1  0  0  0  0
  2 21  1  0  0  0  0
  3 22  1  0  0  0  0
  6 23  1  0  0  0  0
  6 24  1  0  0  0  0
  7 25  1  0  0  0  0
  7 26  1  0  0  0  0
  8 27  1  0  0  0  0
  8 28  1  0  0  0  0
  9 29  1  0  0  0  0
  9 30  1  0  0  0  0
 10 31  1  0  0  0  0
 11 32  1  0  0  0  0
 11 33  1  0  0  0  0
 11 34  1  0  0  0  0
 12 35  1  0  0  0  0
 12 36  1  0  0  0  0
 12 37  1  0  0  0  0
 13 38  1  0  0  0  0
 14 39  1  0  0  0  0
 16 40  1  0  0  0  0
 16 41  1  0  0  0  0
 17 42  1  0  0  0  0
M  END
> <FRED Chemgauss4 score>
-1.766306

$$$$
C49474209	P89064106
  -OEChem-05182014473D

 19 19  0     0  0  0  0  0  0999 V2000
  122.6791  106.1919  105.8844 C   0  0  0  0  0  0  0  0  0  0  0  0
  119.9952  105.7809  106.0411 C   0  0  0  0  0  0  0  0  0  0  0  0
  124.3200  108.6697  105.3741 C   0  0  0  0  0  0  0  0  0  0  0  0
  124.1748  106.3718  105.8452 C   0  0  0  0  0  0  0  0  0  0  0  0
  121.9539  106.9080  105.0715 N   0  0  0  0  0  0  0  0  0  0  0  0
  118.7011  105.6246  106.0768 N   0  0  0  0  0  0  0  0  0  0  0  0
  122.1845  105.2702  106.7803 N   0  0  0  0  0  0  0  0  0  0  0  0
  120.6122  106.6765  105.1788 N   0  0  0  0  0  0  0  0  0  0  0  0
  120.8578  105.0733  106.8532 N   0  0  0  0  0  0  0  0  0  0  0  0
  124.5063  107.3475  104.8784 O   0  0  0  0  0  0  0  0  0  0  0  0
  124.5865  109.3915  104.5982 H   0  0  0  0  0  0  0  0  0  0  0  0
  124.9459  108.8202  106.2573 H   0  0  0  0  0  0  0  0  0  0  0  0
  123.2703  108.8024  105.6470 H   0  0  0  0  0  0  0  0  0  0  0  0
  124.6510  105.4292  105.5901 H   0  0  0  0  0  0  0  0  0  0  0  0
  124.5181  106.7041  106.8208 H   0  0  0  0  0  0  0  0  0  0  0  0
  118.2800  106.2516  105.3907 H   0  0  0  0  0  0  0  0  0  0  0  0
  122.7871  104.7312  107.3934 H   0  0  0  0  0  0  0  0  0  0  0  0
  120.0232  107.2237  104.5569 H   0  0  0  0  0  0  0  0  0  0  0  0
  120.5136  104.3913  107.5211 H   0  0  0  0  0  0  0  0  0  0  0  0
  1  4  1  0  0  0  0
  1  5  2  0  0  0  0
  1  7  1  0  0  0  0
  2  6  2  0  0  0  0
  2  8  1  0  0  0  0
  2  9  1  0  0  0  0
  3 10  1  0  0  0  0
  4 10  1  0  0  0  0
  5  8  1  0  0  0  0
  7  9  1  0  0  0  0
  3 11  1  0  0  0  0
  3 12  1  0  0  0  0
  3 13  1  0  0  0  0
  4 14  1  0  0  0  0
  4 15  1  0  0  0  0
  6 16  1  0  0  0  0
  7 17  1  0  0  0  0
  8 18  1  0  0  0  0
  9 19  1  0  0  0  0
M  END
> <FRED Chemgauss4 score>
-1.629316

$$$$
C01737540	P23999360
  -OEChem-05182014473D

 11 11  0     0  0  0  0  0  0999 V2000
  122.8799  104.5534  106.3261 C   0  0  0  0  0  0  0  0  0  0  0  0
  121.7201  104.7527  105.6222 C   0  0  0  0  0  0  0  0  0  0  0  0
  123.8226  106.2663  105.1961 C   0  0  0  0  0  0  0  0  0  0  0  0
  123.9682  105.3126  106.1279 N   0  0  0  0  0  0  0  0  0  0  0  0
  121.6331  105.7267  104.6983 N   0  0  0  0  0  0  0  0  0  0  0  0
  122.7103  106.5079  104.4747 N   0  0  0  0  0  0  0  0  0  0  0  0
  124.9371  107.0948  104.9467 N   0  0  0  0  0  0  0  0  0  0  0  0
  122.9699  103.7748  107.0734 H   0  0  0  0  0  0  0  0  0  0  0  0
  120.8359  104.1480  105.7724 H   0  0  0  0  0  0  0  0  0  0  0  0
  125.7646  106.9767  105.4950 H   0  0  0  0  0  0  0  0  0  0  0  0
  124.8491  107.8459  104.2928 H   0  0  0  0  0  0  0  0  0  0  0  0
  1  2  1  0  0  0  0
  1  4  2  0  0  0  0
  2  5  2  0  0  0  0
  3  4  1  0  0  0  0
  3  6  2  0  0  0  0
  3  7  1  0  0  0  0
  5  6  1  0  0  0  0
  1  8  1  0  0  0  0
  2  9  1  0  0  0  0
  7 10  1  0  0  0  0
  7 11  1  0  0  0  0
M  END
> <FRED Chemgauss4 score>
-1.544438

$$$$
C94090296	P147458364
  -OEChem-05182014473D

 43 45  0     1  0  0  0  0  0999 V2000
  119.8129  107.0632  104.1063 C   0  0  0  0  0  0  0  0  0  0  0  0
  118.6132  107.2455  103.4143 C   0  0  0  0  0  0  0  0  0  0  0  0
  117.4180  105.8856  105.0370 C   0  0  0  0  0  0  0  0  0  0  0  0
  119.8051  106.2781  105.2491 C   0  0  0  0  0  0  0  0  0  0  0  0
  118.6145  105.6995  105.7097 C   0  0  0  0  0  0  0  0  0  0  0  0
  117.4245  106.6601  103.8757 C   0  0  0  0  0  0  0  0  0  0  0  0
  118.8382  104.9533  106.9873 C   0  0  0  0  0  0  0  0  0  0  0  0
  120.3615  104.7666  106.9587 C   0  0  0  0  0  0  0  0  0  0  0  0
  125.9698  106.5023  107.7787 C   0  0  0  0  0  0  0  0  0  0  0  0
  126.0680  107.7838  106.9615 C   0  0  0  0  0  0  0  0  0  0  0  0
  125.7594  105.3029  106.8610 C   0  0  0  0  0  0  0  0  0  0  0  0
  124.8862  107.9120  106.0117 C   0  0  0  0  0  0  0  0  0  0  0  0
  120.9370  105.9683  106.1855 C   0  0  1  0  0  0  0  0  0  0  0  0
  124.6129  105.5249  105.8708 C   0  0  1  0  0  0  0  0  0  0  0  0
  122.0065  104.4650  104.6768 C   0  0  0  0  0  0  0  0  0  0  0  0
  123.2317  105.4139  106.5129 C   0  0  0  0  0  0  0  0  0  0  0  0
  116.2255  106.8532  103.1556 N   0  0  0  0  0  0  0  0  0  0  0  0
  122.1723  105.6427  105.5294 N   0  0  2  0  0  0  0  0  0  0  0  0
  124.7676  106.7647  105.1724 O   0  0  0  0  0  0  0  0  0  0  0  0
  120.7283  107.5267  103.7512 H   0  0  0  0  0  0  0  0  0  0  0  0
  118.6119  107.8452  102.5067 H   0  0  0  0  0  0  0  0  0  0  0  0
  116.5012  105.4374  105.4082 H   0  0  0  0  0  0  0  0  0  0  0  0
  118.5230  105.5247  107.8653 H   0  0  0  0  0  0  0  0  0  0  0  0
  118.3169  103.9906  106.9593 H   0  0  0  0  0  0  0  0  0  0  0  0
  120.7423  104.7955  107.9897 H   0  0  0  0  0  0  0  0  0  0  0  0
  120.6545  103.7959  106.5447 H   0  0  0  0  0  0  0  0  0  0  0  0
  126.8928  106.3640  108.3538 H   0  0  0  0  0  0  0  0  0  0  0  0
  125.1478  106.5755  108.4983 H   0  0  0  0  0  0  0  0  0  0  0  0
  126.0690  108.6387  107.6503 H   0  0  0  0  0  0  0  0  0  0  0  0
  127.0107  107.8089  106.4035 H   0  0  0  0  0  0  0  0  0  0  0  0
  126.6944  105.0751  106.3222 H   0  0  0  0  0  0  0  0  0  0  0  0
  125.5372  104.4226  107.4897 H   0  0  0  0  0  0  0  0  0  0  0  0
  123.9556  108.0025  106.5854 H   0  0  0  0  0  0  0  0  0  0  0  0
  124.9719  108.8125  105.3875 H   0  0  0  0  0  0  0  0  0  0  0  0
  121.0954  106.8125  106.8926 H   0  0  0  0  0  0  0  0  0  0  0  0
  124.6619  104.7006  105.0869 H   0  0  0  0  0  0  0  0  0  0  0  0
  122.9505  104.2239  104.1814 H   0  0  0  0  0  0  0  0  0  0  0  0
  121.2470  104.6549  103.9135 H   0  0  0  0  0  0  0  0  0  0  0  0
  121.6939  103.6055  105.2759 H   0  0  0  0  0  0  0  0  0  0  0  0
  123.1168  106.1582  107.3066 H   0  0  0  0  0  0  0  0  0  0  0  0
  123.0810  104.4178  106.9393 H   0  0  0  0  0  0  0  0  0  0  0  0
  116.2319  107.4449  102.3506 H   0  0  0  0  0  0  0  0  0  0  0  0
  115.3752  106.4723  103.5165 H   0  0  0  0  0  0  0  0  0  0  0  0
  1  2  1  0  0  0  0
  1  4  2  0  0  0  0
  2  6  2  0  0  0  0
  3  5  2  0  0  0  0
  3  6  1  0  0  0  0
  4  5  1  0  0  0  0
  4 13  1  0  0  0  0
  5  7  1  0  0  0  0
  6 17  1  0  0  0  0
  7  8  1  0  0  0  0
  8 13  1  0  0  0  0
  9 10  1  0  0  0  0
  9 11  1  0  0  0  0
 10 12  1  0  0  0  0
 11 14  1  0  0  0  0
 12 19  1  0  0  0  0
 13 18  1  0  0  0  0
 14 16  1  0  0  0  0
 14 19  1  0  0  0  0
 15 18  1  0  0  0  0
 16 18  1  0  0  0  0
  1 20  1  0  0  0  0
  2 21  1  0  0  0  0
  3 22  1  0  0  0  0
  7 23  1  0  0  0  0
  7 24  1  0  0  0  0
  8 25  1  0  0  0  0
  8 26  1  0  0  0  0
  9 27  1  0  0  0  0
  9 28  1  0  0  0  0
 10 29  1  0  0  0  0
 10 30  1  0  0  0  0
 11 31  1  0  0  0  0
 11 32  1  0  0  0  0
 12 33  1  0  0  0  0
 12 34  1  0  0  0  0
 13 35  1  0  0  0  0
 14 36  1  0  0  0  0
 15 37  1  0  0  0  0
 15 38  1  0  0  0  0
 15 39  1  0  0  0  0
 16 40  1  0  0  0  0
 16 41  1  0  0  0  0
 17 42  1  0  0  0  0
 17 43  1  0  0  0  0
M  END
> <FRED Chemgauss4 score>
-1.508601

$$$$
C36736142	P54592016
  -OEChem-05182014473D

 30 31  0     0  0  0  0  0  0999 V2000
  121.6823  107.9437  109.3934 C   0  0  0  0  0  0  0  0  0  0  0  0
  120.5323  108.7324  109.4251 C   0  0  0  0  0  0  0  0  0  0  0  0
  119.2193  106.8481  108.6750 C   0  0  0  0  0  0  0  0  0  0  0  0
  121.6009  106.6072  109.0024 C   0  0  0  0  0  0  0  0  0  0  0  0
  123.7705  105.9973  106.6660 C   0  0  0  0  0  0  0  0  0  0  0  0
  119.3008  108.1846  109.0660 C   0  0  0  0  0  0  0  0  0  0  0  0
  120.3694  106.0594  108.6432 C   0  0  0  0  0  0  0  0  0  0  0  0
  125.1488  106.0926  106.3961 C   0  0  0  0  0  0  0  0  0  0  0  0
  123.1782  106.7865  105.7106 C   0  0  0  0  0  0  0  0  0  0  0  0
  126.2597  105.4439  107.1162 C   0  0  0  0  0  0  0  0  0  0  0  0
  121.7699  107.1186  105.4335 C   0  0  0  0  0  0  0  0  0  0  0  0
  122.8565  105.7966  108.9790 C   0  0  0  0  0  0  0  0  0  0  0  0
  125.4164  106.8800  105.3509 N   0  0  0  0  0  0  0  0  0  0  0  0
  124.1980  107.2867  104.9557 N   0  0  0  0  0  0  0  0  0  0  0  0
  123.1419  105.2724  107.6690 N   0  0  0  0  0  0  0  0  0  0  0  0
  117.8818  109.1575  109.1070 Cl  0  0  0  0  0  0  0  0  0  0  0  0
  120.2300  104.4102  108.1527 Cl  0  0  0  0  0  0  0  0  0  0  0  0
  122.6373  108.3808  109.6734 H   0  0  0  0  0  0  0  0  0  0  0  0
  120.6106  109.7721  109.7325 H   0  0  0  0  0  0  0  0  0  0  0  0
  118.2581  106.4226  108.3944 H   0  0  0  0  0  0  0  0  0  0  0  0
  126.4936  104.4568  106.6834 H   0  0  0  0  0  0  0  0  0  0  0  0
  127.1832  106.0483  107.0870 H   0  0  0  0  0  0  0  0  0  0  0  0
  126.0299  105.2933  108.1857 H   0  0  0  0  0  0  0  0  0  0  0  0
  121.4552  108.0201  105.9864 H   0  0  0  0  0  0  0  0  0  0  0  0
  121.5895  107.3066  104.3602 H   0  0  0  0  0  0  0  0  0  0  0  0
  121.0852  106.2991  105.7160 H   0  0  0  0  0  0  0  0  0  0  0  0
  123.7192  106.3998  109.2908 H   0  0  0  0  0  0  0  0  0  0  0  0
  122.7955  104.9453  109.6689 H   0  0  0  0  0  0  0  0  0  0  0  0
  124.1371  107.9093  104.1595 H   0  0  0  0  0  0  0  0  0  0  0  0
  122.8696  104.3155  107.4634 H   0  0  0  0  0  0  0  0  0  0  0  0
  1  2  2  0  0  0  0
  1  4  1  0  0  0  0
  2  6  1  0  0  0  0
  3  6  2  0  0  0  0
  3  7  1  0  0  0  0
  4  7  2  0  0  0  0
  4 12  1  0  0  0  0
  5  8  1  0  0  0  0
  5  9  2  0  0  0  0
  5 15  1  0  0  0  0
  6 16  1  0  0  0  0
  7 17  1  0  0  0  0
  8 10  1  0  0  0  0
  8 13  2  0  0  0  0
  9 11  1  0  0  0  0
  9 14  1  0  0  0  0
 12 15  1  0  0  0  0
 13 14  1  0  0  0  0
  1 18  1  0  0  0  0
  2 19  1  0  0  0  0
  3 20  1  0  0  0  0
 10 21  1  0  0  0  0
 10 22  1  0  0  0  0
 10 23  1  0  0  0  0
 11 24  1  0  0  0  0
 11 25  1  0  0  0  0
 11 26  1  0  0  0  0
 12 27  1  0  0  0  0
 12 28  1  0  0  0  0
 14 29  1  0  0  0  0
 15 30  1  0  0  0  0
M  END
> <FRED Chemgauss4 score>
-1.497407

$$$$
C00386377	P06593472
  -OEChem-05182014473D

 40 41  0     1  0  0  0  0  0999 V2000
  118.7277  107.0578  107.5862 C   0  0  0  0  0  0  0  0  0  0  0  0
  117.4447  106.8876  106.9844 C   0  0  0  0  0  0  0  0  0  0  0  0
  117.5464  106.7461  105.6138 C   0  0  0  0  0  0  0  0  0  0  0  0
  119.7452  107.0329  106.6569 C   0  0  0  0  0  0  0  0  0  0  0  0
  118.9728  107.2417  108.9950 C   0  0  0  0  0  0  0  0  0  0  0  0
  124.7346  107.4311  105.8487 C   0  0  0  0  0  0  0  0  0  0  0  0
  122.1851  107.2110  105.8772 C   0  0  0  0  0  0  0  0  0  0  0  0
  116.1250  106.8819  107.6897 C   0  0  0  0  0  0  0  0  0  0  0  0
  116.3953  106.5232  104.6823 C   0  0  0  0  0  0  0  0  0  0  0  0
  115.0080  106.3015  106.8074 C   0  0  0  0  0  0  0  0  0  0  0  0
  115.0582  106.8738  105.3738 C   0  0  2  0  0  0  0  0  0  0  0  0
  113.8797  106.3661  104.5457 C   0  0  0  0  0  0  0  0  0  0  0  0
  125.8877  106.3860  107.8381 C   0  0  0  0  0  0  0  0  0  0  0  0
  125.8250  107.5746  106.8961 C   0  0  0  0  0  0  0  0  0  0  0  0
  119.1799  106.1058  109.7827 N   0  0  0  0  0  0  0  0  0  0  0  0
  121.1012  107.1567  106.7972 N   0  0  0  0  0  0  0  0  0  0  0  0
  123.4648  107.3470  106.4518 N   0  0  0  0  0  0  0  0  0  0  0  0
  118.9872  108.3758  109.5208 O   0  0  0  0  0  0  0  0  0  0  0  0
  124.9630  107.3987  104.6434 O   0  0  0  0  0  0  0  0  0  0  0  0
  122.1079  107.1674  104.2012 S   0  0  0  0  0  0  0  0  0  0  0  0
  119.1568  106.8075  105.0646 S   0  0  0  0  0  0  0  0  0  0  0  0
  116.1877  106.3033  108.6183 H   0  0  0  0  0  0  0  0  0  0  0  0
  115.8706  107.9137  107.9623 H   0  0  0  0  0  0  0  0  0  0  0  0
  116.5070  107.1284  103.7747 H   0  0  0  0  0  0  0  0  0  0  0  0
  116.3939  105.4689  104.3766 H   0  0  0  0  0  0  0  0  0  0  0  0
  115.1073  105.2085  106.7667 H   0  0  0  0  0  0  0  0  0  0  0  0
  114.0380  106.5158  107.2713 H   0  0  0  0  0  0  0  0  0  0  0  0
  114.9780  107.9680  105.4424 H   0  0  0  0  0  0  0  0  0  0  0  0
  113.9297  105.2820  104.4584 H   0  0  0  0  0  0  0  0  0  0  0  0
  113.9116  106.8058  103.5501 H   0  0  0  0  0  0  0  0  0  0  0  0
  112.9434  106.6424  105.0279 H   0  0  0  0  0  0  0  0  0  0  0  0
  126.0749  105.4578  107.2879 H   0  0  0  0  0  0  0  0  0  0  0  0
  124.9464  106.2676  108.3851 H   0  0  0  0  0  0  0  0  0  0  0  0
  126.6926  106.5195  108.5674 H   0  0  0  0  0  0  0  0  0  0  0  0
  125.6371  108.4887  107.4707 H   0  0  0  0  0  0  0  0  0  0  0  0
  126.7867  107.6872  106.3829 H   0  0  0  0  0  0  0  0  0  0  0  0
  119.1523  105.1913  109.3450 H   0  0  0  0  0  0  0  0  0  0  0  0
  119.3572  106.1695  110.7800 H   0  0  0  0  0  0  0  0  0  0  0  0
  121.4430  107.2944  107.7668 H   0  0  0  0  0  0  0  0  0  0  0  0
  123.4724  107.3918  107.4684 H   0  0  0  0  0  0  0  0  0  0  0  0
  1  2  1  0  0  0  0
  1  4  2  0  0  0  0
  1  5  1  0  0  0  0
  2  3  2  0  0  0  0
  2  8  1  0  0  0  0
  3  9  1  0  0  0  0
  3 21  1  0  0  0  0
  4 16  1  0  0  0  0
  4 21  1  0  0  0  0
  5 15  1  0  0  0  0
  5 18  2  0  0  0  0
  6 14  1  0  0  0  0
  6 17  1  0  0  0  0
  6 19  2  0  0  0  0
  7 16  1  0  0  0  0
  7 17  1  0  0  0  0
  7 20  2  0  0  0  0
  8 10  1  0  0  0  0
  9 11  1  0  0  0  0
 10 11  1  0  0  0  0
 11 12  1  0  0  0  0
 13 14  1  0  0  0  0
  8 22  1  0  0  0  0
  8 23  1  0  0  0  0
  9 24  1  0  0  0  0
  9 25  1  0  0  0  0
 10 26  1  0  0  0  0
 10 27  1  0  0  0  0
 11 28  1  0  0  0  0
 12 29  1  0  0  0  0
 12 30  1  0  0  0  0
 12 31  1  0  0  0  0
 13 32  1  0  0  0  0
 13 33  1  0  0  0  0
 13 34  1  0  0  0  0
 14 35  1  0  0  0  0
 14 36  1  0  0  0  0
 15 37  1  0  0  0  0
 15 38  1  0  0  0  0
 16 39  1  0  0  0  0
 17 40  1  0  0  0  0
M  END
> <FRED Chemgauss4 score>
-1.454360

$$$$
C36326126	P86577449
  -OEChem-05182014473D

 51 52  0     1  0  0  0  0  0999 V2000
  124.7213  104.5669  106.4280 C   0  0  0  0  0  0  0  0  0  0  0  0
  123.6243  104.6118  105.3633 C   0  0  0  0  0  0  0  0  0  0  0  0
  123.5092  106.3677  107.7402 C   0  0  0  0  0  0  0  0  0  0  0  0
  121.0836  107.9520  105.3646 C   0  0  0  0  0  0  0  0  0  0  0  0
  119.7268  107.2575  105.2914 C   0  0  0  0  0  0  0  0  0  0  0  0
  119.5396  107.2524  107.6342 C   0  0  0  0  0  0  0  0  0  0  0  0
  124.1950  104.9941  107.8044 C   0  0  2  0  0  0  0  0  0  0  0  0
  122.4049  106.3948  106.6722 C   0  0  2  0  0  0  0  0  0  0  0  0
  122.9223  105.9763  105.2783 C   0  0  1  0  0  0  0  0  0  0  0  0
  120.9013  107.9425  107.7982 C   0  0  2  0  0  0  0  0  0  0  0  0
  119.8942  109.7201  109.2430 C   0  0  0  0  0  0  0  0  0  0  0  0
  125.9635  103.6071  108.9156 C   0  0  0  0  0  0  0  0  0  0  0  0
  124.7663  105.3869  110.2138 C   0  0  0  0  0  0  0  0  0  0  0  0
  126.3957  106.0264  108.4187 C   0  0  0  0  0  0  0  0  0  0  0  0
  120.7249  109.4493  108.0339 C   0  0  0  0  0  0  0  0  0  0  0  0
  125.3246  105.0036  108.8331 C   0  0  0  0  0  0  0  0  0  0  0  0
  121.7856  107.7201  106.6365 N   0  0  2  0  0  0  0  0  0  0  0  0
  123.8157  106.9824  104.6928 N   0  0  0  0  0  0  0  0  0  0  0  0
  118.9176  107.6301  106.4059 O   0  0  0  0  0  0  0  0  0  0  0  0
  125.1199  103.5466  106.4859 H   0  0  0  0  0  0  0  0  0  0  0  0
  125.5582  105.2094  106.1281 H   0  0  0  0  0  0  0  0  0  0  0  0
  124.0491  104.3406  104.3887 H   0  0  0  0  0  0  0  0  0  0  0  0
  122.8752  103.8436  105.5955 H   0  0  0  0  0  0  0  0  0  0  0  0
  123.0772  106.6004  108.7225 H   0  0  0  0  0  0  0  0  0  0  0  0
  124.2564  107.1468  107.5385 H   0  0  0  0  0  0  0  0  0  0  0  0
  121.7130  107.6049  104.5188 H   0  0  0  0  0  0  0  0  0  0  0  0
  120.9265  109.0379  105.2104 H   0  0  0  0  0  0  0  0  0  0  0  0
  119.2001  107.4928  104.3573 H   0  0  0  0  0  0  0  0  0  0  0  0
  119.8627  106.1708  105.3272 H   0  0  0  0  0  0  0  0  0  0  0  0
  119.6677  106.1638  107.6082 H   0  0  0  0  0  0  0  0  0  0  0  0
  118.8614  107.4799  108.4681 H   0  0  0  0  0  0  0  0  0  0  0  0
  123.4507  104.2552  108.1311 H   0  0  0  0  0  0  0  0  0  0  0  0
  121.6272  105.6782  106.9716 H   0  0  0  0  0  0  0  0  0  0  0  0
  122.0649  105.8778  104.6003 H   0  0  0  0  0  0  0  0  0  0  0  0
  121.4046  107.5239  108.6981 H   0  0  0  0  0  0  0  0  0  0  0  0
  118.9072  109.2595  109.1178 H   0  0  0  0  0  0  0  0  0  0  0  0
  119.7508  110.7962  109.3876 H   0  0  0  0  0  0  0  0  0  0  0  0
  120.3565  109.2943  110.1398 H   0  0  0  0  0  0  0  0  0  0  0  0
  126.7790  103.5823  109.6470 H   0  0  0  0  0  0  0  0  0  0  0  0
  126.3758  103.3048  107.9463 H   0  0  0  0  0  0  0  0  0  0  0  0
  125.2256  102.8537  109.2135 H   0  0  0  0  0  0  0  0  0  0  0  0
  125.5598  105.4003  110.9694 H   0  0  0  0  0  0  0  0  0  0  0  0
  124.3106  106.3832  110.1913 H   0  0  0  0  0  0  0  0  0  0  0  0
  124.0005  104.6776  110.5472 H   0  0  0  0  0  0  0  0  0  0  0  0
  127.2177  106.0510  109.1430 H   0  0  0  0  0  0  0  0  0  0  0  0
  125.9793  107.0378  108.3526 H   0  0  0  0  0  0  0  0  0  0  0  0
  126.8211  105.7762  107.4402 H   0  0  0  0  0  0  0  0  0  0  0  0
  121.7097  109.9052  108.1515 H   0  0  0  0  0  0  0  0  0  0  0  0
  120.2531  109.8906  107.1541 H   0  0  0  0  0  0  0  0  0  0  0  0
  123.6128  107.9391  104.8687 H   0  0  0  0  0  0  0  0  0  0  0  0
  124.4517  106.6827  103.9904 H   0  0  0  0  0  0  0  0  0  0  0  0
  1  2  1  0  0  0  0
  1  7  1  0  0  0  0
  2  9  1  0  0  0  0
  3  7  1  0  0  0  0
  3  8  1  0  0  0  0
  4  5  1  0  0  0  0
  4 17  1  0  0  0  0
  5 19  1  0  0  0  0
  6 10  1  0  0  0  0
  6 19  1  0  0  0  0
  7 16  1  0  0  0  0
  8  9  1  0  0  0  0
  8 17  1  0  0  0  0
  9 18  1  0  0  0  0
 10 15  1  0  0  0  0
 10 17  1  0  0  0  0
 11 15  1  0  0  0  0
 12 16  1  0  0  0  0
 13 16  1  0  0  0  0
 14 16  1  0  0  0  0
  1 20  1  0  0  0  0
  1 21  1  0  0  0  0
  2 22  1  0  0  0  0
  2 23  1  0  0  0  0
  3 24  1  0  0  0  0
  3 25  1  0  0  0  0
  4 26  1  0  0  0  0
  4 27  1  0  0  0  0
  5 28  1  0  0  0  0
  5 29  1  0  0  0  0
  6 30  1  0  0  0  0
  6 31  1  0  0  0  0
  7 32  1  0  0  0  0
  8 33  1  0  0  0  0
  9 34  1  0  0  0  0
 10 35  1  0  0  0  0
 11 36  1  0  0  0  0
 11 37  1  0  0  0  0
 11 38  1  0  0  0  0
 12 39  1  0  0  0  0
 12 40  1  0  0  0  0
 12 41  1  0  0  0  0
 13 42  1  0  0  0  0
 13 43  1  0  0  0  0
 13 44  1  0  0  0  0
 14 45  1  0  0  0  0
 14 46  1  0  0  0  0
 14 47  1  0  0  0  0
 15 48  1  0  0  0  0
 15 49  1  0  0  0  0
 18 50  1  0  0  0  0
 18 51  1  0  0  0  0
M  END
> <FRED Chemgauss4 score>
-1.365852

$$$$
C97361815	P154194864
  -OEChem-05182014473D

 36 37  0     1  0  0  0  0  0999 V2000
  122.0729  108.8609  109.8897 C   0  0  0  0  0  0  0  0  0  0  0  0
  120.2528  109.3396  107.8304 C   0  0  0  0  0  0  0  0  0  0  0  0
  121.9652  107.9596  108.8306 C   0  0  0  0  0  0  0  0  0  0  0  0
  121.0552  108.1990  107.8010 C   0  0  0  0  0  0  0  0  0  0  0  0
  121.2705  110.0015  109.9192 C   0  0  0  0  0  0  0  0  0  0  0  0
  120.3604  110.2409  108.8896 C   0  0  0  0  0  0  0  0  0  0  0  0
  124.7219  105.9280  106.5133 C   0  0  0  0  0  0  0  0  0  0  0  0
  126.0710  107.8635  107.3722 C   0  0  0  0  0  0  0  0  0  0  0  0
  125.9158  105.0399  106.8454 C   0  0  0  0  0  0  0  0  0  0  0  0
  127.1892  106.8665  107.6555 C   0  0  0  0  0  0  0  0  0  0  0  0
  124.6891  107.1971  107.3748 C   0  0  0  0  0  0  0  0  0  0  0  0
  122.1493  105.4846  108.8185 C   0  0  0  0  0  0  0  0  0  0  0  0
  124.2094  106.9001  108.7979 C   0  0  0  0  0  0  0  0  0  0  0  0
  120.9310  107.2996  106.7181 N   0  0  0  0  0  0  0  0  0  0  0  0
  122.7878  106.8121  108.8201 N   0  0  3  0  0  0  0  0  0  0  0  0
  127.1359  105.7723  106.7415 O   0  0  0  0  0  0  0  0  0  0  0  0
  121.3854  110.8586  110.9438 F   0  0  0  0  0  0  0  0  0  0  0  0
  119.3702  111.6489  108.9186 Cl  0  0  0  0  0  0  0  0  0  0  0  0
  122.7780  108.6850  110.6981 H   0  0  0  0  0  0  0  0  0  0  0  0
  119.5438  109.5236  107.0260 H   0  0  0  0  0  0  0  0  0  0  0  0
  124.7377  106.1911  105.4434 H   0  0  0  0  0  0  0  0  0  0  0  0
  123.7954  105.3538  106.6844 H   0  0  0  0  0  0  0  0  0  0  0  0
  126.0927  108.6494  108.1462 H   0  0  0  0  0  0  0  0  0  0  0  0
  126.2530  108.3644  106.4078 H   0  0  0  0  0  0  0  0  0  0  0  0
  125.8322  104.6749  107.8740 H   0  0  0  0  0  0  0  0  0  0  0  0
  125.9574  104.1650  106.1861 H   0  0  0  0  0  0  0  0  0  0  0  0
  128.1740  107.3448  107.5960 H   0  0  0  0  0  0  0  0  0  0  0  0
  127.0790  106.4624  108.6669 H   0  0  0  0  0  0  0  0  0  0  0  0
  123.9707  107.9002  106.9189 H   0  0  0  0  0  0  0  0  0  0  0  0
  122.9115  104.7010  108.8100 H   0  0  0  0  0  0  0  0  0  0  0  0
  121.5172  105.3702  107.9338 H   0  0  0  0  0  0  0  0  0  0  0  0
  121.5290  105.3624  109.7105 H   0  0  0  0  0  0  0  0  0  0  0  0
  124.5286  107.7045  109.4479 H   0  0  0  0  0  0  0  0  0  0  0  0
  124.6313  105.9583  109.1230 H   0  0  0  0  0  0  0  0  0  0  0  0
  120.2386  107.4737  106.0198 H   0  0  0  0  0  0  0  0  0  0  0  0
  121.4714  106.4598  106.7208 H   0  0  0  0  0  0  0  0  0  0  0  0
  1  3  1  0  0  0  0
  1  5  2  0  0  0  0
  2  4  1  0  0  0  0
  2  6  2  0  0  0  0
  3  4  2  0  0  0  0
  3 15  1  0  0  0  0
  4 14  1  0  0  0  0
  5  6  1  0  0  0  0
  5 17  1  0  0  0  0
  6 18  1  0  0  0  0
  7  9  1  0  0  0  0
  7 11  1  0  0  0  0
  8 10  1  0  0  0  0
  8 11  1  0  0  0  0
  9 16  1  0  0  0  0
 10 16  1  0  0  0  0
 11 13  1  0  0  0  0
 12 15  1  0  0  0  0
 13 15  1  0  0  0  0
  1 19  1  0  0  0  0
  2 20  1  0  0  0  0
  7 21  1  0  0  0  0
  7 22  1  0  0  0  0
  8 23  1  0  0  0  0
  8 24  1  0  0  0  0
  9 25  1  0  0  0  0
  9 26  1  0  0  0  0
 10 27  1  0  0  0  0
 10 28  1  0  0  0  0
 11 29  1  0  0  0  0
 12 30  1  0  0  0  0
 12 31  1  0  0  0  0
 12 32  1  0  0  0  0
 13 33  1  0  0  0  0
 13 34  1  0  0  0  0
 14 35  1  0  0  0  0
 14 36  1  0  0  0  0
M  END
> <FRED Chemgauss4 score>
-1.307151

$$$$
C97776743	P155157585
  -OEChem-05182014473D

 37 38  0     1  0  0  0  0  0999 V2000
  124.2434  107.2552  107.8564 C   0  0  0  0  0  0  0  0  0  0  0  0
  122.7275  108.0785  106.2191 C   0  0  0  0  0  0  0  0  0  0  0  0
  124.8754  107.5661  105.5848 C   0  0  0  0  0  0  0  0  0  0  0  0
  119.0913  105.2976  107.5521 C   0  0  0  0  0  0  0  0  0  0  0  0
  122.9710  107.7134  107.5333 C   0  0  0  0  0  0  0  0  0  0  0  0
  125.2196  107.1772  106.8694 C   0  0  0  0  0  0  0  0  0  0  0  0
  119.3376  107.2206  108.5776 C   0  0  0  0  0  0  0  0  0  0  0  0
  120.6602  106.9784  108.2706 C   0  0  0  0  0  0  0  0  0  0  0  0
  118.8142  108.3995  109.2977 C   0  0  0  0  0  0  0  0  0  0  0  0
  127.4210  104.5641  106.7171 C   0  0  0  0  0  0  0  0  0  0  0  0
  127.2012  105.4572  109.0635 C   0  0  0  0  0  0  0  0  0  0  0  0
  121.9051  107.8084  108.5662 C   0  0  2  0  0  0  0  0  0  0  0  0
  126.5886  105.4060  107.6721 C   0  0  0  0  0  0  0  0  0  0  0  0
  123.6502  108.0165  105.2330 N   0  0  0  0  0  0  0  0  0  0  0  0
  118.4365  106.2581  108.1660 N   0  0  0  0  0  0  0  0  0  0  0  0
  122.5075  109.7896  109.6515 N   0  0  0  0  0  0  0  0  0  0  0  0
  121.5188  109.2123  108.8087 N   0  0  0  0  0  0  0  0  0  0  0  0
  126.4811  106.7299  107.1580 O   0  0  0  0  0  0  0  0  0  0  0  0
  120.7928  105.4869  107.4344 S   0  0  0  0  0  0  0  0  0  0  0  0
  124.4769  106.9587  108.8758 H   0  0  0  0  0  0  0  0  0  0  0  0
  121.7534  108.4432  105.9078 H   0  0  0  0  0  0  0  0  0  0  0  0
  125.5970  107.5253  104.7749 H   0  0  0  0  0  0  0  0  0  0  0  0
  118.5911  104.4308  107.1425 H   0  0  0  0  0  0  0  0  0  0  0  0
  118.5568  109.2097  108.5966 H   0  0  0  0  0  0  0  0  0  0  0  0
  117.9091  108.1589  109.8802 H   0  0  0  0  0  0  0  0  0  0  0  0
  119.5453  108.7997  110.0202 H   0  0  0  0  0  0  0  0  0  0  0  0
  128.4414  104.9502  106.6335 H   0  0  0  0  0  0  0  0  0  0  0  0
  127.4667  103.5264  107.0648 H   0  0  0  0  0  0  0  0  0  0  0  0
  126.9721  104.5410  105.7179 H   0  0  0  0  0  0  0  0  0  0  0  0
  128.2164  105.8646  109.0359 H   0  0  0  0  0  0  0  0  0  0  0  0
  127.2384  104.4537  109.5007 H   0  0  0  0  0  0  0  0  0  0  0  0
  126.5953  106.0719  109.7384 H   0  0  0  0  0  0  0  0  0  0  0  0
  122.2878  107.4742  109.5495 H   0  0  0  0  0  0  0  0  0  0  0  0
  125.5757  104.9948  107.7337 H   0  0  0  0  0  0  0  0  0  0  0  0
  122.0835  110.0774  110.5330 H   0  0  0  0  0  0  0  0  0  0  0  0
  123.1812  109.0632  109.8908 H   0  0  0  0  0  0  0  0  0  0  0  0
  121.4953  109.6969  107.9195 H   0  0  0  0  0  0  0  0  0  0  0  0
  1  5  1  0  0  0  0
  1  6  2  0  0  0  0
  2  5  2  0  0  0  0
  2 14  1  0  0  0  0
  3  6  1  0  0  0  0
  3 14  2  0  0  0  0
  4 15  2  0  0  0  0
  4 19  1  0  0  0  0
  5 12  1  0  0  0  0
  6 18  1  0  0  0  0
  7  8  2  0  0  0  0
  7  9  1  0  0  0  0
  7 15  1  0  0  0  0
  8 12  1  0  0  0  0
  8 19  1  0  0  0  0
 10 13  1  0  0  0  0
 11 13  1  0  0  0  0
 12 17  1  0  0  0  0
 13 18  1  0  0  0  0
 16 17  1  0  0  0  0
  1 20  1  0  0  0  0
  2 21  1  0  0  0  0
  3 22  1  0  0  0  0
  4 23  1  0  0  0  0
  9 24  1  0  0  0  0
  9 25  1  0  0  0  0
  9 26  1  0  0  0  0
 10 27  1  0  0  0  0
 10 28  1  0  0  0  0
 10 29  1  0  0  0  0
 11 30  1  0  0  0  0
 11 31  1  0  0  0  0
 11 32  1  0  0  0  0
 12 33  1  0  0  0  0
 13 34  1  0  0  0  0
 16 35  1  0  0  0  0
 16 36  1  0  0  0  0
 17 37  1  0  0  0  0
M  END
> <FRED Chemgauss4 score>
-1.161975

$$$$
C40449126	P61405934
  -OEChem-05182014473D

 20 21  0     1  0  0  0  0  0999 V2000
  123.6136  108.6596  106.2373 C   0  0  0  0  0  0  0  0  0  0  0  0
  124.6480  107.8424  106.7269 C   0  0  0  0  0  0  0  0  0  0  0  0
  123.9779  106.9000  107.4646 C   0  0  0  0  0  0  0  0  0  0  0  0
  124.5422  105.7672  108.2242 C   0  0  0  0  0  0  0  0  0  0  0  0
  126.0624  105.9847  108.3841 C   0  0  0  0  0  0  0  0  0  0  0  0
  126.7214  106.5042  107.0850 C   0  0  0  0  0  0  0  0  0  0  0  0
  126.1320  107.8676  106.6302 C   0  0  1  0  0  0  0  0  0  0  0  0
  122.4033  108.2364  106.6271 N   0  0  0  0  0  0  0  0  0  0  0  0
  126.5434  108.1522  105.2590 N   0  0  0  0  0  0  0  0  0  0  0  0
  122.6435  107.1083  107.4122 O   0  0  0  0  0  0  0  0  0  0  0  0
  123.6812  109.5420  105.6180 H   0  0  0  0  0  0  0  0  0  0  0  0
  124.0707  105.6746  109.2078 H   0  0  0  0  0  0  0  0  0  0  0  0
  124.3605  104.8372  107.6739 H   0  0  0  0  0  0  0  0  0  0  0  0
  126.2441  106.7131  109.1855 H   0  0  0  0  0  0  0  0  0  0  0  0
  126.5340  105.0453  108.6938 H   0  0  0  0  0  0  0  0  0  0  0  0
  127.8033  106.6037  107.2353 H   0  0  0  0  0  0  0  0  0  0  0  0
  126.5785  105.7469  106.3016 H   0  0  0  0  0  0  0  0  0  0  0  0
  126.5113  108.6548  107.2846 H   0  0  0  0  0  0  0  0  0  0  0  0
  127.4570  107.8714  104.9751 H   0  0  0  0  0  0  0  0  0  0  0  0
  125.9895  108.7865  104.7249 H   0  0  0  0  0  0  0  0  0  0  0  0
  1  2  1  0  0  0  0
  1  8  2  0  0  0  0
  2  3  2  0  0  0  0
  2  7  1  0  0  0  0
  3  4  1  0  0  0  0
  3 10  1  0  0  0  0
  4  5  1  0  0  0  0
  5  6  1  0  0  0  0
  6  7  1  0  0  0  0
  7  9  1  0  0  0  0
  8 10  1  0  0  0  0
  1 11  1  0  0  0  0
  4 12  1  0  0  0  0
  4 13  1  0  0  0  0
  5 14  1  0  0  0  0
  5 15  1  0  0  0  0
  6 16  1  0  0  0  0
  6 17  1  0  0  0  0
  7 18  1  0  0  0  0
  9 19  1  0  0  0  0
  9 20  1  0  0  0  0
M  END
> <FRED Chemgauss4 score>
-0.468225

$$$$
C93828570	P147036134
  -OEChem-05182014473D

 49 52  0     1  0  0  0  0  0999 V2000
  124.5668  104.2749  107.0166 C   0  0  0  0  0  0  0  0  0  0  0  0
  116.9098  105.9941  107.5967 C   0  0  0  0  0  0  0  0  0  0  0  0
  117.4642  106.8286  108.7147 C   0  0  0  0  0  0  0  0  0  0  0  0
  123.3770  105.7739  104.1938 C   0  0  0  0  0  0  0  0  0  0  0  0
  126.1012  105.9699  109.0787 C   0  0  0  0  0  0  0  0  0  0  0  0
  127.3627  106.6663  108.6576 C   0  0  0  0  0  0  0  0  0  0  0  0
  124.6853  105.1256  104.6658 C   0  0  0  0  0  0  0  0  0  0  0  0
  123.7680  106.5660  106.4098 C   0  0  0  0  0  0  0  0  0  0  0  0
  119.5160  105.9673  105.6732 C   0  0  0  0  0  0  0  0  0  0  0  0
  120.4944  107.2224  107.4912 C   0  0  0  0  0  0  0  0  0  0  0  0
  120.4088  106.7182  104.6774 C   0  0  0  0  0  0  0  0  0  0  0  0
  121.3853  107.9710  106.4920 C   0  0  0  0  0  0  0  0  0  0  0  0
  118.3972  106.0748  107.8069 C   0  0  0  0  0  0  0  0  0  0  0  0
  122.6351  106.1536  105.4718 C   0  0  1  0  0  0  0  0  0  0  0  0
  126.1612  106.6777  107.7526 C   0  0  0  0  0  0  0  0  0  0  0  0
  124.8242  105.4842  106.1566 C   0  0  1  0  0  0  0  0  0  0  0  0
  119.2434  106.7926  106.8557 N   0  0  0  0  0  0  0  0  0  0  0  0
  121.6592  107.2207  105.2602 N   0  0  0  0  0  0  0  0  0  0  0  0
  125.4303  103.2317  106.7794 N   0  0  0  0  0  0  0  0  0  0  0  0
  126.1684  105.9194  106.5089 N   0  0  0  0  0  0  0  0  0  0  0  0
  123.6724  104.2512  107.8586 O   0  0  0  0  0  0  0  0  0  0  0  0
  116.3953  105.0781  107.8607 H   0  0  0  0  0  0  0  0  0  0  0  0
  116.4926  106.5110  106.7410 H   0  0  0  0  0  0  0  0  0  0  0  0
  117.4195  107.9058  108.6099 H   0  0  0  0  0  0  0  0  0  0  0  0
  117.3208  106.4715  109.7273 H   0  0  0  0  0  0  0  0  0  0  0  0
  123.6144  106.6631  103.5952 H   0  0  0  0  0  0  0  0  0  0  0  0
  122.7916  105.0996  103.5602 H   0  0  0  0  0  0  0  0  0  0  0  0
  126.1055  104.8867  109.0917 H   0  0  0  0  0  0  0  0  0  0  0  0
  125.5135  106.4245  109.8669 H   0  0  0  0  0  0  0  0  0  0  0  0
  127.6222  107.5887  109.1628 H   0  0  0  0  0  0  0  0  0  0  0  0
  128.2116  106.0495  108.3889 H   0  0  0  0  0  0  0  0  0  0  0  0
  124.6606  104.0425  104.4989 H   0  0  0  0  0  0  0  0  0  0  0  0
  125.5139  105.5177  104.0633 H   0  0  0  0  0  0  0  0  0  0  0  0
  124.1520  107.5580  106.1352 H   0  0  0  0  0  0  0  0  0  0  0  0
  123.4350  106.6109  107.4531 H   0  0  0  0  0  0  0  0  0  0  0  0
  118.5799  105.6688  105.1825 H   0  0  0  0  0  0  0  0  0  0  0  0
  120.0316  105.0476  105.9747 H   0  0  0  0  0  0  0  0  0  0  0  0
  121.0444  106.3459  107.8547 H   0  0  0  0  0  0  0  0  0  0  0  0
  120.2908  107.8612  108.3612 H   0  0  0  0  0  0  0  0  0  0  0  0
  120.6227  106.0583  103.8084 H   0  0  0  0  0  0  0  0  0  0  0  0
  119.8251  107.5682  104.2677 H   0  0  0  0  0  0  0  0  0  0  0  0
  120.8846  108.9278  106.2372 H   0  0  0  0  0  0  0  0  0  0  0  0
  122.3361  108.2578  106.9923 H   0  0  0  0  0  0  0  0  0  0  0  0
  118.8723  105.1941  108.2272 H   0  0  0  0  0  0  0  0  0  0  0  0
  122.1196  105.2757  105.8713 H   0  0  0  0  0  0  0  0  0  0  0  0
  125.6188  107.6152  107.6827 H   0  0  0  0  0  0  0  0  0  0  0  0
  126.1489  103.3456  106.0722 H   0  0  0  0  0  0  0  0  0  0  0  0
  125.3778  102.3524  107.2833 H   0  0  0  0  0  0  0  0  0  0  0  0
  126.5383  106.5054  105.7609 H   0  0  0  0  0  0  0  0  0  0  0  0
  1 16  1  0  0  0  0
  1 19  1  0  0  0  0
  1 21  2  0  0  0  0
  2  3  1  0  0  0  0
  2 13  1  0  0  0  0
  3 13  1  0  0  0  0
  4  7  1  0  0  0  0
  4 14  1  0  0  0  0
  5  6  1  0  0  0  0
  5 15  1  0  0  0  0
  6 15  1  0  0  0  0
  7 16  1  0  0  0  0
  8 14  1  0  0  0  0
  8 16  1  0  0  0  0
  9 11  1  0  0  0  0
  9 17  1  0  0  0  0
 10 12  1  0  0  0  0
 10 17  1  0  0  0  0
 11 18  1  0  0  0  0
 12 18  1  0  0  0  0
 13 17  1  0  0  0  0
 14 18  1  0  0  0  0
 15 20  1  0  0  0  0
 16 20  1  0  0  0  0
  2 22  1  0  0  0  0
  2 23  1  0  0  0  0
  3 24  1  0  0  0  0
  3 25  1  0  0  0  0
  4 26  1  0  0  0  0
  4 27  1  0  0  0  0
  5 28  1  0  0  0  0
  5 29  1  0  0  0  0
  6 30  1  0  0  0  0
  6 31  1  0  0  0  0
  7 32  1  0  0  0  0
  7 33  1  0  0  0  0
  8 34  1  0  0  0  0
  8 35  1  0  0  0  0
  9 36  1  0  0  0  0
  9 37  1  0  0  0  0
 10 38  1  0  0  0  0
 10 39  1  0  0  0  0
 11 40  1  0  0  0  0
 11 41  1  0  0  0  0
 12 42  1  0  0  0  0
 12 43  1  0  0  0  0
 13 44  1  0  0  0  0
 14 45  1  0  0  0  0
 15 46  1  0  0  0  0
 19 47  1  0  0  0  0
 19 48  1  0  0  0  0
 20 49  1  0  0  0  0
M  END
> <FRED Chemgauss4 score>
-0.356379

$$$$
C53134864	P79655074
  -OEChem-05182014473D

 27 28  0     1  0  0  0  0  0999 V2000
  121.1557  108.5673  108.6199 C   0  0  0  0  0  0  0  0  0  0  0  0
  120.9092  106.8904  106.9136 C   0  0  0  0  0  0  0  0  0  0  0  0
  119.8624  108.9730  108.3322 C   0  0  0  0  0  0  0  0  0  0  0  0
  119.6269  107.3710  106.7024 C   0  0  0  0  0  0  0  0  0  0  0  0
  125.9871  105.3661  106.2507 C   0  0  0  0  0  0  0  0  0  0  0  0
  125.7504  106.0512  108.4713 C   0  0  0  0  0  0  0  0  0  0  0  0
  127.6777  105.0896  107.7448 C   0  0  0  0  0  0  0  0  0  0  0  0
  121.6816  107.5054  107.8925 C   0  0  0  0  0  0  0  0  0  0  0  0
  125.1870  105.9421  107.2163 C   0  0  0  0  0  0  0  0  0  0  0  0
  123.0686  107.0286  108.1607 C   0  0  0  0  0  0  0  0  0  0  0  0
  123.7782  106.4258  106.9174 C   0  0  1  0  0  0  0  0  0  0  0  0
  119.0817  108.4002  107.3889 N   0  0  0  0  0  0  0  0  0  0  0  0
  127.2419  104.9271  106.4811 N   0  0  0  0  0  0  0  0  0  0  0  0
  126.9977  105.6337  108.7720 N   0  0  0  0  0  0  0  0  0  0  0  0
  123.7800  107.3964  105.8144 N   0  0  0  0  0  0  0  0  0  0  0  0
  121.7327  109.0688  109.3895 H   0  0  0  0  0  0  0  0  0  0  0  0
  121.2913  106.0599  106.3299 H   0  0  0  0  0  0  0  0  0  0  0  0
  119.4064  109.7976  108.8705 H   0  0  0  0  0  0  0  0  0  0  0  0
  118.9842  106.9256  105.9503 H   0  0  0  0  0  0  0  0  0  0  0  0
  125.6367  105.2351  105.2316 H   0  0  0  0  0  0  0  0  0  0  0  0
  125.2028  106.4896  109.2998 H   0  0  0  0  0  0  0  0  0  0  0  0
  128.6821  104.7446  107.9576 H   0  0  0  0  0  0  0  0  0  0  0  0
  123.0304  106.2627  108.9569 H   0  0  0  0  0  0  0  0  0  0  0  0
  123.6834  107.8406  108.5897 H   0  0  0  0  0  0  0  0  0  0  0  0
  123.1862  105.5694  106.5700 H   0  0  0  0  0  0  0  0  0  0  0  0
  122.9998  108.0053  105.7361 H   0  0  0  0  0  0  0  0  0  0  0  0
  124.4460  107.2677  105.0894 H   0  0  0  0  0  0  0  0  0  0  0  0
  1  3  1  0  0  0  0
  1  8  2  0  0  0  0
  2  4  2  0  0  0  0
  2  8  1  0  0  0  0
  3 12  2  0  0  0  0
  4 12  1  0  0  0  0
  5  9  1  0  0  0  0
  5 13  2  0  0  0  0
  6  9  2  0  0  0  0
  6 14  1  0  0  0  0
  7 13  1  0  0  0  0
  7 14  2  0  0  0  0
  8 10  1  0  0  0  0
  9 11  1  0  0  0  0
 10 11  1  0  0  0  0
 11 15  1  0  0  0  0
  1 16  1  0  0  0  0
  2 17  1  0  0  0  0
  3 18  1  0  0  0  0
  4 19  1  0  0  0  0
  5 20  1  0  0  0  0
  6 21  1  0  0  0  0
  7 22  1  0  0  0  0
 10 23  1  0  0  0  0
 10 24  1  0  0  0  0
 11 25  1  0  0  0  0
 15 26  1  0  0  0  0
 15 27  1  0  0  0  0
M  END
> <FRED Chemgauss4 score>
-0.102690

$$$$
C93827756	P147015387
  -OEChem-05182014473D

 49 50  0     1  0  0  0  0  0999 V2000
  120.1829  109.1172  108.9873 C   0  0  0  0  0  0  0  0  0  0  0  0
  120.5056  108.1588  105.8792 C   0  0  0  0  0  0  0  0  0  0  0  0
  119.2896  108.5118  106.7290 C   0  0  0  0  0  0  0  0  0  0  0  0
  120.7347  106.9198  107.9257 C   0  0  0  0  0  0  0  0  0  0  0  0
  123.2120  107.3125  106.5073 C   0  0  0  0  0  0  0  0  0  0  0  0
  123.7912  105.8237  104.1838 C   0  0  0  0  0  0  0  0  0  0  0  0
  120.8748  106.7781  106.4065 C   0  0  2  0  0  0  0  0  0  0  0  0
  122.3467  106.2212  104.5280 C   0  0  1  0  0  0  0  0  0  0  0  0
  124.6243  106.8713  106.1164 C   0  0  2  0  0  0  0  0  0  0  0  0
  119.6515  107.9984  108.1333 C   0  0  1  0  0  0  0  0  0  0  0  0
  125.6648  107.8780  106.5882 C   0  0  0  0  0  0  0  0  0  0  0  0
  121.5719  105.0458  102.4624 C   0  0  0  0  0  0  0  0  0  0  0  0
  116.2973  108.0274  109.7591 C   0  0  0  0  0  0  0  0  0  0  0  0
  121.3957  105.1748  103.9380 C   0  0  0  0  0  0  0  0  0  0  0  0
  117.4887  108.5384  109.0227 C   0  0  0  0  0  0  0  0  0  0  0  0
  122.2153  106.3540  105.9962 N   0  0  1  0  0  0  0  0  0  0  0  0
  120.5273  108.7278  110.2600 N   0  0  0  0  0  0  0  0  0  0  0  0
  118.4855  107.4915  108.8452 N   0  0  0  0  0  0  0  0  0  0  0  0
  120.3054  110.2627  108.5604 O   0  0  0  0  0  0  0  0  0  0  0  0
  124.7180  106.7817  104.6930 O   0  0  0  0  0  0  0  0  0  0  0  0
  120.2719  108.1506  104.8101 H   0  0  0  0  0  0  0  0  0  0  0  0
  121.3117  108.8833  106.0496 H   0  0  0  0  0  0  0  0  0  0  0  0
  119.0714  109.5844  106.6951 H   0  0  0  0  0  0  0  0  0  0  0  0
  118.4138  107.9849  106.3274 H   0  0  0  0  0  0  0  0  0  0  0  0
  120.4681  105.9538  108.3719 H   0  0  0  0  0  0  0  0  0  0  0  0
  121.6846  107.2237  108.3854 H   0  0  0  0  0  0  0  0  0  0  0  0
  123.1476  107.3704  107.6007 H   0  0  0  0  0  0  0  0  0  0  0  0
  123.0075  108.3138  106.1044 H   0  0  0  0  0  0  0  0  0  0  0  0
  124.0461  104.8291  104.5721 H   0  0  0  0  0  0  0  0  0  0  0  0
  123.9248  105.7930  103.0968 H   0  0  0  0  0  0  0  0  0  0  0  0
  120.1385  106.0457  106.0469 H   0  0  0  0  0  0  0  0  0  0  0  0
  122.1366  107.1926  104.0591 H   0  0  0  0  0  0  0  0  0  0  0  0
  124.8602  105.8920  106.5534 H   0  0  0  0  0  0  0  0  0  0  0  0
  125.4520  108.8608  106.1668 H   0  0  0  0  0  0  0  0  0  0  0  0
  126.6592  107.5649  106.2690 H   0  0  0  0  0  0  0  0  0  0  0  0
  125.6493  107.9493  107.6761 H   0  0  0  0  0  0  0  0  0  0  0  0
  121.3784  106.0141  101.9861 H   0  0  0  0  0  0  0  0  0  0  0  0
  120.8696  104.3160  102.0456 H   0  0  0  0  0  0  0  0  0  0  0  0
  122.5950  104.7437  102.2146 H   0  0  0  0  0  0  0  0  0  0  0  0
  115.8212  107.2073  109.2109 H   0  0  0  0  0  0  0  0  0  0  0  0
  116.5767  107.6789  110.7594 H   0  0  0  0  0  0  0  0  0  0  0  0
  115.5593  108.8303  109.8740 H   0  0  0  0  0  0  0  0  0  0  0  0
  121.5869  104.2139  104.4193 H   0  0  0  0  0  0  0  0  0  0  0  0
  120.3682  105.4653  104.1642 H   0  0  0  0  0  0  0  0  0  0  0  0
  117.9592  109.3570  109.5756 H   0  0  0  0  0  0  0  0  0  0  0  0
  117.2054  108.9005  108.0301 H   0  0  0  0  0  0  0  0  0  0  0  0
  120.4041  107.7552  110.5219 H   0  0  0  0  0  0  0  0  0  0  0  0
  120.9000  109.3739  110.9482 H   0  0  0  0  0  0  0  0  0  0  0  0
  118.0758  106.7243  108.3134 H   0  0  0  0  0  0  0  0  0  0  0  0
  1 10  1  0  0  0  0
  1 17  1  0  0  0  0
  1 19  2  0  0  0  0
  2  3  1  0  0  0  0
  2  7  1  0  0  0  0
  3 10  1  0  0  0  0
  4  7  1  0  0  0  0
  4 10  1  0  0  0  0
  5  9  1  0  0  0  0
  5 16  1  0  0  0  0
  6  8  1  0  0  0  0
  6 20  1  0  0  0  0
  7 16  1  0  0  0  0
  8 14  1  0  0  0  0
  8 16  1  0  0  0  0
  9 11  1  0  0  0  0
  9 20  1  0  0  0  0
 10 18  1  0  0  0  0
 12 14  1  0  0  0  0
 13 15  1  0  0  0  0
 15 18  1  0  0  0  0
  2 21  1  0  0  0  0
  2 22  1  0  0  0  0
  3 23  1  0  0  0  0
  3 24  1  0  0  0  0
  4 25  1  0  0  0  0
  4 26  1  0  0  0  0
  5 27  1  0  0  0  0
  5 28  1  0  0  0  0
  6 29  1  0  0  0  0
  6 30  1  0  0  0  0
  7 31  1  0  0  0  0
  8 32  1  0  0  0  0
  9 33  1  0  0  0  0
 11 34  1  0  0  0  0
 11 35  1  0  0  0  0
 11 36  1  0  0  0  0
 12 37  1  0  0  0  0
 12 38  1  0  0  0  0
 12 39  1  0  0  0  0
 13 40  1  0  0  0  0
 13 41  1  0  0  0  0
 13 42  1  0  0  0  0
 14 43  1  0  0  0  0
 14 44  1  0  0  0  0
 15 45  1  0  0  0  0
 15 46  1  0  0  0  0
 17 47  1  0  0  0  0
 17 48  1  0  0  0  0
 18 49  1  0  0  0  0
M  END
> <FRED Chemgauss4 score>
0.280571

$$$$
C57315525	P86042858
  -OEChem-05182014473D

 44 46  0     1  0  0  0  0  0999 V2000
  123.6344  104.7410  110.0346 C   0  0  0  0  0  0  0  0  0  0  0  0
  123.9787  103.5716  110.6784 C   0  0  0  0  0  0  0  0  0  0  0  0
  116.7270  107.9699  106.6248 C   0  0  0  0  0  0  0  0  0  0  0  0
  124.6730  105.2102  109.1718 C   0  0  0  0  0  0  0  0  0  0  0  0
  125.7598  104.3589  109.1987 C   0  0  0  0  0  0  0  0  0  0  0  0
  117.2360  109.2508  106.5768 C   0  0  0  0  0  0  0  0  0  0  0  0
  118.7914  108.2341  105.4120 C   0  0  0  0  0  0  0  0  0  0  0  0
  121.1142  107.3221  105.4194 C   0  0  0  0  0  0  0  0  0  0  0  0
  124.2214  106.5436  105.3845 C   0  0  0  0  0  0  0  0  0  0  0  0
  126.9869  104.5431  108.3697 C   0  0  0  0  0  0  0  0  0  0  0  0
  127.0040  105.9616  107.7707 C   0  0  0  0  0  0  0  0  0  0  0  0
  124.6440  106.4623  108.3302 C   0  0  1  0  0  0  0  0  0  0  0  0
  116.6273  110.4442  107.1972 C   0  0  0  0  0  0  0  0  0  0  0  0
  124.8100  107.7189  109.1940 C   0  0  0  0  0  0  0  0  0  0  0  0
  120.0366  107.9991  104.5992 C   0  0  0  0  0  0  0  0  0  0  0  0
  125.2616  105.7023  106.0885 C   0  0  0  0  0  0  0  0  0  0  0  0
  118.4199  109.4042  105.8821 N   0  0  0  0  0  0  0  0  0  0  0  0
  125.6942  106.4367  107.2783 N   0  0  2  0  0  0  0  0  0  0  0  0
  121.9654  106.5516  104.6522 N   0  0  0  0  0  0  0  0  0  0  0  0
  123.0053  105.8988  105.2652 N   0  0  0  0  0  0  0  0  0  0  0  0
  121.2015  107.4840  106.6355 O   0  0  0  0  0  0  0  0  0  0  0  0
  124.4649  107.6799  104.9810 O   0  0  0  0  0  0  0  0  0  0  0  0
  125.5447  103.0342  110.2409 S   0  0  0  0  0  0  0  0  0  0  0  0
  117.7637  106.9065  105.7671 S   0  0  0  0  0  0  0  0  0  0  0  0
  122.6821  105.2309  110.1828 H   0  0  0  0  0  0  0  0  0  0  0  0
  123.3822  103.0047  111.3796 H   0  0  0  0  0  0  0  0  0  0  0  0
  115.8257  107.6161  107.1052 H   0  0  0  0  0  0  0  0  0  0  0  0
  127.8753  104.3944  109.0000 H   0  0  0  0  0  0  0  0  0  0  0  0
  127.0308  103.8057  107.5571 H   0  0  0  0  0  0  0  0  0  0  0  0
  127.3853  106.6436  108.5617 H   0  0  0  0  0  0  0  0  0  0  0  0
  127.7587  106.0149  106.9528 H   0  0  0  0  0  0  0  0  0  0  0  0
  123.6473  106.5018  107.8462 H   0  0  0  0  0  0  0  0  0  0  0  0
  116.9935  110.5869  108.2269 H   0  0  0  0  0  0  0  0  0  0  0  0
  116.8512  111.3643  106.6310 H   0  0  0  0  0  0  0  0  0  0  0  0
  115.5270  110.3726  107.2393 H   0  0  0  0  0  0  0  0  0  0  0  0
  125.7820  107.6971  109.6764 H   0  0  0  0  0  0  0  0  0  0  0  0
  124.0294  107.7421  109.9478 H   0  0  0  0  0  0  0  0  0  0  0  0
  124.7352  108.5999  108.5643 H   0  0  0  0  0  0  0  0  0  0  0  0
  119.8197  107.3591  103.7352 H   0  0  0  0  0  0  0  0  0  0  0  0
  120.3909  108.9510  104.1856 H   0  0  0  0  0  0  0  0  0  0  0  0
  126.1028  105.5533  105.4044 H   0  0  0  0  0  0  0  0  0  0  0  0
  124.8698  104.7205  106.3707 H   0  0  0  0  0  0  0  0  0  0  0  0
  121.8242  106.4694  103.6509 H   0  0  0  0  0  0  0  0  0  0  0  0
  122.8215  104.9587  105.5990 H   0  0  0  0  0  0  0  0  0  0  0  0
  1  2  2  0  0  0  0
  1  4  1  0  0  0  0
  2 23  1  0  0  0  0
  3  6  2  0  0  0  0
  3 24  1  0  0  0  0
  4  5  2  0  0  0  0
  4 12  1  0  0  0  0
  5 10  1  0  0  0  0
  5 23  1  0  0  0  0
  6 13  1  0  0  0  0
  6 17  1  0  0  0  0
  7 15  1  0  0  0  0
  7 17  2  0  0  0  0
  7 24  1  0  0  0  0
  8 15  1  0  0  0  0
  8 19  1  0  0  0  0
  8 21  2  0  0  0  0
  9 16  1  0  0  0  0
  9 20  1  0  0  0  0
  9 22  2  0  0  0  0
 10 11  1  0  0  0  0
 11 18  1  0  0  0  0
 12 14  1  0  0  0  0
 12 18  1  0  0  0  0
 16 18  1  0  0  0  0
 19 20  1  0  0  0  0
  1 25  1  0  0  0  0
  2 26  1  0  0  0  0
  3 27  1  0  0  0  0
 10 28  1  0  0  0  0
 10 29  1  0  0  0  0
 11 30  1  0  0  0  0
 11 31  1  0  0  0  0
 12 32  1  0  0  0  0
 13 33  1  0  0  0  0
 13 34  1  0  0  0  0
 13 35  1  0  0  0  0
 14 36  1  0  0  0  0
 14 37  1  0  0  0  0
 14 38  1  0  0  0  0
 15 39  1  0  0  0  0
 15 40  1  0  0  0  0
 16 41  1  0  0  0  0
 16 42  1  0  0  0  0
 19 43  1  0  0  0  0
 20 44  1  0  0  0  0
M  END
> <FRED Chemgauss4 score>
1.646650

$$$$
C38759430	P117559224
  -OEChem-05182014473D

 18 18  0     0  0  0  0  0  0999 V2000
  125.9985  109.4159  106.6893 C   0  0  0  0  0  0  0  0  0  0  0  0
  123.5972  108.1330  106.3863 C   0  0  0  0  0  0  0  0  0  0  0  0
  123.7467  109.3226  107.0132 C   0  0  0  0  0  0  0  0  0  0  0  0
  124.8316  107.4818  105.8238 C   0  0  0  0  0  0  0  0  0  0  0  0
  122.5899  110.0781  107.6176 C   0  0  0  0  0  0  0  0  0  0  0  0
  124.9474  109.9848  107.1763 N   0  0  0  0  0  0  0  0  0  0  0  0
  125.9886  108.2121  106.0311 N   0  0  0  0  0  0  0  0  0  0  0  0
  122.4416  107.4324  106.1937 N   0  0  0  0  0  0  0  0  0  0  0  0
  127.1956  107.7179  105.5579 N   0  0  0  0  0  0  0  0  0  0  0  0
  124.7682  106.4008  105.2419 O   0  0  0  0  0  0  0  0  0  0  0  0
  126.9893  109.8889  106.7827 H   0  0  0  0  0  0  0  0  0  0  0  0
  122.4645  109.7683  108.6498 H   0  0  0  0  0  0  0  0  0  0  0  0
  121.6892  109.8600  107.0528 H   0  0  0  0  0  0  0  0  0  0  0  0
  122.7983  111.1421  107.5722 H   0  0  0  0  0  0  0  0  0  0  0  0
  121.5898  107.8131  106.5433 H   0  0  0  0  0  0  0  0  0  0  0  0
  122.4866  106.5626  105.7098 H   0  0  0  0  0  0  0  0  0  0  0  0
  127.8240  108.4858  105.2798 H   0  0  0  0  0  0  0  0  0  0  0  0
  127.0549  107.1748  104.6939 H   0  0  0  0  0  0  0  0  0  0  0  0
  1  6  2  0  0  0  0
  1  7  1  0  0  0  0
  2  3  2  0  0  0  0
  2  4  1  0  0  0  0
  2  8  1  0  0  0  0
  3  5  1  0  0  0  0
  3  6  1  0  0  0  0
  4  7  1  0  0  0  0
  4 10  2  0  0  0  0
  7  9  1  0  0  0  0
  1 11  1  0  0  0  0
  5 12  1  0  0  0  0
  5 13  1  0  0  0  0
  5 14  1  0  0  0  0
  8 15  1  0  0  0  0
  8 16  1  0  0  0  0
  9 17  1  0  0  0  0
  9 18  1  0  0  0  0
M  END
> <FRED Chemgauss4 score>
2.654736

$$$$
